MODEL 1
REMARK VINA RESULT:      -9.1      0.000      0.000
REMARK  5 active torsions:
REMARK  status: ('A' for Active; 'I' for Inactive)
REMARK    1  A    between atoms: C_4  and  N_5 
REMARK       I    between atoms: N_5  and  C_6 
REMARK    2  A    between atoms: C_6  and  C_7 
REMARK    3  A    between atoms: N_9  and  C_10 
REMARK    4  A    between atoms: C_10  and  C_11 
REMARK    5  A    between atoms: C_14  and  O_15 
ROOT
HETATM    1  C   UNL     1      25.081  46.151  52.051  1.00  0.00     0.105 C 
HETATM    2  C   UNL     1      24.432  45.087  51.185  1.00  0.00     0.140 C 
HETATM    3  N   UNL     1      25.439  44.809  50.189  1.00  0.00    -0.347 N 
HETATM    4  C   UNL     1      26.321  45.863  50.024  1.00  0.00     0.221 C 
HETATM    5  O   UNL     1      27.167  45.976  49.154  1.00  0.00    -0.273 OA
HETATM    6  C   UNL     1      26.061  46.867  51.121  1.00  0.00     0.118 C 
ENDROOT
BRANCH   1   7
HETATM    7  C   UNL     1      25.761  45.544  53.276  1.00  0.00     0.228 C 
HETATM    8  N   UNL     1      27.041  45.995  53.499  1.00  0.00    -0.325 N 
HETATM    9  H   UNL     1      27.440  46.691  52.868  1.00  0.00     0.169 HD
HETATM   10  O   UNL     1      25.162  44.717  53.959  1.00  0.00    -0.273 OA
BRANCH   8  11
HETATM   11  C   UNL     1      27.963  45.617  54.505  1.00  0.00     0.065 A 
HETATM   12  C   UNL     1      28.032  46.222  55.763  1.00  0.00     0.038 A 
HETATM   13  C   UNL     1      28.961  45.781  56.712  1.00  0.00    -0.059 A 
HETATM   14  C   UNL     1      29.053  46.441  58.057  1.00  0.00     0.048 C 
HETATM   15  C   UNL     1      29.841  44.748  56.373  1.00  0.00     0.020 A 
HETATM   16  C   UNL     1      29.779  44.138  55.109  1.00  0.00    -0.005 A 
HETATM   17  C   UNL     1      28.828  44.565  54.160  1.00  0.00     0.093 A 
HETATM   18  C   UNL     1      30.651  43.101  54.750  1.00  0.00     0.015 A 
HETATM   19  N   UNL     1      28.733  43.993  52.935  1.00  0.00    -0.258 NA
HETATM   20  C   UNL     1      29.598  43.002  52.624  1.00  0.00     0.117 A 
HETATM   21  C   UNL     1      30.564  42.526  53.488  1.00  0.00     0.020 A 
ENDBRANCH   8  11
ENDBRANCH   1   7
BRANCH   3  22
HETATM   22  C   UNL     1      25.337  43.692  49.270  1.00  0.00     0.164 C 
BRANCH  22  23
HETATM   23  C   UNL     1      26.216  42.530  49.657  1.00  0.00    -0.040 A 
HETATM   24  C   UNL     1      27.004  41.889  48.694  1.00  0.00     0.011 A 
HETATM   25  C   UNL     1      27.840  40.831  49.056  1.00  0.00     0.037 A 
HETATM   26  C   UNL     1      27.908  40.399  50.381  1.00  0.00     0.068 A 
HETATM   27  C   UNL     1      27.100  41.010  51.341  1.00  0.00     0.037 A 
HETATM   28  C   UNL     1      26.259  42.070  50.980  1.00  0.00     0.011 A 
BRANCH  26  29
HETATM   29  O   UNL     1      28.781  39.372  50.610  1.00  0.00    -0.356 OA
HETATM   30  C   UNL     1      29.155  38.595  49.478  1.00  0.00     0.210 C 
ENDBRANCH  26  29
ENDBRANCH  22  23
ENDBRANCH   3  22
TORSDOF 5
ENDMDL
MODEL 2
REMARK VINA RESULT:      -8.9      2.592      5.434
REMARK  5 active torsions:
REMARK  status: ('A' for Active; 'I' for Inactive)
REMARK    1  A    between atoms: C_4  and  N_5 
REMARK       I    between atoms: N_5  and  C_6 
REMARK    2  A    between atoms: C_6  and  C_7 
REMARK    3  A    between atoms: N_9  and  C_10 
REMARK    4  A    between atoms: C_10  and  C_11 
REMARK    5  A    between atoms: C_14  and  O_15 
ROOT
HETATM    1  C   UNL     1      26.404  42.935  50.397  1.00  0.00     0.105 C 
HETATM    2  C   UNL     1      25.862  43.416  49.063  1.00  0.00     0.140 C 
HETATM    3  N   UNL     1      24.482  43.723  49.355  1.00  0.00    -0.347 N 
HETATM    4  C   UNL     1      24.013  43.033  50.460  1.00  0.00     0.221 C 
HETATM    5  O   UNL     1      22.857  42.971  50.843  1.00  0.00    -0.273 OA
HETATM    6  C   UNL     1      25.189  42.362  51.128  1.00  0.00     0.118 C 
ENDROOT
BRANCH   1   7
HETATM    7  C   UNL     1      27.083  44.063  51.170  1.00  0.00     0.228 C 
HETATM    8  N   UNL     1      26.878  44.026  52.530  1.00  0.00    -0.325 N 
HETATM    9  H   UNL     1      26.320  43.269  52.928  1.00  0.00     0.169 HD
HETATM   10  O   UNL     1      27.736  44.909  50.565  1.00  0.00    -0.273 OA
BRANCH   8  11
HETATM   11  C   UNL     1      27.320  44.927  53.529  1.00  0.00     0.065 A 
HETATM   12  C   UNL     1      26.670  46.127  53.834  1.00  0.00     0.038 A 
HETATM   13  C   UNL     1      27.158  46.959  54.848  1.00  0.00    -0.059 A 
HETATM   14  C   UNL     1      26.477  48.258  55.165  1.00  0.00     0.048 C 
HETATM   15  C   UNL     1      28.322  46.590  55.529  1.00  0.00     0.020 A 
HETATM   16  C   UNL     1      28.981  45.387  55.225  1.00  0.00    -0.005 A 
HETATM   17  C   UNL     1      28.478  44.536  54.220  1.00  0.00     0.093 A 
HETATM   18  C   UNL     1      30.149  44.999  55.896  1.00  0.00     0.015 A 
HETATM   19  N   UNL     1      29.082  43.364  53.907  1.00  0.00    -0.258 NA
HETATM   20  C   UNL     1      30.210  43.029  54.571  1.00  0.00     0.117 A 
HETATM   21  C   UNL     1      30.776  43.804  55.564  1.00  0.00     0.020 A 
ENDBRANCH   8  11
ENDBRANCH   1   7
BRANCH   3  22
HETATM   22  C   UNL     1      23.625  44.422  48.418  1.00  0.00     0.164 C 
BRANCH  22  23
HETATM   23  C   UNL     1      23.445  45.879  48.761  1.00  0.00    -0.040 A 
HETATM   24  C   UNL     1      24.280  46.492  49.703  1.00  0.00     0.011 A 
HETATM   25  C   UNL     1      24.133  47.849  50.000  1.00  0.00     0.037 A 
HETATM   26  C   UNL     1      23.157  48.615  49.361  1.00  0.00     0.068 A 
HETATM   27  C   UNL     1      22.299  48.004  48.446  1.00  0.00     0.037 A 
HETATM   28  C   UNL     1      22.443  46.644  48.148  1.00  0.00     0.011 A 
BRANCH  26  29
HETATM   29  O   UNL     1      23.132  49.934  49.722  1.00  0.00    -0.356 OA
HETATM   30  C   UNL     1      21.880  50.600  49.599  1.00  0.00     0.210 C 
ENDBRANCH  26  29
ENDBRANCH  22  23
ENDBRANCH   3  22
TORSDOF 5
ENDMDL
MODEL 3
REMARK VINA RESULT:      -8.9      1.879      5.044
REMARK  5 active torsions:
REMARK  status: ('A' for Active; 'I' for Inactive)
REMARK    1  A    between atoms: C_4  and  N_5 
REMARK       I    between atoms: N_5  and  C_6 
REMARK    2  A    between atoms: C_6  and  C_7 
REMARK    3  A    between atoms: N_9  and  C_10 
REMARK    4  A    between atoms: C_10  and  C_11 
REMARK    5  A    between atoms: C_14  and  O_15 
ROOT
HETATM    1  C   UNL     1      28.510  41.917  51.272  1.00  0.00     0.105 C 
HETATM    2  C   UNL     1      27.390  42.789  50.734  1.00  0.00     0.140 C 
HETATM    3  N   UNL     1      26.240  41.918  50.776  1.00  0.00    -0.347 N 
HETATM    4  C   UNL     1      26.593  40.580  50.754  1.00  0.00     0.221 C 
HETATM    5  O   UNL     1      25.841  39.630  50.622  1.00  0.00    -0.273 OA
HETATM    6  C   UNL     1      28.090  40.487  50.928  1.00  0.00     0.118 C 
ENDROOT
BRANCH   1   7
HETATM    7  C   UNL     1      28.721  42.130  52.768  1.00  0.00     0.228 C 
HETATM    8  N   UNL     1      29.276  43.344  53.099  1.00  0.00    -0.325 N 
HETATM    9  H   UNL     1      29.492  44.010  52.357  1.00  0.00     0.169 HD
HETATM   10  O   UNL     1      28.409  41.243  53.559  1.00  0.00    -0.273 OA
BRANCH   8  11
HETATM   11  C   UNL     1      29.642  43.846  54.371  1.00  0.00     0.065 A 
HETATM   12  C   UNL     1      30.665  43.304  55.156  1.00  0.00     0.038 A 
HETATM   13  C   UNL     1      30.980  43.867  56.397  1.00  0.00    -0.059 A 
HETATM   14  C   UNL     1      32.063  43.277  57.252  1.00  0.00     0.048 C 
HETATM   15  C   UNL     1      30.236  44.959  56.858  1.00  0.00     0.020 A 
HETATM   16  C   UNL     1      29.204  45.505  56.076  1.00  0.00    -0.005 A 
HETATM   17  C   UNL     1      28.902  44.954  54.814  1.00  0.00     0.093 A 
HETATM   18  C   UNL     1      28.448  46.599  56.518  1.00  0.00     0.015 A 
HETATM   19  N   UNL     1      27.920  45.462  54.029  1.00  0.00    -0.258 NA
HETATM   20  C   UNL     1      27.208  46.511  54.495  1.00  0.00     0.117 A 
HETATM   21  C   UNL     1      27.432  47.109  55.719  1.00  0.00     0.020 A 
ENDBRANCH   8  11
ENDBRANCH   1   7
BRANCH   3  22
HETATM   22  C   UNL     1      24.890  42.399  50.553  1.00  0.00     0.164 C 
BRANCH  22  23
HETATM   23  C   UNL     1      24.796  43.903  50.541  1.00  0.00    -0.040 A 
HETATM   24  C   UNL     1      24.463  44.581  49.363  1.00  0.00     0.011 A 
HETATM   25  C   UNL     1      24.347  45.972  49.356  1.00  0.00     0.037 A 
HETATM   26  C   UNL     1      24.556  46.709  50.524  1.00  0.00     0.068 A 
HETATM   27  C   UNL     1      24.921  46.043  51.695  1.00  0.00     0.037 A 
HETATM   28  C   UNL     1      25.040  44.648  51.703  1.00  0.00     0.011 A 
BRANCH  26  29
HETATM   29  O   UNL     1      24.388  48.059  50.392  1.00  0.00    -0.356 OA
HETATM   30  C   UNL     1      23.492  48.489  49.375  1.00  0.00     0.210 C 
ENDBRANCH  26  29
ENDBRANCH  22  23
ENDBRANCH   3  22
TORSDOF 5
ENDMDL
MODEL 4
REMARK VINA RESULT:      -8.7      3.947      8.292
REMARK  5 active torsions:
REMARK  status: ('A' for Active; 'I' for Inactive)
REMARK    1  A    between atoms: C_4  and  N_5 
REMARK       I    between atoms: N_5  and  C_6 
REMARK    2  A    between atoms: C_6  and  C_7 
REMARK    3  A    between atoms: N_9  and  C_10 
REMARK    4  A    between atoms: C_10  and  C_11 
REMARK    5  A    between atoms: C_14  and  O_15 
ROOT
HETATM    1  C   UNL     1      25.916  46.217  50.447  1.00  0.00     0.105 C 
HETATM    2  C   UNL     1      26.297  45.080  51.378  1.00  0.00     0.140 C 
HETATM    3  N   UNL     1      25.996  45.606  52.687  1.00  0.00    -0.347 N 
HETATM    4  C   UNL     1      25.997  46.989  52.711  1.00  0.00     0.221 C 
HETATM    5  O   UNL     1      25.933  47.701  53.699  1.00  0.00    -0.273 OA
HETATM    6  C   UNL     1      26.090  47.483  51.288  1.00  0.00     0.118 C 
ENDROOT
BRANCH   1   7
HETATM    7  C   UNL     1      24.498  46.053  49.907  1.00  0.00     0.228 C 
HETATM    8  N   UNL     1      24.021  47.144  49.218  1.00  0.00    -0.325 N 
HETATM    9  H   UNL     1      24.623  47.959  49.100  1.00  0.00     0.169 HD
HETATM   10  O   UNL     1      23.884  45.010  50.115  1.00  0.00    -0.273 OA
BRANCH   8  11
HETATM   11  C   UNL     1      22.750  47.347  48.628  1.00  0.00     0.065 A 
HETATM   12  C   UNL     1      22.059  46.363  47.913  1.00  0.00     0.038 A 
HETATM   13  C   UNL     1      20.797  46.634  47.373  1.00  0.00    -0.059 A 
HETATM   14  C   UNL     1      20.062  45.589  46.586  1.00  0.00     0.048 C 
HETATM   15  C   UNL     1      20.250  47.912  47.531  1.00  0.00     0.020 A 
HETATM   16  C   UNL     1      20.940  48.905  48.245  1.00  0.00    -0.005 A 
HETATM   17  C   UNL     1      22.201  48.626  48.811  1.00  0.00     0.093 A 
HETATM   18  C   UNL     1      20.409  50.191  48.416  1.00  0.00     0.015 A 
HETATM   19  N   UNL     1      22.891  49.557  49.515  1.00  0.00    -0.258 NA
HETATM   20  C   UNL     1      22.349  50.787  49.650  1.00  0.00     0.117 A 
HETATM   21  C   UNL     1      21.124  51.149  49.125  1.00  0.00     0.020 A 
ENDBRANCH   8  11
ENDBRANCH   1   7
BRANCH   3  22
HETATM   22  C   UNL     1      26.002  44.779  53.878  1.00  0.00     0.164 C 
BRANCH  22  23
HETATM   23  C   UNL     1      27.390  44.374  54.306  1.00  0.00    -0.040 A 
HETATM   24  C   UNL     1      28.181  45.250  55.058  1.00  0.00     0.011 A 
HETATM   25  C   UNL     1      29.456  44.866  55.480  1.00  0.00     0.037 A 
HETATM   26  C   UNL     1      29.959  43.603  55.163  1.00  0.00     0.068 A 
HETATM   27  C   UNL     1      29.190  42.737  54.385  1.00  0.00     0.037 A 
HETATM   28  C   UNL     1      27.913  43.121  53.959  1.00  0.00     0.011 A 
BRANCH  26  29
HETATM   29  O   UNL     1      31.207  43.339  55.655  1.00  0.00    -0.356 OA
HETATM   30  C   UNL     1      31.409  43.595  57.040  1.00  0.00     0.210 C 
ENDBRANCH  26  29
ENDBRANCH  22  23
ENDBRANCH   3  22
TORSDOF 5
ENDMDL
MODEL 5
REMARK VINA RESULT:      -8.2      2.488      5.724
REMARK  5 active torsions:
REMARK  status: ('A' for Active; 'I' for Inactive)
REMARK    1  A    between atoms: C_4  and  N_5 
REMARK       I    between atoms: N_5  and  C_6 
REMARK    2  A    between atoms: C_6  and  C_7 
REMARK    3  A    between atoms: N_9  and  C_10 
REMARK    4  A    between atoms: C_10  and  C_11 
REMARK    5  A    between atoms: C_14  and  O_15 
ROOT
HETATM    1  C   UNL     1      26.081  42.711  49.687  1.00  0.00     0.105 C 
HETATM    2  C   UNL     1      25.216  43.525  48.742  1.00  0.00     0.140 C 
HETATM    3  N   UNL     1      23.970  43.653  49.458  1.00  0.00    -0.347 N 
HETATM    4  C   UNL     1      23.795  42.648  50.393  1.00  0.00     0.221 C 
HETATM    5  O   UNL     1      22.780  42.411  51.027  1.00  0.00    -0.273 OA
HETATM    6  C   UNL     1      25.090  41.881  50.505  1.00  0.00     0.118 C 
ENDROOT
BRANCH   1   7
HETATM    7  C   UNL     1      26.965  43.604  50.554  1.00  0.00     0.228 C 
HETATM    8  N   UNL     1      27.023  43.236  51.878  1.00  0.00    -0.325 N 
HETATM    9  H   UNL     1      26.505  42.413  52.188  1.00  0.00     0.169 HD
HETATM   10  O   UNL     1      27.541  44.564  50.050  1.00  0.00    -0.273 OA
BRANCH   8  11
HETATM   11  C   UNL     1      27.703  43.858  52.953  1.00  0.00     0.065 A 
HETATM   12  C   UNL     1      28.841  43.324  53.565  1.00  0.00     0.038 A 
HETATM   13  C   UNL     1      29.468  44.006  54.613  1.00  0.00    -0.059 A 
HETATM   14  C   UNL     1      30.677  43.427  55.288  1.00  0.00     0.048 C 
HETATM   15  C   UNL     1      28.923  45.214  55.062  1.00  0.00     0.020 A 
HETATM   16  C   UNL     1      27.777  45.754  54.453  1.00  0.00    -0.005 A 
HETATM   17  C   UNL     1      27.158  45.080  53.381  1.00  0.00     0.093 A 
HETATM   18  C   UNL     1      27.216  46.963  54.886  1.00  0.00     0.015 A 
HETATM   19  N   UNL     1      26.058  45.576  52.764  1.00  0.00    -0.258 NA
HETATM   20  C   UNL     1      25.542  46.740  53.216  1.00  0.00     0.117 A 
HETATM   21  C   UNL     1      26.079  47.463  54.263  1.00  0.00     0.020 A 
ENDBRANCH   8  11
ENDBRANCH   1   7
BRANCH   3  22
HETATM   22  C   UNL     1      22.911  44.543  49.024  1.00  0.00     0.164 C 
BRANCH  22  23
HETATM   23  C   UNL     1      23.314  45.995  49.052  1.00  0.00    -0.040 A 
HETATM   24  C   UNL     1      22.586  46.945  48.326  1.00  0.00     0.011 A 
HETATM   25  C   UNL     1      22.940  48.295  48.374  1.00  0.00     0.037 A 
HETATM   26  C   UNL     1      24.022  48.719  49.147  1.00  0.00     0.068 A 
HETATM   27  C   UNL     1      24.773  47.774  49.847  1.00  0.00     0.037 A 
HETATM   28  C   UNL     1      24.421  46.420  49.800  1.00  0.00     0.011 A 
BRANCH  26  29
HETATM   29  O   UNL     1      24.251  50.067  49.129  1.00  0.00    -0.356 OA
HETATM   30  C   UNL     1      24.391  50.668  47.847  1.00  0.00     0.210 C 
ENDBRANCH  26  29
ENDBRANCH  22  23
ENDBRANCH   3  22
TORSDOF 5
ENDMDL
MODEL 6
REMARK VINA RESULT:      -8.2      2.510      4.365
REMARK  5 active torsions:
REMARK  status: ('A' for Active; 'I' for Inactive)
REMARK    1  A    between atoms: C_4  and  N_5 
REMARK       I    between atoms: N_5  and  C_6 
REMARK    2  A    between atoms: C_6  and  C_7 
REMARK    3  A    between atoms: N_9  and  C_10 
REMARK    4  A    between atoms: C_10  and  C_11 
REMARK    5  A    between atoms: C_14  and  O_15 
ROOT
HETATM    1  C   UNL     1      26.644  42.279  50.948  1.00  0.00     0.105 C 
HETATM    2  C   UNL     1      27.126  40.848  51.109  1.00  0.00     0.140 C 
HETATM    3  N   UNL     1      27.914  40.627  49.920  1.00  0.00    -0.347 N 
HETATM    4  C   UNL     1      27.555  41.474  48.886  1.00  0.00     0.221 C 
HETATM    5  O   UNL     1      27.933  41.412  47.728  1.00  0.00    -0.273 OA
HETATM    6  C   UNL     1      26.604  42.509  49.437  1.00  0.00     0.118 C 
ENDROOT
BRANCH   1   7
HETATM    7  C   UNL     1      27.553  43.266  51.675  1.00  0.00     0.228 C 
HETATM    8  N   UNL     1      27.626  43.080  53.035  1.00  0.00    -0.325 N 
HETATM    9  H   UNL     1      27.101  42.315  53.461  1.00  0.00     0.169 HD
HETATM   10  O   UNL     1      28.137  44.139  51.037  1.00  0.00    -0.273 OA
BRANCH   8  11
HETATM   11  C   UNL     1      28.331  43.829  54.007  1.00  0.00     0.065 A 
HETATM   12  C   UNL     1      29.499  43.384  54.635  1.00  0.00     0.038 A 
HETATM   13  C   UNL     1      30.150  44.190  55.575  1.00  0.00    -0.059 A 
HETATM   14  C   UNL     1      31.391  43.709  56.267  1.00  0.00     0.048 C 
HETATM   15  C   UNL     1      29.599  45.434  55.902  1.00  0.00     0.020 A 
HETATM   16  C   UNL     1      28.424  45.885  55.278  1.00  0.00    -0.005 A 
HETATM   17  C   UNL     1      27.780  45.084  54.313  1.00  0.00     0.093 A 
HETATM   18  C   UNL     1      27.856  47.128  55.591  1.00  0.00     0.015 A 
HETATM   19  N   UNL     1      26.651  45.492  53.683  1.00  0.00    -0.258 NA
HETATM   20  C   UNL     1      26.130  46.692  54.019  1.00  0.00     0.117 A 
HETATM   21  C   UNL     1      26.690  47.538  54.956  1.00  0.00     0.020 A 
ENDBRANCH   8  11
ENDBRANCH   1   7
BRANCH   3  22
HETATM   22  C   UNL     1      28.752  39.457  49.748  1.00  0.00     0.164 C 
BRANCH  22  23
HETATM   23  C   UNL     1      28.085  38.367  48.949  1.00  0.00    -0.040 A 
HETATM   24  C   UNL     1      28.579  38.011  47.689  1.00  0.00     0.011 A 
HETATM   25  C   UNL     1      27.980  36.982  46.960  1.00  0.00     0.037 A 
HETATM   26  C   UNL     1      26.883  36.289  47.476  1.00  0.00     0.068 A 
HETATM   27  C   UNL     1      26.364  36.660  48.717  1.00  0.00     0.037 A 
HETATM   28  C   UNL     1      26.962  37.693  49.449  1.00  0.00     0.011 A 
BRANCH  26  29
HETATM   29  O   UNL     1      26.404  35.289  46.677  1.00  0.00    -0.356 OA
HETATM   30  C   UNL     1      26.890  33.978  46.943  1.00  0.00     0.210 C 
ENDBRANCH  26  29
ENDBRANCH  22  23
ENDBRANCH   3  22
TORSDOF 5
ENDMDL
MODEL 7
REMARK VINA RESULT:      -8.1      2.343      3.427
REMARK  5 active torsions:
REMARK  status: ('A' for Active; 'I' for Inactive)
REMARK    1  A    between atoms: C_4  and  N_5 
REMARK       I    between atoms: N_5  and  C_6 
REMARK    2  A    between atoms: C_6  and  C_7 
REMARK    3  A    between atoms: N_9  and  C_10 
REMARK    4  A    between atoms: C_10  and  C_11 
REMARK    5  A    between atoms: C_14  and  O_15 
ROOT
HETATM    1  C   UNL     1      24.833  45.738  51.895  1.00  0.00     0.105 C 
HETATM    2  C   UNL     1      24.456  44.554  51.024  1.00  0.00     0.140 C 
HETATM    3  N   UNL     1      25.564  44.449  50.105  1.00  0.00    -0.347 N 
HETATM    4  C   UNL     1      26.244  45.647  49.963  1.00  0.00     0.221 C 
HETATM    5  O   UNL     1      27.114  45.898  49.146  1.00  0.00    -0.273 OA
HETATM    6  C   UNL     1      25.726  46.607  51.007  1.00  0.00     0.118 C 
ENDROOT
BRANCH   1   7
HETATM    7  C   UNL     1      25.527  45.295  53.180  1.00  0.00     0.228 C 
HETATM    8  N   UNL     1      26.823  45.737  53.311  1.00  0.00    -0.325 N 
HETATM    9  H   UNL     1      27.224  46.324  52.578  1.00  0.00     0.169 HD
HETATM   10  O   UNL     1      24.923  44.593  53.987  1.00  0.00    -0.273 OA
BRANCH   8  11
HETATM   11  C   UNL     1      27.759  45.481  54.342  1.00  0.00     0.065 A 
HETATM   12  C   UNL     1      27.767  46.154  55.568  1.00  0.00     0.038 A 
HETATM   13  C   UNL     1      28.715  45.834  56.545  1.00  0.00    -0.059 A 
HETATM   14  C   UNL     1      28.742  46.567  57.854  1.00  0.00     0.048 C 
HETATM   15  C   UNL     1      29.674  44.854  56.268  1.00  0.00     0.020 A 
HETATM   16  C   UNL     1      29.673  44.177  55.037  1.00  0.00    -0.005 A 
HETATM   17  C   UNL     1      28.704  44.482  54.060  1.00  0.00     0.093 A 
HETATM   18  C   UNL     1      30.624  43.192  54.739  1.00  0.00     0.015 A 
HETATM   19  N   UNL     1      28.667  43.842  52.865  1.00  0.00    -0.258 NA
HETATM   20  C   UNL     1      29.606  42.904  52.613  1.00  0.00     0.117 A 
HETATM   21  C   UNL     1      30.595  42.547  53.509  1.00  0.00     0.020 A 
ENDBRANCH   8  11
ENDBRANCH   1   7
BRANCH   3  22
HETATM   22  C   UNL     1      25.736  43.315  49.219  1.00  0.00     0.164 C 
BRANCH  22  23
HETATM   23  C   UNL     1      24.457  42.900  48.539  1.00  0.00    -0.040 A 
HETATM   24  C   UNL     1      23.759  43.806  47.732  1.00  0.00     0.011 A 
HETATM   25  C   UNL     1      22.589  43.414  47.078  1.00  0.00     0.037 A 
HETATM   26  C   UNL     1      22.099  42.115  47.215  1.00  0.00     0.068 A 
HETATM   27  C   UNL     1      22.770  41.216  48.045  1.00  0.00     0.037 A 
HETATM   28  C   UNL     1      23.942  41.606  48.703  1.00  0.00     0.011 A 
BRANCH  26  29
HETATM   29  O   UNL     1      20.960  41.849  46.506  1.00  0.00    -0.356 OA
HETATM   30  C   UNL     1      20.389  42.941  45.794  1.00  0.00     0.210 C 
ENDBRANCH  26  29
ENDBRANCH  22  23
ENDBRANCH   3  22
TORSDOF 5
ENDMDL
MODEL 8
REMARK VINA RESULT:      -8.1      8.128     11.484
REMARK  5 active torsions:
REMARK  status: ('A' for Active; 'I' for Inactive)
REMARK    1  A    between atoms: C_4  and  N_5 
REMARK       I    between atoms: N_5  and  C_6 
REMARK    2  A    between atoms: C_6  and  C_7 
REMARK    3  A    between atoms: N_9  and  C_10 
REMARK    4  A    between atoms: C_10  and  C_11 
REMARK    5  A    between atoms: C_14  and  O_15 
ROOT
HETATM    1  C   UNL     1      21.260  50.896  48.244  1.00  0.00     0.105 C 
HETATM    2  C   UNL     1      20.117  51.484  49.051  1.00  0.00     0.140 C 
HETATM    3  N   UNL     1      19.114  50.448  49.012  1.00  0.00    -0.347 N 
HETATM    4  C   UNL     1      19.269  49.606  47.925  1.00  0.00     0.221 C 
HETATM    5  O   UNL     1      18.488  48.748  47.550  1.00  0.00    -0.273 OA
HETATM    6  C   UNL     1      20.590  49.927  47.268  1.00  0.00     0.118 C 
ENDROOT
BRANCH   1   7
HETATM    7  C   UNL     1      22.292  50.216  49.140  1.00  0.00     0.228 C 
HETATM    8  N   UNL     1      22.905  49.122  48.575  1.00  0.00    -0.325 N 
HETATM    9  H   UNL     1      22.656  48.849  47.624  1.00  0.00     0.169 HD
HETATM   10  O   UNL     1      22.503  50.655  50.268  1.00  0.00    -0.273 OA
BRANCH   8  11
HETATM   11  C   UNL     1      23.866  48.244  49.133  1.00  0.00     0.065 A 
HETATM   12  C   UNL     1      23.547  47.019  49.727  1.00  0.00     0.038 A 
HETATM   13  C   UNL     1      24.555  46.198  50.242  1.00  0.00    -0.059 A 
HETATM   14  C   UNL     1      24.216  44.892  50.900  1.00  0.00     0.048 C 
HETATM   15  C   UNL     1      25.884  46.632  50.184  1.00  0.00     0.020 A 
HETATM   16  C   UNL     1      26.210  47.864  49.592  1.00  0.00    -0.005 A 
HETATM   17  C   UNL     1      25.198  48.682  49.050  1.00  0.00     0.093 A 
HETATM   18  C   UNL     1      27.534  48.318  49.522  1.00  0.00     0.015 A 
HETATM   19  N   UNL     1      25.477  49.871  48.462  1.00  0.00    -0.258 NA
HETATM   20  C   UNL     1      26.765  50.278  48.423  1.00  0.00     0.117 A 
HETATM   21  C   UNL     1      27.818  49.544  48.933  1.00  0.00     0.020 A 
ENDBRANCH   8  11
ENDBRANCH   1   7
BRANCH   3  22
HETATM   22  C   UNL     1      17.922  50.487  49.837  1.00  0.00     0.164 C 
BRANCH  22  23
HETATM   23  C   UNL     1      16.925  51.522  49.382  1.00  0.00    -0.040 A 
HETATM   24  C   UNL     1      16.188  51.325  48.209  1.00  0.00     0.011 A 
HETATM   25  C   UNL     1      15.243  52.269  47.801  1.00  0.00     0.037 A 
HETATM   26  C   UNL     1      15.015  53.419  48.558  1.00  0.00     0.068 A 
HETATM   27  C   UNL     1      15.770  53.639  49.711  1.00  0.00     0.037 A 
HETATM   28  C   UNL     1      16.719  52.695  50.121  1.00  0.00     0.011 A 
BRANCH  26  29
HETATM   29  O   UNL     1      14.049  54.252  48.065  1.00  0.00    -0.356 OA
HETATM   30  C   UNL     1      13.759  55.411  48.837  1.00  0.00     0.210 C 
ENDBRANCH  26  29
ENDBRANCH  22  23
ENDBRANCH   3  22
TORSDOF 5
ENDMDL
MODEL 9
REMARK VINA RESULT:      -8.1      2.062      5.484
REMARK  5 active torsions:
REMARK  status: ('A' for Active; 'I' for Inactive)
REMARK    1  A    between atoms: C_4  and  N_5 
REMARK       I    between atoms: N_5  and  C_6 
REMARK    2  A    between atoms: C_6  and  C_7 
REMARK    3  A    between atoms: N_9  and  C_10 
REMARK    4  A    between atoms: C_10  and  C_11 
REMARK    5  A    between atoms: C_14  and  O_15 
ROOT
HETATM    1  C   UNL     1      25.159  41.478  48.929  1.00  0.00     0.105 C 
HETATM    2  C   UNL     1      25.759  40.795  50.144  1.00  0.00     0.140 C 
HETATM    3  N   UNL     1      27.164  40.717  49.822  1.00  0.00    -0.347 N 
HETATM    4  C   UNL     1      27.394  40.764  48.458  1.00  0.00     0.221 C 
HETATM    5  O   UNL     1      28.455  40.562  47.891  1.00  0.00    -0.273 OA
HETATM    6  C   UNL     1      26.095  41.115  47.775  1.00  0.00     0.118 C 
ENDROOT
BRANCH   1   7
HETATM    7  C   UNL     1      25.030  42.985  49.136  1.00  0.00     0.228 C 
HETATM    8  N   UNL     1      25.930  43.518  50.029  1.00  0.00    -0.325 N 
HETATM    9  H   UNL     1      26.613  42.902  50.472  1.00  0.00     0.169 HD
HETATM   10  O   UNL     1      24.164  43.611  48.529  1.00  0.00    -0.273 OA
BRANCH   8  11
HETATM   11  C   UNL     1      26.062  44.853  50.481  1.00  0.00     0.065 A 
HETATM   12  C   UNL     1      26.361  45.932  49.643  1.00  0.00     0.038 A 
HETATM   13  C   UNL     1      26.459  47.227  50.163  1.00  0.00    -0.059 A 
HETATM   14  C   UNL     1      26.800  48.385  49.272  1.00  0.00     0.048 C 
HETATM   15  C   UNL     1      26.285  47.423  51.537  1.00  0.00     0.020 A 
HETATM   16  C   UNL     1      25.988  46.343  52.385  1.00  0.00    -0.005 A 
HETATM   17  C   UNL     1      25.866  45.041  51.859  1.00  0.00     0.093 A 
HETATM   18  C   UNL     1      25.810  46.519  53.764  1.00  0.00     0.015 A 
HETATM   19  N   UNL     1      25.570  43.977  52.645  1.00  0.00    -0.258 NA
HETATM   20  C   UNL     1      25.414  44.186  53.971  1.00  0.00     0.117 A 
HETATM   21  C   UNL     1      25.522  45.425  54.571  1.00  0.00     0.020 A 
ENDBRANCH   8  11
ENDBRANCH   1   7
BRANCH   3  22
HETATM   22  C   UNL     1      28.165  40.326  50.796  1.00  0.00     0.164 C 
BRANCH  22  23
HETATM   23  C   UNL     1      28.384  41.367  51.864  1.00  0.00    -0.040 A 
HETATM   24  C   UNL     1      28.077  41.083  53.200  1.00  0.00     0.011 A 
HETATM   25  C   UNL     1      28.307  42.035  54.196  1.00  0.00     0.037 A 
HETATM   26  C   UNL     1      28.848  43.281  53.877  1.00  0.00     0.068 A 
HETATM   27  C   UNL     1      29.125  43.584  52.543  1.00  0.00     0.037 A 
HETATM   28  C   UNL     1      28.894  42.632  51.543  1.00  0.00     0.011 A 
BRANCH  26  29
HETATM   29  O   UNL     1      29.047  44.114  54.942  1.00  0.00    -0.356 OA
HETATM   30  C   UNL     1      30.346  44.099  55.524  1.00  0.00     0.210 C 
ENDBRANCH  26  29
ENDBRANCH  22  23
ENDBRANCH   3  22
TORSDOF 5
ENDMDL
MODEL 10
REMARK VINA RESULT:      -7.8      1.944      2.798
REMARK  5 active torsions:
REMARK  status: ('A' for Active; 'I' for Inactive)
REMARK    1  A    between atoms: C_4  and  N_5 
REMARK       I    between atoms: N_5  and  C_6 
REMARK    2  A    between atoms: C_6  and  C_7 
REMARK    3  A    between atoms: N_9  and  C_10 
REMARK    4  A    between atoms: C_10  and  C_11 
REMARK    5  A    between atoms: C_14  and  O_15 
ROOT
HETATM    1  C   UNL     1      23.513  44.407  50.352  1.00  0.00     0.105 C 
HETATM    2  C   UNL     1      23.388  42.895  50.301  1.00  0.00     0.140 C 
HETATM    3  N   UNL     1      23.763  42.575  48.944  1.00  0.00    -0.347 N 
HETATM    4  C   UNL     1      23.587  43.645  48.084  1.00  0.00     0.221 C 
HETATM    5  O   UNL     1      23.669  43.623  46.868  1.00  0.00    -0.273 OA
HETATM    6  C   UNL     1      23.274  44.867  48.914  1.00  0.00     0.118 C 
ENDROOT
BRANCH   1   7
HETATM    7  C   UNL     1      24.872  44.841  50.896  1.00  0.00     0.228 C 
HETATM    8  N   UNL     1      25.021  44.681  52.253  1.00  0.00    -0.325 N 
HETATM    9  H   UNL     1      24.252  44.284  52.794  1.00  0.00     0.169 HD
HETATM   10  O   UNL     1      25.716  45.298  50.129  1.00  0.00    -0.273 OA
BRANCH   8  11
HETATM   11  C   UNL     1      26.120  45.016  53.081  1.00  0.00     0.065 A 
HETATM   12  C   UNL     1      26.277  46.262  53.697  1.00  0.00     0.038 A 
HETATM   13  C   UNL     1      27.383  46.513  54.516  1.00  0.00    -0.059 A 
HETATM   14  C   UNL     1      27.568  47.855  55.162  1.00  0.00     0.048 C 
HETATM   15  C   UNL     1      28.346  45.512  54.684  1.00  0.00     0.020 A 
HETATM   16  C   UNL     1      28.196  44.260  54.065  1.00  0.00    -0.005 A 
HETATM   17  C   UNL     1      27.069  43.997  53.259  1.00  0.00     0.093 A 
HETATM   18  C   UNL     1      29.148  43.244  54.222  1.00  0.00     0.015 A 
HETATM   19  N   UNL     1      26.886  42.798  52.655  1.00  0.00    -0.258 NA
HETATM   20  C   UNL     1      27.831  41.846  52.823  1.00  0.00     0.117 A 
HETATM   21  C   UNL     1      28.967  42.019  53.590  1.00  0.00     0.020 A 
ENDBRANCH   8  11
ENDBRANCH   1   7
BRANCH   3  22
HETATM   22  C   UNL     1      23.995  41.215  48.501  1.00  0.00     0.164 C 
BRANCH  22  23
HETATM   23  C   UNL     1      25.445  40.808  48.584  1.00  0.00    -0.040 A 
HETATM   24  C   UNL     1      25.975  40.323  49.785  1.00  0.00     0.011 A 
HETATM   25  C   UNL     1      27.310  39.919  49.856  1.00  0.00     0.037 A 
HETATM   26  C   UNL     1      28.134  39.988  48.732  1.00  0.00     0.068 A 
HETATM   27  C   UNL     1      27.622  40.502  47.539  1.00  0.00     0.037 A 
HETATM   28  C   UNL     1      26.285  40.909  47.466  1.00  0.00     0.011 A 
BRANCH  26  29
HETATM   29  O   UNL     1      29.412  39.540  48.925  1.00  0.00    -0.356 OA
HETATM   30  C   UNL     1      29.611  38.134  48.829  1.00  0.00     0.210 C 
ENDBRANCH  26  29
ENDBRANCH  22  23
ENDBRANCH   3  22
TORSDOF 5
ENDMDL
