MODEL 1
REMARK VINA RESULT:     -10.4      0.000      0.000
REMARK  3 active torsions:
REMARK  status: ('A' for Active; 'I' for Inactive)
REMARK    1  A    between atoms: C_7  and  C_8 
REMARK    2  A    between atoms: N_9  and  N_10 
REMARK       I    between atoms: N_10  and  C_11 
REMARK    3  A    between atoms: C_11  and  C_12 
ROOT
HETATM    1  N   UNL     1      26.655  45.214  52.115  1.00  0.00    -0.242 N 
HETATM    2  C   UNL     1      26.643  45.257  50.733  1.00  0.00     0.292 C 
HETATM    3  O   UNL     1      27.384  44.699  49.938  1.00  0.00    -0.264 OA
HETATM    4  H   UNL     1      25.842  45.595  52.597  1.00  0.00     0.192 HD
ENDROOT
BRANCH   1   5
HETATM    5  N   UNL     1      27.533  44.548  52.932  1.00  0.00    -0.183 NA
HETATM    6  C   UNL     1      28.351  45.213  53.681  1.00  0.00     0.153 C 
BRANCH   6   7
HETATM    7  C   UNL     1      29.282  44.507  54.548  1.00  0.00     0.018 A 
HETATM    8  C   UNL     1      29.898  43.310  54.200  1.00  0.00     0.018 A 
HETATM    9  C   UNL     1      29.787  42.477  52.972  1.00  0.00     0.069 C 
HETATM   10  N   UNL     1      30.708  42.938  55.242  1.00  0.00    -0.358 N 
HETATM   11  H   UNL     1      31.277  42.103  55.269  1.00  0.00     0.166 HD
HETATM   12  C   UNL     1      30.647  43.859  56.258  1.00  0.00     0.043 A 
HETATM   13  C   UNL     1      29.757  44.857  55.856  1.00  0.00     0.004 A 
HETATM   14  C   UNL     1      31.309  43.879  57.491  1.00  0.00     0.030 A 
HETATM   15  C   UNL     1      29.523  45.931  56.742  1.00  0.00     0.014 A 
HETATM   16  C   UNL     1      30.176  45.967  57.980  1.00  0.00     0.001 A 
HETATM   17  C   UNL     1      31.057  44.955  58.347  1.00  0.00     0.002 A 
ENDBRANCH   6   7
ENDBRANCH   1   5
BRANCH   2  18
HETATM   18  C   UNL     1      25.541  46.158  50.202  1.00  0.00     0.157 A 
HETATM   19  N   UNL     1      24.321  45.717  50.322  1.00  0.00    -0.166 NA
HETATM   20  N   UNL     1      23.312  46.503  49.850  1.00  0.00    -0.242 N 
HETATM   21  C   UNL     1      23.456  47.731  49.247  1.00  0.00     0.272 A 
HETATM   22  H   UNL     1      22.369  46.129  49.918  1.00  0.00     0.192 HD
HETATM   23  O   UNL     1      22.500  48.372  48.826  1.00  0.00    -0.266 OA
HETATM   24  C   UNL     1      24.832  48.248  49.146  1.00  0.00     0.046 A 
HETATM   25  C   UNL     1      25.885  47.471  49.622  1.00  0.00     0.016 A 
HETATM   26  C   UNL     1      25.075  49.510  48.592  1.00  0.00     0.018 A 
HETATM   27  C   UNL     1      27.194  47.965  49.557  1.00  0.00     0.015 A 
HETATM   28  C   UNL     1      27.437  49.226  49.006  1.00  0.00     0.001 A 
HETATM   29  C   UNL     1      26.380  49.997  48.523  1.00  0.00     0.001 A 
ENDBRANCH   2  18
TORSDOF 3
ENDMDL
MODEL 2
REMARK VINA RESULT:     -10.2      1.919      3.188
REMARK  3 active torsions:
REMARK  status: ('A' for Active; 'I' for Inactive)
REMARK    1  A    between atoms: C_7  and  C_8 
REMARK    2  A    between atoms: N_9  and  N_10 
REMARK       I    between atoms: N_10  and  C_11 
REMARK    3  A    between atoms: C_11  and  C_12 
ROOT
HETATM    1  N   UNL     1      25.225  46.788  51.472  1.00  0.00    -0.242 N 
HETATM    2  C   UNL     1      25.288  46.671  50.096  1.00  0.00     0.292 C 
HETATM    3  O   UNL     1      26.262  46.490  49.382  1.00  0.00    -0.264 OA
HETATM    4  H   UNL     1      24.300  46.748  51.899  1.00  0.00     0.192 HD
ENDROOT
BRANCH   1   5
HETATM    5  N   UNL     1      26.260  46.755  52.372  1.00  0.00    -0.183 NA
HETATM    6  C   UNL     1      26.255  45.891  53.334  1.00  0.00     0.153 C 
BRANCH   6   7
HETATM    7  C   UNL     1      27.353  45.856  54.288  1.00  0.00     0.018 A 
HETATM    8  C   UNL     1      27.555  46.828  55.262  1.00  0.00     0.018 A 
HETATM    9  C   UNL     1      26.795  48.068  55.574  1.00  0.00     0.069 C 
HETATM   10  N   UNL     1      28.668  46.476  55.980  1.00  0.00    -0.358 N 
HETATM   11  H   UNL     1      29.055  47.001  56.752  1.00  0.00     0.166 HD
HETATM   12  C   UNL     1      29.196  45.298  55.511  1.00  0.00     0.043 A 
HETATM   13  C   UNL     1      28.396  44.884  54.444  1.00  0.00     0.004 A 
HETATM   14  C   UNL     1      30.315  44.580  55.949  1.00  0.00     0.030 A 
HETATM   15  C   UNL     1      28.740  43.683  53.787  1.00  0.00     0.014 A 
HETATM   16  C   UNL     1      29.855  42.950  54.213  1.00  0.00     0.001 A 
HETATM   17  C   UNL     1      30.630  43.394  55.279  1.00  0.00     0.002 A 
ENDBRANCH   6   7
ENDBRANCH   1   5
BRANCH   2  18
HETATM   18  C   UNL     1      23.921  46.821  49.450  1.00  0.00     0.157 A 
HETATM   19  N   UNL     1      23.143  45.776  49.487  1.00  0.00    -0.166 NA
HETATM   20  N   UNL     1      21.913  45.879  48.909  1.00  0.00    -0.242 N 
HETATM   21  C   UNL     1      21.404  46.992  48.280  1.00  0.00     0.272 A 
HETATM   22  H   UNL     1      21.332  45.045  48.914  1.00  0.00     0.192 HD
HETATM   23  O   UNL     1      20.293  47.003  47.764  1.00  0.00    -0.266 OA
HETATM   24  C   UNL     1      22.267  48.185  48.273  1.00  0.00     0.046 A 
HETATM   25  C   UNL     1      23.530  48.114  48.857  1.00  0.00     0.016 A 
HETATM   26  C   UNL     1      21.817  49.381  47.699  1.00  0.00     0.018 A 
HETATM   27  C   UNL     1      24.346  49.251  48.881  1.00  0.00     0.015 A 
HETATM   28  C   UNL     1      23.897  50.445  48.310  1.00  0.00     0.001 A 
HETATM   29  C   UNL     1      22.635  50.510  47.719  1.00  0.00     0.001 A 
ENDBRANCH   2  18
TORSDOF 3
ENDMDL
MODEL 3
REMARK VINA RESULT:     -10.1      2.381      8.754
REMARK  3 active torsions:
REMARK  status: ('A' for Active; 'I' for Inactive)
REMARK    1  A    between atoms: C_7  and  C_8 
REMARK    2  A    between atoms: N_9  and  N_10 
REMARK       I    between atoms: N_10  and  C_11 
REMARK    3  A    between atoms: C_11  and  C_12 
ROOT
HETATM    1  N   UNL     1      26.168  44.971  50.419  1.00  0.00    -0.242 N 
HETATM    2  C   UNL     1      25.604  44.344  51.515  1.00  0.00     0.292 C 
HETATM    3  O   UNL     1      24.531  44.560  52.058  1.00  0.00    -0.264 OA
HETATM    4  H   UNL     1      26.983  44.526  50.000  1.00  0.00     0.192 HD
ENDROOT
BRANCH   1   5
HETATM    5  N   UNL     1      25.662  46.018  49.691  1.00  0.00    -0.183 NA
HETATM    6  C   UNL     1      25.864  47.235  50.082  1.00  0.00     0.153 C 
BRANCH   6   7
HETATM    7  C   UNL     1      25.327  48.345  49.310  1.00  0.00     0.018 A 
HETATM    8  C   UNL     1      26.112  49.363  48.781  1.00  0.00     0.018 A 
HETATM    9  C   UNL     1      27.579  49.600  48.851  1.00  0.00     0.069 C 
HETATM   10  N   UNL     1      25.282  50.228  48.115  1.00  0.00    -0.358 N 
HETATM   11  H   UNL     1      25.578  51.066  47.633  1.00  0.00     0.166 HD
HETATM   12  C   UNL     1      23.979  49.803  48.186  1.00  0.00     0.043 A 
HETATM   13  C   UNL     1      23.971  48.624  48.934  1.00  0.00     0.004 A 
HETATM   14  C   UNL     1      22.819  50.373  47.648  1.00  0.00     0.030 A 
HETATM   15  C   UNL     1      22.729  47.987  49.150  1.00  0.00     0.014 A 
HETATM   16  C   UNL     1      21.559  48.543  48.619  1.00  0.00     0.001 A 
HETATM   17  C   UNL     1      21.606  49.719  47.878  1.00  0.00     0.002 A 
ENDBRANCH   6   7
ENDBRANCH   1   5
BRANCH   2  18
HETATM   18  C   UNL     1      26.509  43.262  52.079  1.00  0.00     0.157 A 
HETATM   19  N   UNL     1      26.373  42.068  51.574  1.00  0.00    -0.166 NA
HETATM   20  N   UNL     1      27.169  41.077  52.065  1.00  0.00    -0.242 N 
HETATM   21  C   UNL     1      28.113  41.211  53.057  1.00  0.00     0.272 A 
HETATM   22  H   UNL     1      27.026  40.144  51.687  1.00  0.00     0.192 HD
HETATM   23  O   UNL     1      28.778  40.266  53.463  1.00  0.00    -0.266 OA
HETATM   24  C   UNL     1      28.294  42.569  53.601  1.00  0.00     0.046 A 
HETATM   25  C   UNL     1      27.499  43.605  53.118  1.00  0.00     0.016 A 
HETATM   26  C   UNL     1      29.266  42.815  54.579  1.00  0.00     0.018 A 
HETATM   27  C   UNL     1      27.684  44.904  53.607  1.00  0.00     0.015 A 
HETATM   28  C   UNL     1      28.654  45.151  54.582  1.00  0.00     0.001 A 
HETATM   29  C   UNL     1      29.442  44.109  55.068  1.00  0.00     0.001 A 
ENDBRANCH   2  18
TORSDOF 3
ENDMDL
MODEL 4
REMARK VINA RESULT:      -9.7      4.117      6.327
REMARK  3 active torsions:
REMARK  status: ('A' for Active; 'I' for Inactive)
REMARK    1  A    between atoms: C_7  and  C_8 
REMARK    2  A    between atoms: N_9  and  N_10 
REMARK       I    between atoms: N_10  and  C_11 
REMARK    3  A    between atoms: C_11  and  C_12 
ROOT
HETATM    1  N   UNL     1      28.436  42.480  51.939  1.00  0.00    -0.242 N 
HETATM    2  C   UNL     1      27.271  42.205  51.246  1.00  0.00     0.292 C 
HETATM    3  O   UNL     1      26.114  42.419  51.570  1.00  0.00    -0.264 OA
HETATM    4  H   UNL     1      29.312  42.399  51.424  1.00  0.00     0.192 HD
ENDROOT
BRANCH   1   5
HETATM    5  N   UNL     1      28.566  43.041  53.184  1.00  0.00    -0.183 NA
HETATM    6  C   UNL     1      28.813  44.305  53.302  1.00  0.00     0.153 C 
BRANCH   6   7
HETATM    7  C   UNL     1      28.952  44.900  54.622  1.00  0.00     0.018 A 
HETATM    8  C   UNL     1      28.143  45.931  55.088  1.00  0.00     0.018 A 
HETATM    9  C   UNL     1      27.024  46.663  54.437  1.00  0.00     0.069 C 
HETATM   10  N   UNL     1      28.548  46.236  56.363  1.00  0.00    -0.358 N 
HETATM   11  H   UNL     1      28.141  46.952  56.948  1.00  0.00     0.166 HD
HETATM   12  C   UNL     1      29.592  45.430  56.747  1.00  0.00     0.043 A 
HETATM   13  C   UNL     1      29.873  44.582  55.675  1.00  0.00     0.004 A 
HETATM   14  C   UNL     1      30.299  45.395  57.954  1.00  0.00     0.030 A 
HETATM   15  C   UNL     1      30.921  43.648  55.828  1.00  0.00     0.014 A 
HETATM   16  C   UNL     1      31.639  43.598  57.030  1.00  0.00     0.001 A 
HETATM   17  C   UNL     1      31.330  44.459  58.077  1.00  0.00     0.002 A 
ENDBRANCH   6   7
ENDBRANCH   1   5
BRANCH   2  18
HETATM   18  C   UNL     1      27.548  41.523  49.917  1.00  0.00     0.157 A 
HETATM   19  N   UNL     1      27.125  42.138  48.849  1.00  0.00    -0.166 NA
HETATM   20  N   UNL     1      27.355  41.547  47.642  1.00  0.00    -0.242 N 
HETATM   21  C   UNL     1      27.996  40.347  47.436  1.00  0.00     0.272 A 
HETATM   22  H   UNL     1      26.986  42.020  46.822  1.00  0.00     0.192 HD
HETATM   23  O   UNL     1      28.147  39.867  46.320  1.00  0.00    -0.266 OA
HETATM   24  C   UNL     1      28.509  39.671  48.641  1.00  0.00     0.046 A 
HETATM   25  C   UNL     1      28.294  40.250  49.889  1.00  0.00     0.016 A 
HETATM   26  C   UNL     1      29.219  38.469  48.528  1.00  0.00     0.018 A 
HETATM   27  C   UNL     1      28.804  39.630  51.036  1.00  0.00     0.015 A 
HETATM   28  C   UNL     1      29.513  38.431  50.925  1.00  0.00     0.001 A 
HETATM   29  C   UNL     1      29.719  37.851  49.674  1.00  0.00     0.001 A 
ENDBRANCH   2  18
TORSDOF 3
ENDMDL
MODEL 5
REMARK VINA RESULT:      -9.6      2.198      3.661
REMARK  3 active torsions:
REMARK  status: ('A' for Active; 'I' for Inactive)
REMARK    1  A    between atoms: C_7  and  C_8 
REMARK    2  A    between atoms: N_9  and  N_10 
REMARK       I    between atoms: N_10  and  C_11 
REMARK    3  A    between atoms: C_11  and  C_12 
ROOT
HETATM    1  N   UNL     1      25.403  47.135  51.952  1.00  0.00    -0.242 N 
HETATM    2  C   UNL     1      25.549  47.360  50.595  1.00  0.00     0.292 C 
HETATM    3  O   UNL     1      26.571  47.509  49.944  1.00  0.00    -0.264 OA
HETATM    4  H   UNL     1      24.481  46.850  52.278  1.00  0.00     0.192 HD
ENDROOT
BRANCH   1   5
HETATM    5  N   UNL     1      26.387  47.054  52.905  1.00  0.00    -0.183 NA
HETATM    6  C   UNL     1      26.620  45.930  53.501  1.00  0.00     0.153 C 
BRANCH   6   7
HETATM    7  C   UNL     1      27.663  45.844  54.512  1.00  0.00     0.018 A 
HETATM    8  C   UNL     1      27.801  46.756  55.552  1.00  0.00     0.018 A 
HETATM    9  C   UNL     1      27.013  47.970  55.895  1.00  0.00     0.069 C 
HETATM   10  N   UNL     1      28.875  46.367  56.310  1.00  0.00    -0.358 N 
HETATM   11  H   UNL     1      29.214  46.847  57.132  1.00  0.00     0.166 HD
HETATM   12  C   UNL     1      29.440  45.223  55.801  1.00  0.00     0.043 A 
HETATM   13  C   UNL     1      28.705  44.870  54.668  1.00  0.00     0.004 A 
HETATM   14  C   UNL     1      30.539  44.486  56.258  1.00  0.00     0.030 A 
HETATM   15  C   UNL     1      29.096  43.713  53.960  1.00  0.00     0.014 A 
HETATM   16  C   UNL     1      30.193  42.963  54.403  1.00  0.00     0.001 A 
HETATM   17  C   UNL     1      30.902  43.345  55.536  1.00  0.00     0.002 A 
ENDBRANCH   6   7
ENDBRANCH   1   5
BRANCH   2  18
HETATM   18  C   UNL     1      24.207  47.440  49.886  1.00  0.00     0.157 A 
HETATM   19  N   UNL     1      23.607  48.597  49.907  1.00  0.00    -0.166 NA
HETATM   20  N   UNL     1      22.399  48.697  49.284  1.00  0.00    -0.242 N 
HETATM   21  C   UNL     1      21.739  47.684  48.627  1.00  0.00     0.272 A 
HETATM   22  H   UNL     1      21.927  49.596  49.340  1.00  0.00     0.192 HD
HETATM   23  O   UNL     1      20.642  47.845  48.107  1.00  0.00    -0.266 OA
HETATM   24  C   UNL     1      22.436  46.387  48.569  1.00  0.00     0.046 A 
HETATM   25  C   UNL     1      23.673  46.252  49.193  1.00  0.00     0.016 A 
HETATM   26  C   UNL     1      21.866  45.309  47.880  1.00  0.00     0.018 A 
HETATM   27  C   UNL     1      24.357  45.032  49.119  1.00  0.00     0.015 A 
HETATM   28  C   UNL     1      23.790  43.956  48.430  1.00  0.00     0.001 A 
HETATM   29  C   UNL     1      22.547  44.093  47.814  1.00  0.00     0.001 A 
ENDBRANCH   2  18
TORSDOF 3
ENDMDL
MODEL 6
REMARK VINA RESULT:      -9.4      1.437      2.056
REMARK  3 active torsions:
REMARK  status: ('A' for Active; 'I' for Inactive)
REMARK    1  A    between atoms: C_7  and  C_8 
REMARK    2  A    between atoms: N_9  and  N_10 
REMARK       I    between atoms: N_10  and  C_11 
REMARK    3  A    between atoms: C_11  and  C_12 
ROOT
HETATM    1  N   UNL     1      25.601  45.694  51.330  1.00  0.00    -0.242 N 
HETATM    2  C   UNL     1      25.632  46.077  50.002  1.00  0.00     0.292 C 
HETATM    3  O   UNL     1      26.588  46.165  49.248  1.00  0.00    -0.264 OA
HETATM    4  H   UNL     1      24.686  45.502  51.736  1.00  0.00     0.192 HD
ENDROOT
BRANCH   1   5
HETATM    5  N   UNL     1      26.657  45.344  52.133  1.00  0.00    -0.183 NA
HETATM    6  C   UNL     1      26.873  44.099  52.412  1.00  0.00     0.153 C 
BRANCH   6   7
HETATM    7  C   UNL     1      27.993  43.728  53.264  1.00  0.00     0.018 A 
HETATM    8  C   UNL     1      28.655  42.509  53.174  1.00  0.00     0.018 A 
HETATM    9  C   UNL     1      28.428  41.340  52.283  1.00  0.00     0.069 C 
HETATM   10  N   UNL     1      29.652  42.503  54.116  1.00  0.00    -0.358 N 
HETATM   11  H   UNL     1      30.293  41.741  54.282  1.00  0.00     0.166 HD
HETATM   12  C   UNL     1      29.667  43.686  54.814  1.00  0.00     0.043 A 
HETATM   13  C   UNL     1      28.634  44.477  54.306  1.00  0.00     0.004 A 
HETATM   14  C   UNL     1      30.512  44.106  55.848  1.00  0.00     0.030 A 
HETATM   15  C   UNL     1      28.445  45.758  54.869  1.00  0.00     0.014 A 
HETATM   16  C   UNL     1      29.281  46.194  55.905  1.00  0.00     0.001 A 
HETATM   17  C   UNL     1      30.300  45.379  56.385  1.00  0.00     0.002 A 
ENDBRANCH   6   7
ENDBRANCH   1   5
BRANCH   2  18
HETATM   18  C   UNL     1      24.251  46.445  49.485  1.00  0.00     0.157 A 
HETATM   19  N   UNL     1      23.347  45.508  49.525  1.00  0.00    -0.166 NA
HETATM   20  N   UNL     1      22.100  45.808  49.063  1.00  0.00    -0.242 N 
HETATM   21  C   UNL     1      21.696  47.018  48.547  1.00  0.00     0.272 A 
HETATM   22  H   UNL     1      21.416  45.056  49.067  1.00  0.00     0.192 HD
HETATM   23  O   UNL     1      20.560  47.207  48.129  1.00  0.00    -0.266 OA
HETATM   24  C   UNL     1      22.708  48.089  48.538  1.00  0.00     0.046 A 
HETATM   25  C   UNL     1      23.990  47.816  49.007  1.00  0.00     0.016 A 
HETATM   26  C   UNL     1      22.377  49.370  48.078  1.00  0.00     0.018 A 
HETATM   27  C   UNL     1      24.950  48.836  49.029  1.00  0.00     0.015 A 
HETATM   28  C   UNL     1      24.621  50.115  48.572  1.00  0.00     0.001 A 
HETATM   29  C   UNL     1      23.338  50.381  48.095  1.00  0.00     0.001 A 
ENDBRANCH   2  18
TORSDOF 3
ENDMDL
MODEL 7
REMARK VINA RESULT:      -9.4      4.673      8.458
REMARK  3 active torsions:
REMARK  status: ('A' for Active; 'I' for Inactive)
REMARK    1  A    between atoms: C_7  and  C_8 
REMARK    2  A    between atoms: N_9  and  N_10 
REMARK       I    between atoms: N_10  and  C_11 
REMARK    3  A    between atoms: C_11  and  C_12 
ROOT
HETATM    1  N   UNL     1      27.862  42.324  51.570  1.00  0.00    -0.242 N 
HETATM    2  C   UNL     1      27.808  42.159  52.942  1.00  0.00     0.292 C 
HETATM    3  O   UNL     1      27.759  41.126  53.591  1.00  0.00    -0.264 OA
HETATM    4  H   UNL     1      28.087  43.256  51.224  1.00  0.00     0.192 HD
ENDROOT
BRANCH   1   5
HETATM    5  N   UNL     1      27.845  41.354  50.600  1.00  0.00    -0.183 NA
HETATM    6  C   UNL     1      28.797  40.479  50.543  1.00  0.00     0.153 C 
BRANCH   6   7
HETATM    7  C   UNL     1      28.779  39.450  49.515  1.00  0.00     0.018 A 
HETATM    8  C   UNL     1      29.164  38.133  49.740  1.00  0.00     0.018 A 
HETATM    9  C   UNL     1      29.669  37.461  50.967  1.00  0.00     0.069 C 
HETATM   10  N   UNL     1      29.015  37.447  48.562  1.00  0.00    -0.358 N 
HETATM   11  H   UNL     1      29.224  36.468  48.427  1.00  0.00     0.166 HD
HETATM   12  C   UNL     1      28.537  38.273  47.575  1.00  0.00     0.043 A 
HETATM   13  C   UNL     1      28.381  39.541  48.139  1.00  0.00     0.004 A 
HETATM   14  C   UNL     1      28.235  37.991  46.238  1.00  0.00     0.030 A 
HETATM   15  C   UNL     1      27.895  40.577  47.313  1.00  0.00     0.014 A 
HETATM   16  C   UNL     1      27.588  40.313  45.972  1.00  0.00     0.001 A 
HETATM   17  C   UNL     1      27.756  39.037  45.444  1.00  0.00     0.002 A 
ENDBRANCH   6   7
ENDBRANCH   1   5
BRANCH   2  18
HETATM   18  C   UNL     1      27.788  43.490  53.674  1.00  0.00     0.157 A 
HETATM   19  N   UNL     1      26.752  44.253  53.467  1.00  0.00    -0.166 NA
HETATM   20  N   UNL     1      26.711  45.455  54.107  1.00  0.00    -0.242 N 
HETATM   21  C   UNL     1      27.668  45.953  54.960  1.00  0.00     0.272 A 
HETATM   22  H   UNL     1      25.915  46.055  53.906  1.00  0.00     0.192 HD
HETATM   23  O   UNL     1      27.572  47.056  55.483  1.00  0.00    -0.266 OA
HETATM   24  C   UNL     1      28.821  45.074  55.226  1.00  0.00     0.046 A 
HETATM   25  C   UNL     1      28.892  43.837  54.590  1.00  0.00     0.016 A 
HETATM   26  C   UNL     1      29.823  45.472  56.119  1.00  0.00     0.018 A 
HETATM   27  C   UNL     1      29.968  42.982  54.858  1.00  0.00     0.015 A 
HETATM   28  C   UNL     1      30.968  43.378  55.751  1.00  0.00     0.001 A 
HETATM   29  C   UNL     1      30.897  44.621  56.379  1.00  0.00     0.001 A 
ENDBRANCH   2  18
TORSDOF 3
ENDMDL
MODEL 8
REMARK VINA RESULT:      -9.3      3.048      4.456
REMARK  3 active torsions:
REMARK  status: ('A' for Active; 'I' for Inactive)
REMARK    1  A    between atoms: C_7  and  C_8 
REMARK    2  A    between atoms: N_9  and  N_10 
REMARK       I    between atoms: N_10  and  C_11 
REMARK    3  A    between atoms: C_11  and  C_12 
ROOT
HETATM    1  N   UNL     1      25.848  44.752  51.299  1.00  0.00    -0.242 N 
HETATM    2  C   UNL     1      25.911  44.910  49.927  1.00  0.00     0.292 C 
HETATM    3  O   UNL     1      26.849  45.274  49.236  1.00  0.00    -0.264 OA
HETATM    4  H   UNL     1      25.038  44.260  51.673  1.00  0.00     0.192 HD
ENDROOT
BRANCH   1   5
HETATM    5  N   UNL     1      26.832  44.999  52.224  1.00  0.00    -0.183 NA
HETATM    6  C   UNL     1      26.514  45.294  53.443  1.00  0.00     0.153 C 
BRANCH   6   7
HETATM    7  C   UNL     1      27.557  45.556  54.423  1.00  0.00     0.018 A 
HETATM    8  C   UNL     1      27.594  46.697  55.218  1.00  0.00     0.018 A 
HETATM    9  C   UNL     1      26.680  47.869  55.285  1.00  0.00     0.069 C 
HETATM   10  N   UNL     1      28.700  46.610  56.023  1.00  0.00    -0.358 N 
HETATM   11  H   UNL     1      28.983  47.302  56.703  1.00  0.00     0.166 HD
HETATM   12  C   UNL     1      29.385  45.444  55.784  1.00  0.00     0.043 A 
HETATM   13  C   UNL     1      28.695  44.760  54.781  1.00  0.00     0.004 A 
HETATM   14  C   UNL     1      30.554  44.952  56.377  1.00  0.00     0.030 A 
HETATM   15  C   UNL     1      29.210  43.516  54.355  1.00  0.00     0.014 A 
HETATM   16  C   UNL     1      30.378  43.009  54.938  1.00  0.00     0.001 A 
HETATM   17  C   UNL     1      31.038  43.718  55.936  1.00  0.00     0.002 A 
ENDBRANCH   6   7
ENDBRANCH   1   5
BRANCH   2  18
HETATM   18  C   UNL     1      24.586  44.586  49.257  1.00  0.00     0.157 A 
HETATM   19  N   UNL     1      23.741  45.571  49.135  1.00  0.00    -0.166 NA
HETATM   20  N   UNL     1      22.542  45.308  48.542  1.00  0.00    -0.242 N 
HETATM   21  C   UNL     1      22.128  44.090  48.056  1.00  0.00     0.272 A 
HETATM   22  H   UNL     1      21.879  46.077  48.487  1.00  0.00     0.192 HD
HETATM   23  O   UNL     1      21.022  43.925  47.554  1.00  0.00    -0.266 OA
HETATM   24  C   UNL     1      23.098  42.986  48.159  1.00  0.00     0.046 A 
HETATM   25  C   UNL     1      24.334  43.222  48.756  1.00  0.00     0.016 A 
HETATM   26  C   UNL     1      22.786  41.720  47.648  1.00  0.00     0.018 A 
HETATM   27  C   UNL     1      25.274  42.187  48.832  1.00  0.00     0.015 A 
HETATM   28  C   UNL     1      24.964  40.923  48.321  1.00  0.00     0.001 A 
HETATM   29  C   UNL     1      23.722  40.690  47.731  1.00  0.00     0.001 A 
ENDBRANCH   2  18
TORSDOF 3
ENDMDL
MODEL 9
REMARK VINA RESULT:      -9.2      3.222      9.137
REMARK  3 active torsions:
REMARK  status: ('A' for Active; 'I' for Inactive)
REMARK    1  A    between atoms: C_7  and  C_8 
REMARK    2  A    between atoms: N_9  and  N_10 
REMARK       I    between atoms: N_10  and  C_11 
REMARK    3  A    between atoms: C_11  and  C_12 
ROOT
HETATM    1  N   UNL     1      25.168  44.817  49.984  1.00  0.00    -0.242 N 
HETATM    2  C   UNL     1      26.533  44.768  49.766  1.00  0.00     0.292 C 
HETATM    3  O   UNL     1      27.281  45.646  49.367  1.00  0.00    -0.264 OA
HETATM    4  H   UNL     1      24.752  44.041  50.497  1.00  0.00     0.192 HD
ENDROOT
BRANCH   1   5
HETATM    5  N   UNL     1      24.316  45.871  49.770  1.00  0.00    -0.183 NA
HETATM    6  C   UNL     1      23.402  45.789  48.859  1.00  0.00     0.153 C 
BRANCH   6   7
HETATM    7  C   UNL     1      22.498  46.907  48.632  1.00  0.00     0.018 A 
HETATM    8  C   UNL     1      21.124  46.764  48.473  1.00  0.00     0.018 A 
HETATM    9  C   UNL     1      20.264  45.551  48.475  1.00  0.00     0.069 C 
HETATM   10  N   UNL     1      20.592  48.014  48.287  1.00  0.00    -0.358 N 
HETATM   11  H   UNL     1      19.613  48.215  48.140  1.00  0.00     0.166 HD
HETATM   12  C   UNL     1      21.576  48.971  48.326  1.00  0.00     0.043 A 
HETATM   13  C   UNL     1      22.787  48.309  48.537  1.00  0.00     0.004 A 
HETATM   14  C   UNL     1      21.479  50.361  48.189  1.00  0.00     0.030 A 
HETATM   15  C   UNL     1      23.961  49.089  48.616  1.00  0.00     0.014 A 
HETATM   16  C   UNL     1      23.884  50.481  48.482  1.00  0.00     0.001 A 
HETATM   17  C   UNL     1      22.659  51.106  48.273  1.00  0.00     0.002 A 
ENDBRANCH   6   7
ENDBRANCH   1   5
BRANCH   2  18
HETATM   18  C   UNL     1      27.107  43.394  50.069  1.00  0.00     0.157 A 
HETATM   19  N   UNL     1      27.083  42.527  49.097  1.00  0.00    -0.166 NA
HETATM   20  N   UNL     1      27.587  41.284  49.342  1.00  0.00    -0.242 N 
HETATM   21  C   UNL     1      28.123  40.847  50.531  1.00  0.00     0.272 A 
HETATM   22  H   UNL     1      27.528  40.608  48.585  1.00  0.00     0.192 HD
HETATM   23  O   UNL     1      28.538  39.704  50.683  1.00  0.00    -0.266 OA
HETATM   24  C   UNL     1      28.186  41.839  51.619  1.00  0.00     0.046 A 
HETATM   25  C   UNL     1      27.683  43.119  51.399  1.00  0.00     0.016 A 
HETATM   26  C   UNL     1      28.760  41.503  52.851  1.00  0.00     0.018 A 
HETATM   27  C   UNL     1      27.765  44.078  52.417  1.00  0.00     0.015 A 
HETATM   28  C   UNL     1      28.339  43.743  53.647  1.00  0.00     0.001 A 
HETATM   29  C   UNL     1      28.834  42.458  53.864  1.00  0.00     0.001 A 
ENDBRANCH   2  18
TORSDOF 3
ENDMDL
MODEL 10
REMARK VINA RESULT:      -9.1      4.072      5.168
REMARK  3 active torsions:
REMARK  status: ('A' for Active; 'I' for Inactive)
REMARK    1  A    between atoms: C_7  and  C_8 
REMARK    2  A    between atoms: N_9  and  N_10 
REMARK       I    between atoms: N_10  and  C_11 
REMARK    3  A    between atoms: C_11  and  C_12 
ROOT
HETATM    1  N   UNL     1      27.910  43.254  51.137  1.00  0.00    -0.242 N 
HETATM    2  C   UNL     1      27.446  41.953  51.065  1.00  0.00     0.292 C 
HETATM    3  O   UNL     1      27.403  41.102  51.939  1.00  0.00    -0.264 OA
HETATM    4  H   UNL     1      27.691  43.868  50.354  1.00  0.00     0.192 HD
ENDROOT
BRANCH   1   5
HETATM    5  N   UNL     1      28.467  43.894  52.215  1.00  0.00    -0.183 NA
HETATM    6  C   UNL     1      27.728  44.221  53.225  1.00  0.00     0.153 C 
BRANCH   6   7
HETATM    7  C   UNL     1      28.317  44.901  54.368  1.00  0.00     0.018 A 
HETATM    8  C   UNL     1      27.898  46.146  54.822  1.00  0.00     0.018 A 
HETATM    9  C   UNL     1      26.841  47.062  54.316  1.00  0.00     0.069 C 
HETATM   10  N   UNL     1      28.663  46.475  55.912  1.00  0.00    -0.358 N 
HETATM   11  H   UNL     1      28.582  47.329  56.445  1.00  0.00     0.166 HD
HETATM   12  C   UNL     1      29.566  45.478  56.189  1.00  0.00     0.043 A 
HETATM   13  C   UNL     1      29.379  44.476  55.235  1.00  0.00     0.004 A 
HETATM   14  C   UNL     1      30.526  45.396  57.205  1.00  0.00     0.030 A 
HETATM   15  C   UNL     1      30.200  43.330  55.311  1.00  0.00     0.014 A 
HETATM   16  C   UNL     1      31.165  43.230  56.321  1.00  0.00     0.001 A 
HETATM   17  C   UNL     1      31.323  44.249  57.254  1.00  0.00     0.002 A 
ENDBRANCH   6   7
ENDBRANCH   1   5
BRANCH   2  18
HETATM   18  C   UNL     1      26.958  41.600  49.670  1.00  0.00     0.157 A 
HETATM   19  N   UNL     1      27.824  41.038  48.875  1.00  0.00    -0.166 NA
HETATM   20  N   UNL     1      27.414  40.716  47.616  1.00  0.00    -0.242 N 
HETATM   21  C   UNL     1      26.161  40.930  47.092  1.00  0.00     0.272 A 
HETATM   22  H   UNL     1      28.112  40.312  46.996  1.00  0.00     0.192 HD
HETATM   23  O   UNL     1      25.872  40.632  45.939  1.00  0.00    -0.266 OA
HETATM   24  C   UNL     1      25.170  41.529  48.003  1.00  0.00     0.046 A 
HETATM   25  C   UNL     1      25.555  41.867  49.297  1.00  0.00     0.016 A 
HETATM   26  C   UNL     1      23.853  41.740  47.575  1.00  0.00     0.018 A 
HETATM   27  C   UNL     1      24.613  42.410  50.180  1.00  0.00     0.015 A 
HETATM   28  C   UNL     1      23.298  42.620  49.755  1.00  0.00     0.001 A 
HETATM   29  C   UNL     1      22.919  42.287  48.455  1.00  0.00     0.001 A 
ENDBRANCH   2  18
TORSDOF 3
ENDMDL
