MODEL 1
REMARK VINA RESULT:      -8.0      0.000      0.000
REMARK  3 active torsions:
REMARK  status: ('A' for Active; 'I' for Inactive)
REMARK    1  A    between atoms: C_2  and  C_3 
REMARK    2  A    between atoms: C_4  and  N_5 
REMARK    3  A    between atoms: C_18  and  C_19 
ROOT
HETATM    1  N   UNL     1      26.570  45.030  53.036  1.00  0.00    -0.320 N 
HETATM    2  C   UNL     1      25.320  44.388  53.215  1.00  0.00     0.141 C 
HETATM    3  N   UNL     1      24.958  43.850  54.344  1.00  0.00    -0.380 N 
HETATM    4  H   UNL     1      24.063  43.387  54.414  1.00  0.00     0.158 HD
HETATM    5  H   UNL     1      25.592  43.883  55.130  1.00  0.00     0.158 HD
HETATM    6  S   UNL     1      24.373  44.343  51.787  1.00  0.00    -0.086 SA
HETATM    7  C   UNL     1      25.819  44.825  50.744  1.00  0.00     0.093 C 
HETATM    8  C   UNL     1      26.768  45.607  51.688  1.00  0.00     0.121 C 
HETATM    9  C   UNL     1      25.468  45.674  49.534  1.00  0.00     0.158 C 
HETATM   10  S   UNL     1      26.008  47.327  49.907  1.00  0.00     0.147 S 
HETATM   11  O   UNL     1      24.888  48.233  49.790  1.00  0.00    -0.228 OA
HETATM   12  O   UNL     1      27.268  47.549  49.229  1.00  0.00    -0.228 OA
HETATM   13  C   UNL     1      26.358  47.071  51.623  1.00  0.00     0.167 C 
ENDROOT
BRANCH   1  14
HETATM   14  C   UNL     1      27.561  45.294  54.002  1.00  0.00     0.049 A 
HETATM   15  C   UNL     1      28.662  44.401  54.146  1.00  0.00    -0.031 A 
HETATM   16  C   UNL     1      29.671  44.704  55.075  1.00  0.00     0.009 A 
HETATM   17  C   UNL     1      29.570  45.813  55.905  1.00  0.00     0.001 A 
HETATM   18  C   UNL     1      28.466  46.652  55.812  1.00  0.00     0.009 A 
HETATM   19  C   UNL     1      27.460  46.429  54.855  1.00  0.00    -0.031 A 
BRANCH  15  20
HETATM   20  C   UNL     1      28.786  43.133  53.316  1.00  0.00     0.036 C 
HETATM   21  C   UNL     1      30.206  42.608  53.126  1.00  0.00     0.010 C 
ENDBRANCH  15  20
BRANCH  19  22
HETATM   22  C   UNL     1      26.279  47.386  54.805  1.00  0.00     0.036 C 
HETATM   23  C   UNL     1      26.379  48.615  55.705  1.00  0.00     0.010 C 
ENDBRANCH  19  22
ENDBRANCH   1  14
TORSDOF 3
ENDMDL
MODEL 2
REMARK VINA RESULT:      -7.9      0.064      3.021
REMARK  3 active torsions:
REMARK  status: ('A' for Active; 'I' for Inactive)
REMARK    1  A    between atoms: C_2  and  C_3 
REMARK    2  A    between atoms: C_4  and  N_5 
REMARK    3  A    between atoms: C_18  and  C_19 
ROOT
HETATM    1  N   UNL     1      26.563  45.007  53.043  1.00  0.00    -0.320 N 
HETATM    2  C   UNL     1      25.305  44.384  53.231  1.00  0.00     0.141 C 
HETATM    3  N   UNL     1      24.945  43.847  54.362  1.00  0.00    -0.380 N 
HETATM    4  H   UNL     1      24.043  43.398  54.438  1.00  0.00     0.158 HD
HETATM    5  H   UNL     1      25.587  43.867  55.142  1.00  0.00     0.158 HD
HETATM    6  S   UNL     1      24.344  44.360  51.812  1.00  0.00    -0.086 SA
HETATM    7  C   UNL     1      25.787  44.823  50.757  1.00  0.00     0.093 C 
HETATM    8  C   UNL     1      26.757  45.587  51.696  1.00  0.00     0.121 C 
HETATM    9  C   UNL     1      25.438  45.683  49.554  1.00  0.00     0.158 C 
HETATM   10  S   UNL     1      26.008  47.325  49.929  1.00  0.00     0.147 S 
HETATM   11  O   UNL     1      24.901  48.250  49.827  1.00  0.00    -0.228 OA
HETATM   12  O   UNL     1      27.265  47.531  49.240  1.00  0.00    -0.228 OA
HETATM   13  C   UNL     1      26.370  47.057  51.640  1.00  0.00     0.167 C 
ENDROOT
BRANCH   1  14
HETATM   14  C   UNL     1      27.567  45.251  54.000  1.00  0.00     0.049 A 
HETATM   15  C   UNL     1      27.468  46.388  54.853  1.00  0.00    -0.031 A 
HETATM   16  C   UNL     1      28.448  46.591  55.839  1.00  0.00     0.009 A 
HETATM   17  C   UNL     1      29.546  45.747  55.942  1.00  0.00     0.001 A 
HETATM   18  C   UNL     1      29.679  44.673  55.070  1.00  0.00     0.009 A 
HETATM   19  C   UNL     1      28.695  44.388  54.107  1.00  0.00    -0.031 A 
BRANCH  15  20
HETATM   20  C   UNL     1      26.327  47.386  54.736  1.00  0.00     0.036 C 
HETATM   21  C   UNL     1      26.409  48.591  55.670  1.00  0.00     0.010 C 
ENDBRANCH  15  20
BRANCH  19  22
HETATM   22  C   UNL     1      28.902  43.196  53.185  1.00  0.00     0.036 C 
HETATM   23  C   UNL     1      30.310  42.609  53.162  1.00  0.00     0.010 C 
ENDBRANCH  19  22
ENDBRANCH   1  14
TORSDOF 3
ENDMDL
MODEL 3
REMARK VINA RESULT:      -6.9     12.360     14.367
REMARK  3 active torsions:
REMARK  status: ('A' for Active; 'I' for Inactive)
REMARK    1  A    between atoms: C_2  and  C_3 
REMARK    2  A    between atoms: C_4  and  N_5 
REMARK    3  A    between atoms: C_18  and  C_19 
ROOT
HETATM    1  N   UNL     1      31.082  51.695  41.224  1.00  0.00    -0.320 N 
HETATM    2  C   UNL     1      30.419  52.935  41.047  1.00  0.00     0.141 C 
HETATM    3  N   UNL     1      31.054  54.069  40.971  1.00  0.00    -0.380 N 
HETATM    4  H   UNL     1      30.533  54.928  40.865  1.00  0.00     0.158 HD
HETATM    5  H   UNL     1      32.062  54.075  41.044  1.00  0.00     0.158 HD
HETATM    6  S   UNL     1      28.712  52.789  41.008  1.00  0.00    -0.086 SA
HETATM    7  C   UNL     1      28.786  51.064  41.663  1.00  0.00     0.093 C 
HETATM    8  C   UNL     1      30.179  50.523  41.247  1.00  0.00     0.121 C 
HETATM    9  C   UNL     1      27.692  50.146  41.145  1.00  0.00     0.158 C 
HETATM   10  S   UNL     1      28.469  49.048  39.980  1.00  0.00     0.147 S 
HETATM   11  O   UNL     1      27.795  49.150  38.705  1.00  0.00    -0.228 OA
HETATM   12  O   UNL     1      28.699  47.782  40.643  1.00  0.00    -0.228 OA
HETATM   13  C   UNL     1      30.021  49.890  39.872  1.00  0.00     0.167 C 
ENDROOT
BRANCH   1  14
HETATM   14  C   UNL     1      32.467  51.441  41.242  1.00  0.00     0.049 A 
HETATM   15  C   UNL     1      33.096  51.043  42.457  1.00  0.00    -0.031 A 
HETATM   16  C   UNL     1      34.468  50.742  42.450  1.00  0.00     0.009 A 
HETATM   17  C   UNL     1      35.230  50.901  41.301  1.00  0.00     0.001 A 
HETATM   18  C   UNL     1      34.633  51.350  40.129  1.00  0.00     0.009 A 
HETATM   19  C   UNL     1      33.251  51.605  40.065  1.00  0.00    -0.031 A 
BRANCH  15  20
HETATM   20  C   UNL     1      32.325  50.925  43.762  1.00  0.00     0.036 C 
HETATM   21  C   UNL     1      32.588  52.029  44.784  1.00  0.00     0.010 C 
ENDBRANCH  15  20
BRANCH  19  22
HETATM   22  C   UNL     1      32.661  52.094  38.752  1.00  0.00     0.036 C 
HETATM   23  C   UNL     1      32.235  51.007  37.769  1.00  0.00     0.010 C 
ENDBRANCH  19  22
ENDBRANCH   1  14
TORSDOF 3
ENDMDL
MODEL 4
REMARK VINA RESULT:      -6.8     12.995     14.605
REMARK  3 active torsions:
REMARK  status: ('A' for Active; 'I' for Inactive)
REMARK    1  A    between atoms: C_2  and  C_3 
REMARK    2  A    between atoms: C_4  and  N_5 
REMARK    3  A    between atoms: C_18  and  C_19 
ROOT
HETATM    1  N   UNL     1      32.849  51.022  40.812  1.00  0.00    -0.320 N 
HETATM    2  C   UNL     1      32.417  49.697  40.558  1.00  0.00     0.141 C 
HETATM    3  N   UNL     1      33.096  48.650  40.931  1.00  0.00    -0.380 N 
HETATM    4  H   UNL     1      32.754  47.726  40.708  1.00  0.00     0.158 HD
HETATM    5  H   UNL     1      33.971  48.779  41.420  1.00  0.00     0.158 HD
HETATM    6  S   UNL     1      30.956  49.621  39.664  1.00  0.00    -0.086 SA
HETATM    7  C   UNL     1      31.073  51.408  39.213  1.00  0.00     0.093 C 
HETATM    8  C   UNL     1      31.913  52.065  40.339  1.00  0.00     0.121 C 
HETATM    9  C   UNL     1      29.733  52.113  39.081  1.00  0.00     0.158 C 
HETATM   10  S   UNL     1      29.568  53.151  40.515  1.00  0.00     0.147 S 
HETATM   11  O   UNL     1      28.348  52.813  41.212  1.00  0.00    -0.228 OA
HETATM   12  O   UNL     1      29.897  54.506  40.126  1.00  0.00    -0.228 OA
HETATM   13  C   UNL     1      30.942  52.504  41.425  1.00  0.00     0.167 C 
ENDROOT
BRANCH   1  14
HETATM   14  C   UNL     1      33.963  51.448  41.560  1.00  0.00     0.049 A 
HETATM   15  C   UNL     1      35.181  51.767  40.893  1.00  0.00    -0.031 A 
HETATM   16  C   UNL     1      36.268  52.242  41.646  1.00  0.00     0.009 A 
HETATM   17  C   UNL     1      36.198  52.328  43.030  1.00  0.00     0.001 A 
HETATM   18  C   UNL     1      35.034  51.956  43.690  1.00  0.00     0.009 A 
HETATM   19  C   UNL     1      33.895  51.536  42.980  1.00  0.00    -0.031 A 
BRANCH  15  20
HETATM   20  C   UNL     1      35.338  51.621  39.388  1.00  0.00     0.036 C 
HETATM   21  C   UNL     1      36.591  50.880  38.927  1.00  0.00     0.010 C 
ENDBRANCH  15  20
BRANCH  19  22
HETATM   22  C   UNL     1      32.652  51.144  43.764  1.00  0.00     0.036 C 
HETATM   23  C   UNL     1      32.302  52.040  44.948  1.00  0.00     0.010 C 
ENDBRANCH  19  22
ENDBRANCH   1  14
TORSDOF 3
ENDMDL
MODEL 5
REMARK VINA RESULT:      -6.8     12.309     14.302
REMARK  3 active torsions:
REMARK  status: ('A' for Active; 'I' for Inactive)
REMARK    1  A    between atoms: C_2  and  C_3 
REMARK    2  A    between atoms: C_4  and  N_5 
REMARK    3  A    between atoms: C_18  and  C_19 
ROOT
HETATM    1  N   UNL     1      31.121  51.851  41.236  1.00  0.00    -0.320 N 
HETATM    2  C   UNL     1      30.451  53.076  40.993  1.00  0.00     0.141 C 
HETATM    3  N   UNL     1      31.077  54.211  40.873  1.00  0.00    -0.380 N 
HETATM    4  H   UNL     1      30.551  55.059  40.720  1.00  0.00     0.158 HD
HETATM    5  H   UNL     1      32.084  54.229  40.959  1.00  0.00     0.158 HD
HETATM    6  S   UNL     1      28.745  52.914  40.937  1.00  0.00    -0.086 SA
HETATM    7  C   UNL     1      28.824  51.221  41.672  1.00  0.00     0.093 C 
HETATM    8  C   UNL     1      30.227  50.674  41.300  1.00  0.00     0.121 C 
HETATM    9  C   UNL     1      27.746  50.270  41.181  1.00  0.00     0.158 C 
HETATM   10  S   UNL     1      28.547  49.127  40.079  1.00  0.00     0.147 S 
HETATM   11  O   UNL     1      27.891  49.164  38.791  1.00  0.00    -0.228 OA
HETATM   12  O   UNL     1      28.778  47.895  40.804  1.00  0.00    -0.228 OA
HETATM   13  C   UNL     1      30.095  49.977  39.954  1.00  0.00     0.167 C 
ENDROOT
BRANCH   1  14
HETATM   14  C   UNL     1      32.508  51.611  41.285  1.00  0.00     0.049 A 
HETATM   15  C   UNL     1      33.292  51.761  40.106  1.00  0.00    -0.031 A 
HETATM   16  C   UNL     1      34.682  51.570  40.180  1.00  0.00     0.009 A 
HETATM   17  C   UNL     1      35.287  51.165  41.363  1.00  0.00     0.001 A 
HETATM   18  C   UNL     1      34.516  50.956  42.500  1.00  0.00     0.009 A 
HETATM   19  C   UNL     1      33.130  51.194  42.496  1.00  0.00    -0.031 A 
BRANCH  15  20
HETATM   20  C   UNL     1      32.673  52.130  38.767  1.00  0.00     0.036 C 
HETATM   21  C   UNL     1      32.331  50.955  37.854  1.00  0.00     0.010 C 
ENDBRANCH  15  20
BRANCH  19  22
HETATM   22  C   UNL     1      32.345  50.947  43.775  1.00  0.00     0.036 C 
HETATM   23  C   UNL     1      32.468  52.024  44.849  1.00  0.00     0.010 C 
ENDBRANCH  19  22
ENDBRANCH   1  14
TORSDOF 3
ENDMDL
MODEL 6
REMARK VINA RESULT:      -6.7     13.592     15.318
REMARK  3 active torsions:
REMARK  status: ('A' for Active; 'I' for Inactive)
REMARK    1  A    between atoms: C_2  and  C_3 
REMARK    2  A    between atoms: C_4  and  N_5 
REMARK    3  A    between atoms: C_18  and  C_19 
ROOT
HETATM    1  N   UNL     1      30.526  50.391  39.172  1.00  0.00    -0.320 N 
HETATM    2  C   UNL     1      31.289  51.225  38.317  1.00  0.00     0.141 C 
HETATM    3  N   UNL     1      30.858  51.631  37.157  1.00  0.00    -0.380 N 
HETATM    4  H   UNL     1      31.451  52.208  36.578  1.00  0.00     0.158 HD
HETATM    5  H   UNL     1      29.943  51.340  36.844  1.00  0.00     0.158 HD
HETATM    6  S   UNL     1      32.845  51.586  38.939  1.00  0.00    -0.086 SA
HETATM    7  C   UNL     1      32.705  50.261  40.218  1.00  0.00     0.093 C 
HETATM    8  C   UNL     1      31.184  50.078  40.459  1.00  0.00     0.121 C 
HETATM    9  C   UNL     1      33.408  50.572  41.528  1.00  0.00     0.158 C 
HETATM   10  S   UNL     1      32.130  50.948  42.707  1.00  0.00     0.147 S 
HETATM   11  O   UNL     1      32.365  52.262  43.264  1.00  0.00    -0.228 OA
HETATM   12  O   UNL     1      31.922  49.775  43.530  1.00  0.00    -0.228 OA
HETATM   13  C   UNL     1      30.785  51.047  41.561  1.00  0.00     0.167 C 
ENDROOT
BRANCH   1  14
HETATM   14  C   UNL     1      29.199  49.952  39.002  1.00  0.00     0.049 A 
HETATM   15  C   UNL     1      28.123  50.869  39.181  1.00  0.00    -0.031 A 
HETATM   16  C   UNL     1      26.807  50.431  38.957  1.00  0.00     0.009 A 
HETATM   17  C   UNL     1      26.537  49.106  38.642  1.00  0.00     0.001 A 
HETATM   18  C   UNL     1      27.579  48.193  38.530  1.00  0.00     0.009 A 
HETATM   19  C   UNL     1      28.919  48.593  38.681  1.00  0.00    -0.031 A 
BRANCH  15  20
HETATM   20  C   UNL     1      28.355  52.312  39.598  1.00  0.00     0.036 C 
HETATM   21  C   UNL     1      27.922  52.664  41.019  1.00  0.00     0.010 C 
ENDBRANCH  15  20
BRANCH  19  22
HETATM   22  C   UNL     1      30.011  47.544  38.544  1.00  0.00     0.036 C 
HETATM   23  C   UNL     1      29.902  46.343  39.479  1.00  0.00     0.010 C 
ENDBRANCH  19  22
ENDBRANCH   1  14
TORSDOF 3
ENDMDL
MODEL 7
REMARK VINA RESULT:      -6.7     12.371     14.272
REMARK  3 active torsions:
REMARK  status: ('A' for Active; 'I' for Inactive)
REMARK    1  A    between atoms: C_2  and  C_3 
REMARK    2  A    between atoms: C_4  and  N_5 
REMARK    3  A    between atoms: C_18  and  C_19 
ROOT
HETATM    1  N   UNL     1      30.060  50.203  40.830  1.00  0.00    -0.320 N 
HETATM    2  C   UNL     1      28.852  50.838  41.211  1.00  0.00     0.141 C 
HETATM    3  N   UNL     1      28.751  52.126  41.371  1.00  0.00    -0.380 N 
HETATM    4  H   UNL     1      27.872  52.527  41.663  1.00  0.00     0.158 HD
HETATM    5  H   UNL     1      29.566  52.705  41.222  1.00  0.00     0.158 HD
HETATM    6  S   UNL     1      27.571  49.735  41.497  1.00  0.00    -0.086 SA
HETATM    7  C   UNL     1      28.734  48.301  41.526  1.00  0.00     0.093 C 
HETATM    8  C   UNL     1      29.949  48.737  40.667  1.00  0.00     0.121 C 
HETATM    9  C   UNL     1      28.151  47.006  40.987  1.00  0.00     0.158 C 
HETATM   10  S   UNL     1      28.892  46.747  39.392  1.00  0.00     0.147 S 
HETATM   11  O   UNL     1      27.852  46.622  38.396  1.00  0.00    -0.228 OA
HETATM   12  O   UNL     1      29.950  45.770  39.543  1.00  0.00    -0.228 OA
HETATM   13  C   UNL     1      29.649  48.338  39.229  1.00  0.00     0.167 C 
ENDROOT
BRANCH   1  14
HETATM   14  C   UNL     1      31.282  50.802  40.465  1.00  0.00     0.049 A 
HETATM   15  C   UNL     1      32.319  50.935  41.433  1.00  0.00    -0.031 A 
HETATM   16  C   UNL     1      33.552  51.485  41.043  1.00  0.00     0.009 A 
HETATM   17  C   UNL     1      33.744  51.969  39.756  1.00  0.00     0.001 A 
HETATM   18  C   UNL     1      32.714  51.900  38.826  1.00  0.00     0.009 A 
HETATM   19  C   UNL     1      31.482  51.300  39.147  1.00  0.00    -0.031 A 
BRANCH  15  20
HETATM   20  C   UNL     1      32.137  50.491  42.876  1.00  0.00     0.036 C 
HETATM   21  C   UNL     1      32.362  51.572  43.930  1.00  0.00     0.010 C 
ENDBRANCH  15  20
BRANCH  19  22
HETATM   22  C   UNL     1      30.396  51.255  38.083  1.00  0.00     0.036 C 
HETATM   23  C   UNL     1      29.534  52.508  37.958  1.00  0.00     0.010 C 
ENDBRANCH  19  22
ENDBRANCH   1  14
TORSDOF 3
ENDMDL
MODEL 8
REMARK VINA RESULT:      -6.6      8.001      9.878
REMARK  3 active torsions:
REMARK  status: ('A' for Active; 'I' for Inactive)
REMARK    1  A    between atoms: C_2  and  C_3 
REMARK    2  A    between atoms: C_4  and  N_5 
REMARK    3  A    between atoms: C_18  and  C_19 
ROOT
HETATM    1  N   UNL     1      19.436  48.502  48.291  1.00  0.00    -0.320 N 
HETATM    2  C   UNL     1      18.664  48.003  49.369  1.00  0.00     0.141 C 
HETATM    3  N   UNL     1      19.057  48.069  50.609  1.00  0.00    -0.380 N 
HETATM    4  H   UNL     1      18.477  47.680  51.339  1.00  0.00     0.158 HD
HETATM    5  H   UNL     1      19.953  48.487  50.820  1.00  0.00     0.158 HD
HETATM    6  S   UNL     1      17.203  47.259  48.867  1.00  0.00    -0.086 SA
HETATM    7  C   UNL     1      17.767  47.206  47.110  1.00  0.00     0.093 C 
HETATM    8  C   UNL     1      18.790  48.363  46.968  1.00  0.00     0.121 C 
HETATM    9  C   UNL     1      16.656  47.362  46.086  1.00  0.00     0.158 C 
HETATM   10  S   UNL     1      16.820  49.000  45.413  1.00  0.00     0.147 S 
HETATM   11  O   UNL     1      15.579  49.718  45.596  1.00  0.00    -0.228 OA
HETATM   12  O   UNL     1      17.478  48.891  44.127  1.00  0.00    -0.228 OA
HETATM   13  C   UNL     1      18.007  49.607  46.576  1.00  0.00     0.167 C 
ENDROOT
BRANCH   1  14
HETATM   14  C   UNL     1      20.649  49.215  48.345  1.00  0.00     0.049 A 
HETATM   15  C   UNL     1      21.869  48.559  48.012  1.00  0.00    -0.031 A 
HETATM   16  C   UNL     1      23.066  49.296  48.017  1.00  0.00     0.009 A 
HETATM   17  C   UNL     1      23.085  50.626  48.416  1.00  0.00     0.001 A 
HETATM   18  C   UNL     1      21.907  51.252  48.802  1.00  0.00     0.009 A 
HETATM   19  C   UNL     1      20.673  50.579  48.754  1.00  0.00    -0.031 A 
BRANCH  15  20
HETATM   20  C   UNL     1      21.917  47.086  47.641  1.00  0.00     0.036 C 
HETATM   21  C   UNL     1      22.726  46.196  48.582  1.00  0.00     0.010 C 
ENDBRANCH  15  20
BRANCH  19  22
HETATM   22  C   UNL     1      19.420  51.323  49.190  1.00  0.00     0.036 C 
HETATM   23  C   UNL     1      19.056  52.554  48.365  1.00  0.00     0.010 C 
ENDBRANCH  19  22
ENDBRANCH   1  14
TORSDOF 3
ENDMDL
MODEL 9
REMARK VINA RESULT:      -6.6     12.342     14.300
REMARK  3 active torsions:
REMARK  status: ('A' for Active; 'I' for Inactive)
REMARK    1  A    between atoms: C_2  and  C_3 
REMARK    2  A    between atoms: C_4  and  N_5 
REMARK    3  A    between atoms: C_18  and  C_19 
ROOT
HETATM    1  N   UNL     1      30.142  50.281  40.844  1.00  0.00    -0.320 N 
HETATM    2  C   UNL     1      28.943  50.943  41.206  1.00  0.00     0.141 C 
HETATM    3  N   UNL     1      28.866  52.235  41.351  1.00  0.00    -0.380 N 
HETATM    4  H   UNL     1      27.992  52.656  41.630  1.00  0.00     0.158 HD
HETATM    5  H   UNL     1      29.694  52.797  41.205  1.00  0.00     0.158 HD
HETATM    6  S   UNL     1      27.637  49.870  41.490  1.00  0.00    -0.086 SA
HETATM    7  C   UNL     1      28.771  48.413  41.546  1.00  0.00     0.093 C 
HETATM    8  C   UNL     1      30.004  48.816  40.695  1.00  0.00     0.121 C 
HETATM    9  C   UNL     1      28.168  47.124  41.015  1.00  0.00     0.158 C 
HETATM   10  S   UNL     1      28.920  46.833  39.430  1.00  0.00     0.147 S 
HETATM   11  O   UNL     1      27.888  46.719  38.424  1.00  0.00    -0.228 OA
HETATM   12  O   UNL     1      29.957  45.837  39.603  1.00  0.00    -0.228 OA
HETATM   13  C   UNL     1      29.710  48.408  39.259  1.00  0.00     0.167 C 
ENDROOT
BRANCH   1  14
HETATM   14  C   UNL     1      31.379  50.851  40.486  1.00  0.00     0.049 A 
HETATM   15  C   UNL     1      31.582  51.321  39.157  1.00  0.00    -0.031 A 
HETATM   16  C   UNL     1      32.801  51.937  38.828  1.00  0.00     0.009 A 
HETATM   17  C   UNL     1      33.833  52.022  39.753  1.00  0.00     0.001 A 
HETATM   18  C   UNL     1      33.662  51.507  41.032  1.00  0.00     0.009 A 
HETATM   19  C   UNL     1      32.439  50.938  41.433  1.00  0.00    -0.031 A 
BRANCH  15  20
HETATM   20  C   UNL     1      30.514  51.187  38.083  1.00  0.00     0.036 C 
HETATM   21  C   UNL     1      29.616  52.407  37.892  1.00  0.00     0.010 C 
ENDBRANCH  15  20
BRANCH  19  22
HETATM   22  C   UNL     1      32.318  50.395  42.848  1.00  0.00     0.036 C 
HETATM   23  C   UNL     1      32.385  51.430  43.967  1.00  0.00     0.010 C 
ENDBRANCH  19  22
ENDBRANCH   1  14
TORSDOF 3
ENDMDL
MODEL 10
REMARK VINA RESULT:      -6.5     12.228     14.058
REMARK  3 active torsions:
REMARK  status: ('A' for Active; 'I' for Inactive)
REMARK    1  A    between atoms: C_2  and  C_3 
REMARK    2  A    between atoms: C_4  and  N_5 
REMARK    3  A    between atoms: C_18  and  C_19 
ROOT
HETATM    1  N   UNL     1      29.168  49.232  39.731  1.00  0.00    -0.320 N 
HETATM    2  C   UNL     1      30.043  48.385  39.007  1.00  0.00     0.141 C 
HETATM    3  N   UNL     1      31.303  48.660  38.828  1.00  0.00    -0.380 N 
HETATM    4  H   UNL     1      31.880  48.033  38.287  1.00  0.00     0.158 HD
HETATM    5  H   UNL     1      31.680  49.514  39.216  1.00  0.00     0.158 HD
HETATM    6  S   UNL     1      29.261  47.010  38.347  1.00  0.00    -0.086 SA
HETATM    7  C   UNL     1      27.592  47.735  38.664  1.00  0.00     0.093 C 
HETATM    8  C   UNL     1      27.786  48.716  39.849  1.00  0.00     0.121 C 
HETATM    9  C   UNL     1      26.516  46.716  39.000  1.00  0.00     0.158 C 
HETATM   10  S   UNL     1      26.203  46.872  40.744  1.00  0.00     0.147 S 
HETATM   11  O   UNL     1      26.403  45.590  41.381  1.00  0.00    -0.228 OA
HETATM   12  O   UNL     1      24.993  47.650  40.913  1.00  0.00    -0.228 OA
HETATM   13  C   UNL     1      27.575  47.921  41.129  1.00  0.00     0.167 C 
ENDROOT
BRANCH   1  14
HETATM   14  C   UNL     1      29.482  50.404  40.446  1.00  0.00     0.049 A 
HETATM   15  C   UNL     1      29.180  51.677  39.883  1.00  0.00    -0.031 A 
HETATM   16  C   UNL     1      29.449  52.836  40.629  1.00  0.00     0.009 A 
HETATM   17  C   UNL     1      30.073  52.762  41.867  1.00  0.00     0.001 A 
HETATM   18  C   UNL     1      30.427  51.525  42.393  1.00  0.00     0.009 A 
HETATM   19  C   UNL     1      30.123  50.331  41.716  1.00  0.00    -0.031 A 
BRANCH  15  20
HETATM   20  C   UNL     1      28.566  51.821  38.500  1.00  0.00     0.036 C 
HETATM   21  C   UNL     1      28.737  53.189  37.843  1.00  0.00     0.010 C 
ENDBRANCH  15  20
BRANCH  19  22
HETATM   22  C   UNL     1      30.537  49.010  42.347  1.00  0.00     0.036 C 
HETATM   23  C   UNL     1      32.039  48.751  42.423  1.00  0.00     0.010 C 
ENDBRANCH  19  22
ENDBRANCH   1  14
TORSDOF 3
ENDMDL
