MODEL 1
REMARK VINA RESULT:      -9.6      0.000      0.000
REMARK  2 active torsions:
REMARK  status: ('A' for Active; 'I' for Inactive)
REMARK    1  A    between atoms: C_11  and  N_12 
REMARK    2  A    between atoms: N_12  and  C_13 
ROOT
HETATM    1  C   UNL     1      31.990  43.564  57.083  1.00  0.00     0.010 C 
HETATM    2  C   UNL     1      30.628  43.744  56.415  1.00  0.00    -0.014 C 
HETATM    3  C   UNL     1      30.338  45.238  56.170  1.00  0.00     0.051 C 
HETATM    4  C   UNL     1      29.129  45.399  55.298  1.00  0.00    -0.008 A 
HETATM    5  C   UNL     1      28.567  44.416  54.502  1.00  0.00    -0.028 A 
HETATM    6  C   UNL     1      27.373  44.897  53.818  1.00  0.00     0.053 A 
HETATM    7  C   UNL     1      27.171  46.244  54.104  1.00  0.00     0.114 A 
HETATM    8  N   UNL     1      26.191  47.032  53.639  1.00  0.00    -0.234 NA
HETATM    9  C   UNL     1      25.362  46.383  52.828  1.00  0.00     0.236 A 
HETATM   10  N   UNL     1      25.416  45.092  52.479  1.00  0.00    -0.223 NA
HETATM   11  C   UNL     1      26.405  44.300  52.963  1.00  0.00     0.143 A 
HETATM   12  S   UNL     1      28.325  46.886  55.179  1.00  0.00    -0.073 SA
HETATM   13  C   UNL     1      29.160  43.035  54.453  1.00  0.00     0.041 C 
HETATM   14  C   UNL     1      30.557  42.961  55.091  1.00  0.00     0.009 C 
ENDROOT
BRANCH  11  15
HETATM   15  N   UNL     1      26.456  42.944  52.604  1.00  0.00    -0.340 N 
HETATM   16  H   UNL     1      25.999  42.334  53.259  1.00  0.00     0.167 HD
BRANCH  15  17
HETATM   17  C   UNL     1      26.881  42.280  51.437  1.00  0.00     0.036 A 
HETATM   18  C   UNL     1      27.659  41.116  51.584  1.00  0.00     0.069 A 
HETATM   19  C   UNL     1      28.106  40.461  50.454  1.00  0.00     0.107 A 
HETATM   20  C   UNL     1      27.821  40.919  49.193  1.00  0.00     0.105 A 
HETATM   21  O   UNL     1      28.856  39.326  50.439  1.00  0.00    -0.323 OA
HETATM   22  O   UNL     1      28.351  40.131  48.220  1.00  0.00    -0.323 OA
HETATM   23  C   UNL     1      27.079  42.059  48.996  1.00  0.00     0.042 A 
HETATM   24  C   UNL     1      29.006  39.123  49.017  1.00  0.00     0.352 A 
HETATM   25  C   UNL     1      26.616  42.742  50.130  1.00  0.00     0.032 A 
ENDBRANCH  15  17
ENDBRANCH  11  15
TORSDOF 2
ENDMDL
MODEL 2
REMARK VINA RESULT:      -9.1      4.236      6.163
REMARK  2 active torsions:
REMARK  status: ('A' for Active; 'I' for Inactive)
REMARK    1  A    between atoms: C_11  and  N_12 
REMARK    2  A    between atoms: N_12  and  C_13 
ROOT
HETATM    1  C   UNL     1      30.032  45.755  57.078  1.00  0.00     0.010 C 
HETATM    2  C   UNL     1      29.494  45.633  55.654  1.00  0.00    -0.014 C 
HETATM    3  C   UNL     1      29.494  44.160  55.200  1.00  0.00     0.051 C 
HETATM    4  C   UNL     1      28.741  44.011  53.911  1.00  0.00    -0.008 A 
HETATM    5  C   UNL     1      27.848  44.927  53.383  1.00  0.00    -0.028 A 
HETATM    6  C   UNL     1      27.328  44.489  52.095  1.00  0.00     0.053 A 
HETATM    7  C   UNL     1      27.824  43.226  51.787  1.00  0.00     0.114 A 
HETATM    8  N   UNL     1      27.550  42.492  50.698  1.00  0.00    -0.234 NA
HETATM    9  C   UNL     1      26.711  43.107  49.872  1.00  0.00     0.236 A 
HETATM   10  N   UNL     1      26.171  44.322  50.022  1.00  0.00    -0.223 NA
HETATM   11  C   UNL     1      26.462  45.062  51.121  1.00  0.00     0.143 A 
HETATM   12  S   UNL     1      28.900  42.619  52.958  1.00  0.00    -0.073 SA
HETATM   13  C   UNL     1      27.554  46.215  54.102  1.00  0.00     0.041 C 
HETATM   14  C   UNL     1      28.076  46.225  55.549  1.00  0.00     0.009 C 
ENDROOT
BRANCH  11  15
HETATM   15  N   UNL     1      25.903  46.340  51.275  1.00  0.00    -0.340 N 
HETATM   16  H   UNL     1      25.744  46.601  52.233  1.00  0.00     0.167 HD
BRANCH  15  17
HETATM   17  C   UNL     1      25.663  47.392  50.370  1.00  0.00     0.036 A 
HETATM   18  C   UNL     1      24.331  47.651  49.995  1.00  0.00     0.069 A 
HETATM   19  C   UNL     1      24.073  48.663  49.092  1.00  0.00     0.107 A 
HETATM   20  C   UNL     1      25.080  49.416  48.544  1.00  0.00     0.105 A 
HETATM   21  O   UNL     1      22.844  49.034  48.644  1.00  0.00    -0.323 OA
HETATM   22  O   UNL     1      24.616  50.359  47.682  1.00  0.00    -0.323 OA
HETATM   23  C   UNL     1      26.398  49.192  48.866  1.00  0.00     0.042 A 
HETATM   24  C   UNL     1      23.197  50.111  47.750  1.00  0.00     0.352 A 
HETATM   25  C   UNL     1      26.683  48.168  49.780  1.00  0.00     0.032 A 
ENDBRANCH  15  17
ENDBRANCH  11  15
TORSDOF 2
ENDMDL
MODEL 3
REMARK VINA RESULT:      -8.7      3.477      5.389
REMARK  2 active torsions:
REMARK  status: ('A' for Active; 'I' for Inactive)
REMARK    1  A    between atoms: C_11  and  N_12 
REMARK    2  A    between atoms: N_12  and  C_13 
ROOT
HETATM    1  C   UNL     1      29.695  45.453  56.366  1.00  0.00     0.010 C 
HETATM    2  C   UNL     1      29.186  44.949  55.017  1.00  0.00    -0.014 C 
HETATM    3  C   UNL     1      29.648  43.500  54.770  1.00  0.00     0.051 C 
HETATM    4  C   UNL     1      28.949  42.925  53.575  1.00  0.00    -0.008 A 
HETATM    5  C   UNL     1      27.794  43.421  52.995  1.00  0.00    -0.028 A 
HETATM    6  C   UNL     1      27.407  42.648  51.822  1.00  0.00     0.053 A 
HETATM    7  C   UNL     1      28.275  41.573  51.654  1.00  0.00     0.114 A 
HETATM    8  N   UNL     1      28.222  40.632  50.700  1.00  0.00    -0.234 NA
HETATM    9  C   UNL     1      27.207  40.816  49.863  1.00  0.00     0.236 A 
HETATM   10  N   UNL     1      26.309  41.808  49.886  1.00  0.00    -0.223 NA
HETATM   11  C   UNL     1      26.376  42.762  50.848  1.00  0.00     0.143 A 
HETATM   12  S   UNL     1      29.522  41.524  52.813  1.00  0.00    -0.073 SA
HETATM   13  C   UNL     1      27.120  44.645  53.551  1.00  0.00     0.041 C 
HETATM   14  C   UNL     1      27.650  45.042  54.939  1.00  0.00     0.009 C 
ENDROOT
BRANCH  11  15
HETATM   15  N   UNL     1      25.439  43.807  50.866  1.00  0.00    -0.340 N 
HETATM   16  H   UNL     1      24.571  43.564  51.310  1.00  0.00     0.167 HD
BRANCH  15  17
HETATM   17  C   UNL     1      25.523  45.171  50.528  1.00  0.00     0.036 A 
HETATM   18  C   UNL     1      26.686  45.619  49.872  1.00  0.00     0.069 A 
HETATM   19  C   UNL     1      26.801  46.957  49.550  1.00  0.00     0.107 A 
HETATM   20  C   UNL     1      25.818  47.862  49.861  1.00  0.00     0.105 A 
HETATM   21  O   UNL     1      27.855  47.533  48.912  1.00  0.00    -0.323 OA
HETATM   22  O   UNL     1      26.124  49.123  49.457  1.00  0.00    -0.323 OA
HETATM   23  C   UNL     1      24.671  47.477  50.514  1.00  0.00     0.042 A 
HETATM   24  C   UNL     1      27.417  48.908  48.856  1.00  0.00     0.352 A 
HETATM   25  C   UNL     1      24.534  46.123  50.852  1.00  0.00     0.032 A 
ENDBRANCH  15  17
ENDBRANCH  11  15
TORSDOF 2
ENDMDL
MODEL 4
REMARK VINA RESULT:      -8.6      3.727      5.540
REMARK  2 active torsions:
REMARK  status: ('A' for Active; 'I' for Inactive)
REMARK    1  A    between atoms: C_11  and  N_12 
REMARK    2  A    between atoms: N_12  and  C_13 
ROOT
HETATM    1  C   UNL     1      30.459  46.112  57.797  1.00  0.00     0.010 C 
HETATM    2  C   UNL     1      29.958  45.783  56.392  1.00  0.00    -0.014 C 
HETATM    3  C   UNL     1      30.180  44.291  56.073  1.00  0.00     0.051 C 
HETATM    4  C   UNL     1      29.470  43.916  54.808  1.00  0.00    -0.008 A 
HETATM    5  C   UNL     1      28.456  44.637  54.202  1.00  0.00    -0.028 A 
HETATM    6  C   UNL     1      28.018  44.012  52.962  1.00  0.00     0.053 A 
HETATM    7  C   UNL     1      28.699  42.813  52.767  1.00  0.00     0.114 A 
HETATM    8  N   UNL     1      28.546  41.952  51.752  1.00  0.00    -0.234 NA
HETATM    9  C   UNL     1      27.633  42.357  50.876  1.00  0.00     0.236 A 
HETATM   10  N   UNL     1      26.917  43.488  50.918  1.00  0.00    -0.223 NA
HETATM   11  C   UNL     1      27.085  44.359  51.944  1.00  0.00     0.143 A 
HETATM   12  S   UNL     1      29.843  42.482  53.984  1.00  0.00    -0.073 SA
HETATM   13  C   UNL     1      27.967  45.927  54.803  1.00  0.00     0.041 C 
HETATM   14  C   UNL     1      28.468  46.145  56.240  1.00  0.00     0.009 C 
ENDROOT
BRANCH  11  15
HETATM   15  N   UNL     1      26.341  45.548  51.983  1.00  0.00    -0.340 N 
HETATM   16  H   UNL     1      26.424  46.050  52.850  1.00  0.00     0.167 HD
BRANCH  15  17
HETATM   17  C   UNL     1      25.625  46.260  51.001  1.00  0.00     0.036 A 
HETATM   18  C   UNL     1      26.101  47.530  50.627  1.00  0.00     0.069 A 
HETATM   19  C   UNL     1      25.403  48.256  49.682  1.00  0.00     0.107 A 
HETATM   20  C   UNL     1      24.254  47.777  49.106  1.00  0.00     0.105 A 
HETATM   21  O   UNL     1      25.744  49.488  49.216  1.00  0.00    -0.323 OA
HETATM   22  O   UNL     1      23.724  48.642  48.202  1.00  0.00    -0.323 OA
HETATM   23  C   UNL     1      23.741  46.549  49.449  1.00  0.00     0.042 A 
HETATM   24  C   UNL     1      24.673  49.725  48.276  1.00  0.00     0.352 A 
HETATM   25  C   UNL     1      24.432  45.795  50.408  1.00  0.00     0.032 A 
ENDBRANCH  15  17
ENDBRANCH  11  15
TORSDOF 2
ENDMDL
MODEL 5
REMARK VINA RESULT:      -8.4      4.118      6.163
REMARK  2 active torsions:
REMARK  status: ('A' for Active; 'I' for Inactive)
REMARK    1  A    between atoms: C_11  and  N_12 
REMARK    2  A    between atoms: N_12  and  C_13 
ROOT
HETATM    1  C   UNL     1      29.113  40.422  52.269  1.00  0.00     0.010 C 
HETATM    2  C   UNL     1      28.290  41.671  52.582  1.00  0.00    -0.014 C 
HETATM    3  C   UNL     1      28.896  42.433  53.777  1.00  0.00     0.051 C 
HETATM    4  C   UNL     1      28.244  43.775  53.925  1.00  0.00    -0.008 A 
HETATM    5  C   UNL     1      27.504  44.429  52.954  1.00  0.00    -0.028 A 
HETATM    6  C   UNL     1      26.978  45.696  53.443  1.00  0.00     0.053 A 
HETATM    7  C   UNL     1      27.430  45.931  54.738  1.00  0.00     0.114 A 
HETATM    8  N   UNL     1      27.174  47.002  55.503  1.00  0.00    -0.234 NA
HETATM    9  C   UNL     1      26.395  47.887  54.890  1.00  0.00     0.236 A 
HETATM   10  N   UNL     1      25.869  47.790  53.663  1.00  0.00    -0.223 NA
HETATM   11  C   UNL     1      26.125  46.698  52.900  1.00  0.00     0.143 A 
HETATM   12  S   UNL     1      28.394  44.671  55.356  1.00  0.00    -0.073 SA
HETATM   13  C   UNL     1      27.285  43.802  51.605  1.00  0.00     0.041 C 
HETATM   14  C   UNL     1      28.199  42.592  51.351  1.00  0.00     0.009 C 
ENDROOT
BRANCH  11  15
HETATM   15  N   UNL     1      25.567  46.593  51.617  1.00  0.00    -0.340 N 
HETATM   16  H   UNL     1      25.092  45.722  51.452  1.00  0.00     0.167 HD
BRANCH  15  17
HETATM   17  C   UNL     1      25.403  47.518  50.568  1.00  0.00     0.036 A 
HETATM   18  C   UNL     1      24.092  47.819  50.151  1.00  0.00     0.069 A 
HETATM   19  C   UNL     1      23.907  48.706  49.109  1.00  0.00     0.107 A 
HETATM   20  C   UNL     1      24.965  49.294  48.464  1.00  0.00     0.105 A 
HETATM   21  O   UNL     1      22.707  49.100  48.605  1.00  0.00    -0.323 OA
HETATM   22  O   UNL     1      24.569  50.134  47.472  1.00  0.00    -0.323 OA
HETATM   23  C   UNL     1      26.264  49.020  48.823  1.00  0.00     0.042 A 
HETATM   24  C   UNL     1      23.136  50.006  47.566  1.00  0.00     0.352 A 
HETATM   25  C   UNL     1      26.475  48.121  49.877  1.00  0.00     0.032 A 
ENDBRANCH  15  17
ENDBRANCH  11  15
TORSDOF 2
ENDMDL
MODEL 6
REMARK VINA RESULT:      -8.4      3.787      7.394
REMARK  2 active torsions:
REMARK  status: ('A' for Active; 'I' for Inactive)
REMARK    1  A    between atoms: C_11  and  N_12 
REMARK    2  A    between atoms: N_12  and  C_13 
ROOT
HETATM    1  C   UNL     1      23.810  48.147  49.504  1.00  0.00     0.010 C 
HETATM    2  C   UNL     1      24.497  47.007  50.252  1.00  0.00    -0.014 C 
HETATM    3  C   UNL     1      24.733  45.807  49.314  1.00  0.00     0.051 C 
HETATM    4  C   UNL     1      25.622  44.795  49.973  1.00  0.00    -0.008 A 
HETATM    5  C   UNL     1      26.436  45.022  51.069  1.00  0.00    -0.028 A 
HETATM    6  C   UNL     1      27.133  43.811  51.480  1.00  0.00     0.053 A 
HETATM    7  C   UNL     1      26.838  42.771  50.603  1.00  0.00     0.114 A 
HETATM    8  N   UNL     1      27.311  41.518  50.646  1.00  0.00    -0.234 NA
HETATM    9  C   UNL     1      28.141  41.324  51.666  1.00  0.00     0.236 A 
HETATM   10  N   UNL     1      28.501  42.216  52.597  1.00  0.00    -0.223 NA
HETATM   11  C   UNL     1      28.010  43.479  52.551  1.00  0.00     0.143 A 
HETATM   12  S   UNL     1      25.739  43.212  49.379  1.00  0.00    -0.073 SA
HETATM   13  C   UNL     1      26.488  46.378  51.718  1.00  0.00     0.041 C 
HETATM   14  C   UNL     1      25.830  47.476  50.866  1.00  0.00     0.009 C 
ENDROOT
BRANCH  11  15
HETATM   15  N   UNL     1      28.381  44.412  53.533  1.00  0.00    -0.340 N 
HETATM   16  H   UNL     1      27.864  45.273  53.490  1.00  0.00     0.167 HD
BRANCH  15  17
HETATM   17  C   UNL     1      29.219  44.328  54.661  1.00  0.00     0.036 A 
HETATM   18  C   UNL     1      29.117  45.338  55.636  1.00  0.00     0.069 A 
HETATM   19  C   UNL     1      29.946  45.289  56.740  1.00  0.00     0.107 A 
HETATM   20  C   UNL     1      30.870  44.290  56.907  1.00  0.00     0.105 A 
HETATM   21  O   UNL     1      29.957  46.184  57.765  1.00  0.00    -0.323 OA
HETATM   22  O   UNL     1      31.581  44.424  58.057  1.00  0.00    -0.323 OA
HETATM   23  C   UNL     1      31.019  43.291  55.975  1.00  0.00     0.042 A 
HETATM   24  C   UNL     1      30.998  45.628  58.597  1.00  0.00     0.352 A 
HETATM   25  C   UNL     1      30.190  43.321  54.845  1.00  0.00     0.032 A 
ENDBRANCH  15  17
ENDBRANCH  11  15
TORSDOF 2
ENDMDL
MODEL 7
REMARK VINA RESULT:      -7.9     15.011     17.071
REMARK  2 active torsions:
REMARK  status: ('A' for Active; 'I' for Inactive)
REMARK    1  A    between atoms: C_11  and  N_12 
REMARK    2  A    between atoms: N_12  and  C_13 
ROOT
HETATM    1  C   UNL     1      44.547  47.134  65.429  1.00  0.00     0.010 C 
HETATM    2  C   UNL     1      43.234  46.375  65.254  1.00  0.00    -0.014 C 
HETATM    3  C   UNL     1      42.032  47.328  65.408  1.00  0.00     0.051 C 
HETATM    4  C   UNL     1      40.765  46.643  64.993  1.00  0.00    -0.008 A 
HETATM    5  C   UNL     1      40.678  45.494  64.226  1.00  0.00    -0.028 A 
HETATM    6  C   UNL     1      39.296  45.072  64.044  1.00  0.00     0.053 A 
HETATM    7  C   UNL     1      38.436  45.992  64.639  1.00  0.00     0.114 A 
HETATM    8  N   UNL     1      37.096  45.952  64.657  1.00  0.00    -0.234 NA
HETATM    9  C   UNL     1      36.613  44.889  64.023  1.00  0.00     0.236 A 
HETATM   10  N   UNL     1      37.310  43.915  63.426  1.00  0.00    -0.223 NA
HETATM   11  C   UNL     1      38.666  43.958  63.421  1.00  0.00     0.143 A 
HETATM   12  S   UNL     1      39.249  47.268  65.420  1.00  0.00    -0.073 SA
HETATM   13  C   UNL     1      41.921  44.808  63.728  1.00  0.00     0.041 C 
HETATM   14  C   UNL     1      43.184  45.670  63.885  1.00  0.00     0.009 C 
ENDROOT
BRANCH  11  15
HETATM   15  N   UNL     1      39.397  42.933  62.802  1.00  0.00    -0.340 N 
HETATM   16  H   UNL     1      39.894  43.228  61.980  1.00  0.00     0.167 HD
BRANCH  15  17
HETATM   17  C   UNL     1      39.702  41.612  63.185  1.00  0.00     0.036 A 
HETATM   18  C   UNL     1      40.487  41.422  64.338  1.00  0.00     0.069 A 
HETATM   19  C   UNL     1      40.818  40.137  64.720  1.00  0.00     0.107 A 
HETATM   20  C   UNL     1      40.410  39.042  64.001  1.00  0.00     0.105 A 
HETATM   21  O   UNL     1      41.559  39.798  65.809  1.00  0.00    -0.323 OA
HETATM   22  O   UNL     1      40.837  37.872  64.545  1.00  0.00    -0.323 OA
HETATM   23  C   UNL     1      39.654  39.176  62.860  1.00  0.00     0.042 A 
HETATM   24  C   UNL     1      41.566  38.358  65.691  1.00  0.00     0.352 A 
HETATM   25  C   UNL     1      39.309  40.472  62.453  1.00  0.00     0.032 A 
ENDBRANCH  15  17
ENDBRANCH  11  15
TORSDOF 2
ENDMDL
MODEL 8
REMARK VINA RESULT:      -7.9      8.409     11.517
REMARK  2 active torsions:
REMARK  status: ('A' for Active; 'I' for Inactive)
REMARK    1  A    between atoms: C_11  and  N_12 
REMARK    2  A    between atoms: N_12  and  C_13 
ROOT
HETATM    1  C   UNL     1      19.613  45.749  43.233  1.00  0.00     0.010 C 
HETATM    2  C   UNL     1      19.724  46.700  44.423  1.00  0.00    -0.014 C 
HETATM    3  C   UNL     1      18.326  47.144  44.895  1.00  0.00     0.051 C 
HETATM    4  C   UNL     1      18.422  47.870  46.203  1.00  0.00    -0.008 A 
HETATM    5  C   UNL     1      19.498  47.833  47.074  1.00  0.00    -0.028 A 
HETATM    6  C   UNL     1      19.280  48.688  48.234  1.00  0.00     0.053 A 
HETATM    7  C   UNL     1      18.009  49.252  48.176  1.00  0.00     0.114 A 
HETATM    8  N   UNL     1      17.446  50.072  49.075  1.00  0.00    -0.234 NA
HETATM    9  C   UNL     1      18.253  50.330  50.099  1.00  0.00     0.236 A 
HETATM   10  N   UNL     1      19.500  49.880  50.281  1.00  0.00    -0.223 NA
HETATM   11  C   UNL     1      20.065  49.059  49.361  1.00  0.00     0.143 A 
HETATM   12  S   UNL     1      17.141  48.820  46.776  1.00  0.00    -0.073 SA
HETATM   13  C   UNL     1      20.719  47.018  46.750  1.00  0.00     0.041 C 
HETATM   14  C   UNL     1      20.497  46.043  45.582  1.00  0.00     0.009 C 
ENDROOT
BRANCH  11  15
HETATM   15  N   UNL     1      21.376  48.595  49.547  1.00  0.00    -0.340 N 
HETATM   16  H   UNL     1      21.430  47.714  50.028  1.00  0.00     0.167 HD
BRANCH  15  17
HETATM   17  C   UNL     1      22.623  49.034  49.061  1.00  0.00     0.036 A 
HETATM   18  C   UNL     1      23.783  48.403  49.551  1.00  0.00     0.069 A 
HETATM   19  C   UNL     1      25.018  48.832  49.106  1.00  0.00     0.107 A 
HETATM   20  C   UNL     1      25.145  49.862  48.209  1.00  0.00     0.105 A 
HETATM   21  O   UNL     1      26.220  48.316  49.480  1.00  0.00    -0.323 OA
HETATM   22  O   UNL     1      26.442  50.126  47.900  1.00  0.00    -0.323 OA
HETATM   23  C   UNL     1      24.044  50.520  47.714  1.00  0.00     0.042 A 
HETATM   24  C   UNL     1      27.118  49.143  48.710  1.00  0.00     0.352 A 
HETATM   25  C   UNL     1      22.780  50.102  48.153  1.00  0.00     0.032 A 
ENDBRANCH  15  17
ENDBRANCH  11  15
TORSDOF 2
ENDMDL
MODEL 9
REMARK VINA RESULT:      -7.9      3.785      7.540
REMARK  2 active torsions:
REMARK  status: ('A' for Active; 'I' for Inactive)
REMARK    1  A    between atoms: C_11  and  N_12 
REMARK    2  A    between atoms: N_12  and  C_13 
ROOT
HETATM    1  C   UNL     1      22.209  44.132  48.829  1.00  0.00     0.010 C 
HETATM    2  C   UNL     1      23.248  43.203  49.453  1.00  0.00    -0.014 C 
HETATM    3  C   UNL     1      24.158  42.599  48.365  1.00  0.00     0.051 C 
HETATM    4  C   UNL     1      25.322  41.892  48.992  1.00  0.00    -0.008 A 
HETATM    5  C   UNL     1      25.767  42.057  50.293  1.00  0.00    -0.028 A 
HETATM    6  C   UNL     1      26.896  41.184  50.589  1.00  0.00     0.053 A 
HETATM    7  C   UNL     1      27.260  40.475  49.448  1.00  0.00     0.114 A 
HETATM    8  N   UNL     1      28.266  39.596  49.329  1.00  0.00    -0.234 NA
HETATM    9  C   UNL     1      28.936  39.437  50.465  1.00  0.00     0.236 A 
HETATM   10  N   UNL     1      28.691  40.030  51.640  1.00  0.00    -0.223 NA
HETATM   11  C   UNL     1      27.665  40.910  51.754  1.00  0.00     0.143 A 
HETATM   12  S   UNL     1      26.267  40.800  48.105  1.00  0.00    -0.073 SA
HETATM   13  C   UNL     1      25.072  43.009  51.227  1.00  0.00     0.041 C 
HETATM   14  C   UNL     1      24.092  43.948  50.504  1.00  0.00     0.009 C 
ENDROOT
BRANCH  11  15
HETATM   15  N   UNL     1      27.403  41.525  52.988  1.00  0.00    -0.340 N 
HETATM   16  H   UNL     1      26.675  41.077  53.518  1.00  0.00     0.167 HD
BRANCH  15  17
HETATM   17  C   UNL     1      28.056  42.547  53.704  1.00  0.00     0.036 A 
HETATM   18  C   UNL     1      27.304  43.676  54.079  1.00  0.00     0.069 A 
HETATM   19  C   UNL     1      27.929  44.701  54.762  1.00  0.00     0.107 A 
HETATM   20  C   UNL     1      29.263  44.653  55.075  1.00  0.00     0.105 A 
HETATM   21  O   UNL     1      27.333  45.845  55.196  1.00  0.00    -0.323 OA
HETATM   22  O   UNL     1      29.681  45.757  55.749  1.00  0.00    -0.323 OA
HETATM   23  C   UNL     1      30.044  43.579  54.718  1.00  0.00     0.042 A 
HETATM   24  C   UNL     1      28.452  46.509  55.822  1.00  0.00     0.352 A 
HETATM   25  C   UNL     1      29.431  42.527  54.022  1.00  0.00     0.032 A 
ENDBRANCH  15  17
ENDBRANCH  11  15
TORSDOF 2
ENDMDL
MODEL 10
REMARK VINA RESULT:      -7.8      5.333      8.757
REMARK  2 active torsions:
REMARK  status: ('A' for Active; 'I' for Inactive)
REMARK    1  A    between atoms: C_11  and  N_12 
REMARK    2  A    between atoms: N_12  and  C_13 
ROOT
HETATM    1  C   UNL     1      21.210  51.266  48.624  1.00  0.00     0.010 C 
HETATM    2  C   UNL     1      21.677  49.864  49.010  1.00  0.00    -0.014 C 
HETATM    3  C   UNL     1      20.874  48.795  48.243  1.00  0.00     0.051 C 
HETATM    4  C   UNL     1      21.494  47.442  48.431  1.00  0.00    -0.008 A 
HETATM    5  C   UNL     1      22.781  47.194  48.877  1.00  0.00    -0.028 A 
HETATM    6  C   UNL     1      23.046  45.766  48.986  1.00  0.00     0.053 A 
HETATM    7  C   UNL     1      21.944  45.043  48.539  1.00  0.00     0.114 A 
HETATM    8  N   UNL     1      21.826  43.709  48.467  1.00  0.00    -0.234 NA
HETATM    9  C   UNL     1      22.918  43.081  48.891  1.00  0.00     0.236 A 
HETATM   10  N   UNL     1      24.039  43.637  49.365  1.00  0.00    -0.223 NA
HETATM   11  C   UNL     1      24.145  44.987  49.443  1.00  0.00     0.143 A 
HETATM   12  S   UNL     1      20.639  46.026  48.062  1.00  0.00    -0.073 SA
HETATM   13  C   UNL     1      23.703  48.329  49.228  1.00  0.00     0.041 C 
HETATM   14  C   UNL     1      23.185  49.694  48.745  1.00  0.00     0.009 C 
ENDROOT
BRANCH  11  15
HETATM   15  N   UNL     1      25.318  45.570  49.949  1.00  0.00    -0.340 N 
HETATM   16  H   UNL     1      25.848  46.076  49.262  1.00  0.00     0.167 HD
BRANCH  15  17
HETATM   17  C   UNL     1      25.823  45.721  51.255  1.00  0.00     0.036 A 
HETATM   18  C   UNL     1      25.460  46.874  51.975  1.00  0.00     0.069 A 
HETATM   19  C   UNL     1      25.961  47.055  53.249  1.00  0.00     0.107 A 
HETATM   20  C   UNL     1      26.809  46.146  53.828  1.00  0.00     0.105 A 
HETATM   21  O   UNL     1      25.694  48.110  54.066  1.00  0.00    -0.323 OA
HETATM   22  O   UNL     1      27.185  46.508  55.083  1.00  0.00    -0.323 OA
HETATM   23  C   UNL     1      27.206  45.012  53.160  1.00  0.00     0.042 A 
HETATM   24  C   UNL     1      26.474  47.754  55.228  1.00  0.00     0.352 A 
HETATM   25  C   UNL     1      26.710  44.808  51.864  1.00  0.00     0.032 A 
ENDBRANCH  15  17
ENDBRANCH  11  15
TORSDOF 2
ENDMDL
