MODEL 1
REMARK VINA RESULT:      -8.8      0.000      0.000
REMARK  9 active torsions:
REMARK  status: ('A' for Active; 'I' for Inactive)
REMARK    1  A    between atoms: O_2  and  C_3 
REMARK    2  A    between atoms: C_5  and  O_6 
REMARK    3  A    between atoms: C_8  and  N_9 
REMARK    4  A    between atoms: C_10  and  C_12 
REMARK    5  A    between atoms: C_10  and  O_11 
REMARK       I    between atoms: C_12  and  N_13 
REMARK    6  A    between atoms: N_13  and  C_14 
REMARK    7  A    between atoms: C_14  and  C_15 
REMARK    8  A    between atoms: C_15  and  N_16 
REMARK    9  A    between atoms: N_20  and  C_21 
ROOT
HETATM    1  N   UNL     1      25.803  43.831  50.533  1.00  0.00    -0.251 N 
HETATM    2  C   UNL     1      24.750  43.808  49.513  1.00  0.00     0.256 C 
HETATM    3  C   UNL     1      24.650  42.456  48.819  1.00  0.00     0.034 A 
HETATM    4  C   UNL     1      25.792  41.657  48.782  1.00  0.00     0.048 A 
HETATM    5  N   UNL     1      26.923  42.065  49.479  1.00  0.00    -0.308 N 
HETATM    6  C   UNL     1      26.963  43.088  50.377  1.00  0.00     0.330 C 
HETATM    7  O   UNL     1      28.009  43.288  50.993  1.00  0.00    -0.246 OA
HETATM    8  C   UNL     1      23.511  42.007  48.126  1.00  0.00     0.015 A 
HETATM    9  C   UNL     1      23.528  40.800  47.421  1.00  0.00     0.001 A 
HETATM   10  C   UNL     1      24.685  40.030  47.387  1.00  0.00     0.002 A 
HETATM   11  C   UNL     1      25.823  40.458  48.068  1.00  0.00     0.030 A 
HETATM   12  H   UNL     1      27.762  41.496  49.457  1.00  0.00     0.170 HD
ENDROOT
BRANCH   2  13
HETATM   13  C   UNL     1      23.303  44.263  50.043  1.00  0.00     0.279 C 
HETATM   14  N   UNL     1      22.719  45.453  49.680  1.00  0.00    -0.355 N 
HETATM   15  H   UNL     1      21.898  45.634  50.250  1.00  0.00     0.162 HD
HETATM   16  O   UNL     1      22.601  43.568  50.789  1.00  0.00    -0.268 OA
BRANCH  14  17
HETATM   17  C   UNL     1      23.107  46.450  48.699  1.00  0.00     0.150 C 
BRANCH  17  18
HETATM   18  C   UNL     1      21.975  47.398  48.238  1.00  0.00     0.254 C 
BRANCH  18  19
HETATM   19  N   UNL     1      21.275  48.148  49.373  1.00  0.00    -0.067 N 
HETATM   20  H   UNL     1      21.681  47.861  50.271  1.00  0.00     0.280 HD
HETATM   21  C   UNL     1      21.553  49.661  49.207  1.00  0.00     0.254 C 
HETATM   22  C   UNL     1      20.750  50.517  50.211  1.00  0.00     0.150 C 
HETATM   23  N   UNL     1      19.311  50.203  50.133  1.00  0.00    -0.378 N 
HETATM   24  C   UNL     1      19.056  48.785  50.461  1.00  0.00     0.150 C 
HETATM   25  C   UNL     1      19.763  47.869  49.440  1.00  0.00     0.254 C 
BRANCH  23  26
HETATM   26  C   UNL     1      18.519  50.781  49.127  1.00  0.00     0.030 A 
HETATM   27  C   UNL     1      18.956  51.844  48.318  1.00  0.00     0.029 A 
HETATM   28  C   UNL     1      18.155  52.388  47.302  1.00  0.00     0.002 A 
HETATM   29  C   UNL     1      16.877  51.897  47.079  1.00  0.00     0.000 A 
HETATM   30  C   UNL     1      16.392  50.883  47.890  1.00  0.00     0.002 A 
HETATM   31  C   UNL     1      17.198  50.346  48.903  1.00  0.00     0.029 A 
ENDBRANCH  23  26
ENDBRANCH  18  19
ENDBRANCH  17  18
ENDBRANCH  14  17
ENDBRANCH   2  13
BRANCH   2  32
HETATM   32  O   UNL     1      25.208  44.687  48.476  1.00  0.00    -0.359 OA
HETATM   33  H   UNL     1      25.933  44.182  48.068  1.00  0.00     0.213 HD
ENDBRANCH   2  32
BRANCH   1  34
HETATM   34  C   UNL     1      25.809  44.865  51.519  1.00  0.00     0.076 A 
HETATM   35  C   UNL     1      26.200  46.172  51.167  1.00  0.00     0.098 A 
HETATM   36  C   UNL     1      26.118  47.193  52.117  1.00  0.00     0.075 A 
HETATM   37  C   UNL     1      25.601  46.924  53.385  1.00  0.00     0.070 A 
HETATM   38  C   UNL     1      25.212  45.636  53.740  1.00  0.00     0.039 A 
HETATM   39  C   UNL     1      25.303  44.607  52.802  1.00  0.00     0.035 A 
BRANCH  35  40
HETATM   40  O   UNL     1      26.580  46.354  49.864  1.00  0.00    -0.354 OA
HETATM   41  C   UNL     1      26.890  47.677  49.443  1.00  0.00     0.210 C 
ENDBRANCH  35  40
BRANCH  37  42
HETATM   42  O   UNL     1      25.518  47.969  54.264  1.00  0.00    -0.356 OA
HETATM   43  C   UNL     1      26.603  47.950  55.196  1.00  0.00     0.210 C 
ENDBRANCH  37  42
ENDBRANCH   1  34
TORSDOF 9
ENDMDL
MODEL 2
REMARK VINA RESULT:      -8.6      3.453      8.854
REMARK  9 active torsions:
REMARK  status: ('A' for Active; 'I' for Inactive)
REMARK    1  A    between atoms: O_2  and  C_3 
REMARK    2  A    between atoms: C_5  and  O_6 
REMARK    3  A    between atoms: C_8  and  N_9 
REMARK    4  A    between atoms: C_10  and  C_12 
REMARK    5  A    between atoms: C_10  and  O_11 
REMARK       I    between atoms: C_12  and  N_13 
REMARK    6  A    between atoms: N_13  and  C_14 
REMARK    7  A    between atoms: C_14  and  C_15 
REMARK    8  A    between atoms: C_15  and  N_16 
REMARK    9  A    between atoms: N_20  and  C_21 
ROOT
HETATM    1  N   UNL     1      19.495  46.515  48.125  1.00  0.00    -0.251 N 
HETATM    2  C   UNL     1      20.864  45.991  48.172  1.00  0.00     0.256 C 
HETATM    3  C   UNL     1      21.086  44.865  47.172  1.00  0.00     0.034 A 
HETATM    4  C   UNL     1      19.977  44.119  46.776  1.00  0.00     0.048 A 
HETATM    5  N   UNL     1      18.713  44.506  47.207  1.00  0.00    -0.308 N 
HETATM    6  C   UNL     1      18.425  45.685  47.826  1.00  0.00     0.330 C 
HETATM    7  O   UNL     1      17.249  45.945  48.075  1.00  0.00    -0.246 OA
HETATM    8  C   UNL     1      22.349  44.464  46.700  1.00  0.00     0.015 A 
HETATM    9  C   UNL     1      22.486  43.352  45.865  1.00  0.00     0.001 A 
HETATM   10  C   UNL     1      21.364  42.615  45.498  1.00  0.00     0.002 A 
HETATM   11  C   UNL     1      20.105  42.997  45.955  1.00  0.00     0.030 A 
HETATM   12  H   UNL     1      17.899  43.970  46.931  1.00  0.00     0.170 HD
ENDROOT
BRANCH   2  13
HETATM   13  C   UNL     1      22.007  47.108  48.005  1.00  0.00     0.279 C 
HETATM   14  N   UNL     1      23.185  47.079  48.714  1.00  0.00    -0.355 N 
HETATM   15  H   UNL     1      23.690  47.952  48.600  1.00  0.00     0.162 HD
HETATM   16  O   UNL     1      21.926  48.053  47.211  1.00  0.00    -0.268 OA
BRANCH  14  17
HETATM   17  C   UNL     1      23.751  46.068  49.589  1.00  0.00     0.150 C 
BRANCH  17  18
HETATM   18  C   UNL     1      25.055  46.477  50.313  1.00  0.00     0.254 C 
BRANCH  18  19
HETATM   19  N   UNL     1      25.019  46.298  51.833  1.00  0.00    -0.067 N 
HETATM   20  H   UNL     1      24.171  46.740  52.207  1.00  0.00     0.280 HD
HETATM   21  C   UNL     1      24.925  44.786  52.147  1.00  0.00     0.254 C 
HETATM   22  C   UNL     1      25.051  44.494  53.659  1.00  0.00     0.150 C 
HETATM   23  N   UNL     1      26.276  45.103  54.209  1.00  0.00    -0.378 N 
HETATM   24  C   UNL     1      26.264  46.571  54.043  1.00  0.00     0.150 C 
HETATM   25  C   UNL     1      26.225  46.936  52.544  1.00  0.00     0.254 C 
BRANCH  23  26
HETATM   26  C   UNL     1      27.513  44.451  54.060  1.00  0.00     0.030 A 
HETATM   27  C   UNL     1      27.770  43.507  53.051  1.00  0.00     0.029 A 
HETATM   28  C   UNL     1      29.021  42.890  52.907  1.00  0.00     0.002 A 
HETATM   29  C   UNL     1      30.052  43.181  53.788  1.00  0.00     0.000 A 
HETATM   30  C   UNL     1      29.821  44.069  54.827  1.00  0.00     0.002 A 
HETATM   31  C   UNL     1      28.568  44.681  54.964  1.00  0.00     0.029 A 
ENDBRANCH  23  26
ENDBRANCH  18  19
ENDBRANCH  17  18
ENDBRANCH  14  17
ENDBRANCH   2  13
BRANCH   2  32
HETATM   32  O   UNL     1      20.977  45.340  49.445  1.00  0.00    -0.359 OA
HETATM   33  H   UNL     1      20.089  44.960  49.573  1.00  0.00     0.213 HD
ENDBRANCH   2  32
BRANCH   1  34
HETATM   34  C   UNL     1      19.203  47.783  48.713  1.00  0.00     0.076 A 
HETATM   35  C   UNL     1      18.819  48.866  47.898  1.00  0.00     0.098 A 
HETATM   36  C   UNL     1      18.452  50.076  48.492  1.00  0.00     0.075 A 
HETATM   37  C   UNL     1      18.415  50.187  49.882  1.00  0.00     0.070 A 
HETATM   38  C   UNL     1      18.793  49.121  50.694  1.00  0.00     0.039 A 
HETATM   39  C   UNL     1      19.174  47.913  50.110  1.00  0.00     0.035 A 
BRANCH  35  40
HETATM   40  O   UNL     1      18.774  48.617  46.553  1.00  0.00    -0.354 OA
HETATM   41  C   UNL     1      18.590  49.725  45.679  1.00  0.00     0.210 C 
ENDBRANCH  35  40
BRANCH  37  42
HETATM   42  O   UNL     1      18.020  51.387  50.408  1.00  0.00    -0.356 OA
HETATM   43  C   UNL     1      17.890  52.382  49.388  1.00  0.00     0.210 C 
ENDBRANCH  37  42
ENDBRANCH   1  34
TORSDOF 9
ENDMDL
MODEL 3
REMARK VINA RESULT:      -8.5      4.073      9.363
REMARK  9 active torsions:
REMARK  status: ('A' for Active; 'I' for Inactive)
REMARK    1  A    between atoms: O_2  and  C_3 
REMARK    2  A    between atoms: C_5  and  O_6 
REMARK    3  A    between atoms: C_8  and  N_9 
REMARK    4  A    between atoms: C_10  and  C_12 
REMARK    5  A    between atoms: C_10  and  O_11 
REMARK       I    between atoms: C_12  and  N_13 
REMARK    6  A    between atoms: N_13  and  C_14 
REMARK    7  A    between atoms: C_14  and  C_15 
REMARK    8  A    between atoms: C_15  and  N_16 
REMARK    9  A    between atoms: N_20  and  C_21 
ROOT
HETATM    1  N   UNL     1      25.738  43.919  52.207  1.00  0.00    -0.251 N 
HETATM    2  C   UNL     1      27.083  44.026  51.632  1.00  0.00     0.256 C 
HETATM    3  C   UNL     1      28.166  43.602  52.615  1.00  0.00     0.034 A 
HETATM    4  C   UNL     1      27.887  43.710  53.976  1.00  0.00     0.048 A 
HETATM    5  N   UNL     1      26.607  44.076  54.377  1.00  0.00    -0.308 N 
HETATM    6  C   UNL     1      25.521  44.146  53.557  1.00  0.00     0.330 C 
HETATM    7  O   UNL     1      24.425  44.395  54.057  1.00  0.00    -0.246 OA
HETATM    8  C   UNL     1      29.462  43.206  52.239  1.00  0.00     0.015 A 
HETATM    9  C   UNL     1      30.438  42.933  53.202  1.00  0.00     0.001 A 
HETATM   10  C   UNL     1      30.138  43.064  54.554  1.00  0.00     0.002 A 
HETATM   11  C   UNL     1      28.860  43.456  54.945  1.00  0.00     0.030 A 
HETATM   12  H   UNL     1      26.392  44.163  55.363  1.00  0.00     0.170 HD
ENDROOT
BRANCH   2  13
HETATM   13  C   UNL     1      27.271  43.250  50.238  1.00  0.00     0.279 C 
HETATM   14  N   UNL     1      27.425  41.886  50.161  1.00  0.00    -0.355 N 
HETATM   15  H   UNL     1      27.702  41.612  49.223  1.00  0.00     0.162 HD
HETATM   16  O   UNL     1      27.262  43.815  49.137  1.00  0.00    -0.268 OA
BRANCH  14  17
HETATM   17  C   UNL     1      27.307  40.850  51.172  1.00  0.00     0.150 C 
BRANCH  17  18
HETATM   18  C   UNL     1      28.468  39.830  51.208  1.00  0.00     0.254 C 
BRANCH  18  19
HETATM   19  N   UNL     1      28.342  38.690  50.194  1.00  0.00    -0.067 N 
HETATM   20  H   UNL     1      28.592  37.803  50.647  1.00  0.00     0.280 HD
HETATM   21  C   UNL     1      26.861  38.581  49.759  1.00  0.00     0.254 C 
HETATM   22  C   UNL     1      26.661  37.567  48.612  1.00  0.00     0.150 C 
HETATM   23  N   UNL     1      27.553  37.877  47.479  1.00  0.00    -0.378 N 
HETATM   24  C   UNL     1      28.973  37.811  47.883  1.00  0.00     0.150 C 
HETATM   25  C   UNL     1      29.264  38.863  48.974  1.00  0.00     0.254 C 
BRANCH  23  26
HETATM   26  C   UNL     1      27.195  38.875  46.555  1.00  0.00     0.030 A 
HETATM   27  C   UNL     1      25.917  39.457  46.505  1.00  0.00     0.029 A 
HETATM   28  C   UNL     1      25.592  40.469  45.591  1.00  0.00     0.002 A 
HETATM   29  C   UNL     1      26.535  40.916  44.676  1.00  0.00     0.000 A 
HETATM   30  C   UNL     1      27.791  40.331  44.661  1.00  0.00     0.002 A 
HETATM   31  C   UNL     1      28.107  39.319  45.578  1.00  0.00     0.029 A 
ENDBRANCH  23  26
ENDBRANCH  18  19
ENDBRANCH  17  18
ENDBRANCH  14  17
ENDBRANCH   2  13
BRANCH   2  32
HETATM   32  O   UNL     1      27.312  45.432  51.463  1.00  0.00    -0.359 OA
HETATM   33  H   UNL     1      27.663  45.487  50.556  1.00  0.00     0.213 HD
ENDBRANCH   2  32
BRANCH   1  34
HETATM   34  C   UNL     1      24.599  43.922  51.345  1.00  0.00     0.076 A 
HETATM   35  C   UNL     1      24.116  45.138  50.820  1.00  0.00     0.098 A 
HETATM   36  C   UNL     1      23.057  45.120  49.910  1.00  0.00     0.075 A 
HETATM   37  C   UNL     1      22.523  43.902  49.487  1.00  0.00     0.070 A 
HETATM   38  C   UNL     1      22.995  42.697  50.001  1.00  0.00     0.039 A 
HETATM   39  C   UNL     1      24.043  42.706  50.920  1.00  0.00     0.035 A 
BRANCH  35  40
HETATM   40  O   UNL     1      24.787  46.267  51.208  1.00  0.00    -0.354 OA
HETATM   41  C   UNL     1      24.699  47.411  50.367  1.00  0.00     0.210 C 
ENDBRANCH  35  40
BRANCH  37  42
HETATM   42  O   UNL     1      21.506  43.945  48.573  1.00  0.00    -0.356 OA
HETATM   43  C   UNL     1      20.722  45.132  48.724  1.00  0.00     0.210 C 
ENDBRANCH  37  42
ENDBRANCH   1  34
TORSDOF 9
ENDMDL
MODEL 4
REMARK VINA RESULT:      -8.5     10.276     12.791
REMARK  9 active torsions:
REMARK  status: ('A' for Active; 'I' for Inactive)
REMARK    1  A    between atoms: O_2  and  C_3 
REMARK    2  A    between atoms: C_5  and  O_6 
REMARK    3  A    between atoms: C_8  and  N_9 
REMARK    4  A    between atoms: C_10  and  C_12 
REMARK    5  A    between atoms: C_10  and  O_11 
REMARK       I    between atoms: C_12  and  N_13 
REMARK    6  A    between atoms: N_13  and  C_14 
REMARK    7  A    between atoms: C_14  and  C_15 
REMARK    8  A    between atoms: C_15  and  N_16 
REMARK    9  A    between atoms: N_20  and  C_21 
ROOT
HETATM    1  N   UNL     1      28.711  50.261  40.498  1.00  0.00    -0.251 N 
HETATM    2  C   UNL     1      28.606  49.004  39.750  1.00  0.00     0.256 C 
HETATM    3  C   UNL     1      27.363  48.960  38.870  1.00  0.00     0.034 A 
HETATM    4  C   UNL     1      26.271  49.740  39.247  1.00  0.00     0.048 A 
HETATM    5  N   UNL     1      26.401  50.609  40.323  1.00  0.00    -0.308 N 
HETATM    6  C   UNL     1      27.577  50.928  40.934  1.00  0.00     0.330 C 
HETATM    7  O   UNL     1      27.565  51.783  41.818  1.00  0.00    -0.246 OA
HETATM    8  C   UNL     1      27.211  48.107  37.762  1.00  0.00     0.015 A 
HETATM    9  C   UNL     1      26.002  48.044  37.064  1.00  0.00     0.001 A 
HETATM   10  C   UNL     1      24.922  48.821  37.471  1.00  0.00     0.002 A 
HETATM   11  C   UNL     1      25.054  49.671  38.566  1.00  0.00     0.030 A 
HETATM   12  H   UNL     1      25.614  51.179  40.611  1.00  0.00     0.170 HD
ENDROOT
BRANCH   2  13
HETATM   13  C   UNL     1      29.908  48.637  38.883  1.00  0.00     0.279 C 
HETATM   14  N   UNL     1      30.396  47.356  38.781  1.00  0.00    -0.355 N 
HETATM   15  H   UNL     1      31.311  47.359  38.340  1.00  0.00     0.162 HD
HETATM   16  O   UNL     1      30.545  49.469  38.225  1.00  0.00    -0.268 OA
BRANCH  14  17
HETATM   17  C   UNL     1      29.853  46.086  39.228  1.00  0.00     0.150 C 
BRANCH  17  18
HETATM   18  C   UNL     1      29.446  45.109  38.101  1.00  0.00     0.254 C 
BRANCH  18  19
HETATM   19  N   UNL     1      28.317  44.145  38.474  1.00  0.00    -0.067 N 
HETATM   20  H   UNL     1      28.626  43.180  38.309  1.00  0.00     0.280 HD
HETATM   21  C   UNL     1      28.034  44.284  39.989  1.00  0.00     0.254 C 
HETATM   22  C   UNL     1      26.796  43.471  40.429  1.00  0.00     0.150 C 
HETATM   23  N   UNL     1      25.622  43.821  39.608  1.00  0.00    -0.378 N 
HETATM   24  C   UNL     1      25.860  43.522  38.181  1.00  0.00     0.150 C 
HETATM   25  C   UNL     1      27.036  44.368  37.650  1.00  0.00     0.254 C 
BRANCH  23  26
HETATM   26  C   UNL     1      24.873  44.973  39.906  1.00  0.00     0.030 A 
HETATM   27  C   UNL     1      25.253  45.906  40.885  1.00  0.00     0.029 A 
HETATM   28  C   UNL     1      24.503  47.063  41.146  1.00  0.00     0.002 A 
HETATM   29  C   UNL     1      23.330  47.309  40.448  1.00  0.00     0.000 A 
HETATM   30  C   UNL     1      22.896  46.385  39.509  1.00  0.00     0.002 A 
HETATM   31  C   UNL     1      23.652  45.233  39.256  1.00  0.00     0.029 A 
ENDBRANCH  23  26
ENDBRANCH  18  19
ENDBRANCH  17  18
ENDBRANCH  14  17
ENDBRANCH   2  13
BRANCH   2  32
HETATM   32  O   UNL     1      28.356  47.995  40.739  1.00  0.00    -0.359 OA
HETATM   33  H   UNL     1      28.695  48.403  41.555  1.00  0.00     0.213 HD
ENDBRANCH   2  32
BRANCH   1  34
HETATM   34  C   UNL     1      29.961  50.633  41.082  1.00  0.00     0.076 A 
HETATM   35  C   UNL     1      30.626  51.794  40.642  1.00  0.00     0.098 A 
HETATM   36  C   UNL     1      31.803  52.195  41.279  1.00  0.00     0.075 A 
HETATM   37  C   UNL     1      32.279  51.477  42.377  1.00  0.00     0.070 A 
HETATM   38  C   UNL     1      31.627  50.329  42.818  1.00  0.00     0.039 A 
HETATM   39  C   UNL     1      30.459  49.914  42.179  1.00  0.00     0.035 A 
BRANCH  35  40
HETATM   40  O   UNL     1      30.013  52.492  39.636  1.00  0.00    -0.354 OA
HETATM   41  C   UNL     1      29.580  53.817  39.918  1.00  0.00     0.210 C 
ENDBRANCH  35  40
BRANCH  37  42
HETATM   42  O   UNL     1      33.420  51.933  42.980  1.00  0.00    -0.356 OA
HETATM   43  C   UNL     1      33.296  51.920  44.405  1.00  0.00     0.210 C 
ENDBRANCH  37  42
ENDBRANCH   1  34
TORSDOF 9
ENDMDL
MODEL 5
REMARK VINA RESULT:      -8.3      2.440      5.455
REMARK  9 active torsions:
REMARK  status: ('A' for Active; 'I' for Inactive)
REMARK    1  A    between atoms: O_2  and  C_3 
REMARK    2  A    between atoms: C_5  and  O_6 
REMARK    3  A    between atoms: C_8  and  N_9 
REMARK    4  A    between atoms: C_10  and  C_12 
REMARK    5  A    between atoms: C_10  and  O_11 
REMARK       I    between atoms: C_12  and  N_13 
REMARK    6  A    between atoms: N_13  and  C_14 
REMARK    7  A    between atoms: C_14  and  C_15 
REMARK    8  A    between atoms: C_15  and  N_16 
REMARK    9  A    between atoms: N_20  and  C_21 
ROOT
HETATM    1  N   UNL     1      26.045  41.765  50.206  1.00  0.00    -0.251 N 
HETATM    2  C   UNL     1      25.900  43.091  50.814  1.00  0.00     0.256 C 
HETATM    3  C   UNL     1      26.844  43.292  51.992  1.00  0.00     0.034 A 
HETATM    4  C   UNL     1      27.274  42.158  52.681  1.00  0.00     0.048 A 
HETATM    5  N   UNL     1      26.931  40.902  52.195  1.00  0.00    -0.308 N 
HETATM    6  C   UNL     1      26.373  40.660  50.976  1.00  0.00     0.330 C 
HETATM    7  O   UNL     1      26.202  39.492  50.631  1.00  0.00    -0.246 OA
HETATM    8  C   UNL     1      27.227  44.549  52.492  1.00  0.00     0.015 A 
HETATM    9  C   UNL     1      28.011  44.657  53.644  1.00  0.00     0.001 A 
HETATM   10  C   UNL     1      28.414  43.511  54.321  1.00  0.00     0.002 A 
HETATM   11  C   UNL     1      28.044  42.257  53.841  1.00  0.00     0.030 A 
HETATM   12  H   UNL     1      27.233  40.070  52.688  1.00  0.00     0.170 HD
ENDROOT
BRANCH   2  13
HETATM   13  C   UNL     1      26.042  44.313  49.781  1.00  0.00     0.279 C 
HETATM   14  N   UNL     1      24.957  44.926  49.200  1.00  0.00    -0.355 N 
HETATM   15  H   UNL     1      25.257  45.548  48.455  1.00  0.00     0.162 HD
HETATM   16  O   UNL     1      27.128  44.809  49.457  1.00  0.00    -0.268 OA
BRANCH  14  17
HETATM   17  C   UNL     1      23.533  44.785  49.445  1.00  0.00     0.150 C 
BRANCH  17  18
HETATM   18  C   UNL     1      22.615  45.511  48.434  1.00  0.00     0.254 C 
BRANCH  18  19
HETATM   19  N   UNL     1      21.665  46.534  49.062  1.00  0.00    -0.067 N 
HETATM   20  H   UNL     1      21.774  46.517  50.083  1.00  0.00     0.280 HD
HETATM   21  C   UNL     1      22.075  47.946  48.580  1.00  0.00     0.254 C 
HETATM   22  C   UNL     1      21.072  49.031  49.029  1.00  0.00     0.150 C 
HETATM   23  N   UNL     1      19.701  48.678  48.616  1.00  0.00    -0.378 N 
HETATM   24  C   UNL     1      19.271  47.403  49.227  1.00  0.00     0.150 C 
HETATM   25  C   UNL     1      20.184  46.253  48.751  1.00  0.00     0.254 C 
BRANCH  23  26
HETATM   26  C   UNL     1      19.273  48.937  47.303  1.00  0.00     0.030 A 
HETATM   27  C   UNL     1      18.989  47.924  46.371  1.00  0.00     0.029 A 
HETATM   28  C   UNL     1      18.538  48.207  45.073  1.00  0.00     0.002 A 
HETATM   29  C   UNL     1      18.380  49.522  44.658  1.00  0.00     0.000 A 
HETATM   30  C   UNL     1      18.698  50.549  45.533  1.00  0.00     0.002 A 
HETATM   31  C   UNL     1      19.149  50.256  46.827  1.00  0.00     0.029 A 
ENDBRANCH  23  26
ENDBRANCH  18  19
ENDBRANCH  17  18
ENDBRANCH  14  17
ENDBRANCH   2  13
BRANCH   2  32
HETATM   32  O   UNL     1      24.599  43.090  51.420  1.00  0.00    -0.359 OA
HETATM   33  H   UNL     1      24.132  43.789  50.929  1.00  0.00     0.213 HD
ENDBRANCH   2  32
BRANCH   1  34
HETATM   34  C   UNL     1      25.521  41.526  48.898  1.00  0.00     0.076 A 
HETATM   35  C   UNL     1      26.396  41.414  47.799  1.00  0.00     0.098 A 
HETATM   36  C   UNL     1      25.879  41.094  46.541  1.00  0.00     0.075 A 
HETATM   37  C   UNL     1      24.516  40.835  46.393  1.00  0.00     0.070 A 
HETATM   38  C   UNL     1      23.647  40.943  47.475  1.00  0.00     0.039 A 
HETATM   39  C   UNL     1      24.151  41.275  48.731  1.00  0.00     0.035 A 
BRANCH  35  40
HETATM   40  O   UNL     1      27.727  41.570  48.074  1.00  0.00    -0.354 OA
HETATM   41  C   UNL     1      28.566  40.427  47.959  1.00  0.00     0.210 C 
ENDBRANCH  35  40
BRANCH  37  42
HETATM   42  O   UNL     1      24.072  40.499  45.143  1.00  0.00    -0.356 OA
HETATM   43  C   UNL     1      22.661  40.702  45.021  1.00  0.00     0.210 C 
ENDBRANCH  37  42
ENDBRANCH   1  34
TORSDOF 9
ENDMDL
MODEL 6
REMARK VINA RESULT:      -8.2     10.856     13.778
REMARK  9 active torsions:
REMARK  status: ('A' for Active; 'I' for Inactive)
REMARK    1  A    between atoms: O_2  and  C_3 
REMARK    2  A    between atoms: C_5  and  O_6 
REMARK    3  A    between atoms: C_8  and  N_9 
REMARK    4  A    between atoms: C_10  and  C_12 
REMARK    5  A    between atoms: C_10  and  O_11 
REMARK       I    between atoms: C_12  and  N_13 
REMARK    6  A    between atoms: N_13  and  C_14 
REMARK    7  A    between atoms: C_14  and  C_15 
REMARK    8  A    between atoms: C_15  and  N_16 
REMARK    9  A    between atoms: N_20  and  C_21 
ROOT
HETATM    1  N   UNL     1      27.553  46.645  38.659  1.00  0.00    -0.251 N 
HETATM    2  C   UNL     1      27.518  46.866  40.109  1.00  0.00     0.256 C 
HETATM    3  C   UNL     1      28.791  47.526  40.623  1.00  0.00     0.034 A 
HETATM    4  C   UNL     1      29.961  47.342  39.888  1.00  0.00     0.048 A 
HETATM    5  N   UNL     1      29.896  46.679  38.668  1.00  0.00    -0.308 N 
HETATM    6  C   UNL     1      28.745  46.362  38.011  1.00  0.00     0.330 C 
HETATM    7  O   UNL     1      28.829  45.855  36.893  1.00  0.00    -0.246 OA
HETATM    8  C   UNL     1      28.883  48.221  41.841  1.00  0.00     0.015 A 
HETATM    9  C   UNL     1      30.109  48.709  42.300  1.00  0.00     0.001 A 
HETATM   10  C   UNL     1      31.265  48.498  41.556  1.00  0.00     0.002 A 
HETATM   11  C   UNL     1      31.194  47.811  40.346  1.00  0.00     0.030 A 
HETATM   12  H   UNL     1      30.739  46.534  38.126  1.00  0.00     0.170 HD
ENDROOT
BRANCH   2  13
HETATM   13  C   UNL     1      26.231  47.677  40.625  1.00  0.00     0.279 C 
HETATM   14  N   UNL     1      26.064  49.024  40.405  1.00  0.00    -0.355 N 
HETATM   15  H   UNL     1      25.286  49.379  40.953  1.00  0.00     0.162 HD
HETATM   16  O   UNL     1      25.289  47.148  41.227  1.00  0.00    -0.268 OA
BRANCH  14  17
HETATM   17  C   UNL     1      26.820  49.964  39.597  1.00  0.00     0.150 C 
BRANCH  17  18
HETATM   18  C   UNL     1      27.196  51.288  40.303  1.00  0.00     0.254 C 
BRANCH  18  19
HETATM   19  N   UNL     1      28.424  51.991  39.720  1.00  0.00    -0.067 N 
HETATM   20  H   UNL     1      28.163  52.457  38.843  1.00  0.00     0.280 HD
HETATM   21  C   UNL     1      28.874  53.093  40.708  1.00  0.00     0.254 C 
HETATM   22  C   UNL     1      30.207  53.748  40.285  1.00  0.00     0.150 C 
HETATM   23  N   UNL     1      31.250  52.726  40.077  1.00  0.00    -0.378 N 
HETATM   24  C   UNL     1      30.865  51.782  39.008  1.00  0.00     0.150 C 
HETATM   25  C   UNL     1      29.580  51.025  39.405  1.00  0.00     0.254 C 
BRANCH  23  26
HETATM   26  C   UNL     1      31.948  52.200  41.177  1.00  0.00     0.030 A 
HETATM   27  C   UNL     1      31.462  52.250  42.494  1.00  0.00     0.029 A 
HETATM   28  C   UNL     1      32.166  51.694  43.573  1.00  0.00     0.002 A 
HETATM   29  C   UNL     1      33.398  51.089  43.368  1.00  0.00     0.000 A 
HETATM   30  C   UNL     1      33.934  51.066  42.089  1.00  0.00     0.002 A 
HETATM   31  C   UNL     1      33.223  51.624  41.019  1.00  0.00     0.029 A 
ENDBRANCH  23  26
ENDBRANCH  18  19
ENDBRANCH  17  18
ENDBRANCH  14  17
ENDBRANCH   2  13
BRANCH   2  32
HETATM   32  O   UNL     1      27.557  45.556  40.692  1.00  0.00    -0.359 OA
HETATM   33  H   UNL     1      26.626  45.274  40.653  1.00  0.00     0.213 HD
ENDBRANCH   2  32
BRANCH   1  34
HETATM   34  C   UNL     1      26.339  46.380  37.956  1.00  0.00     0.076 A 
HETATM   35  C   UNL     1      25.775  45.089  37.986  1.00  0.00     0.098 A 
HETATM   36  C   UNL     1      24.543  44.864  37.367  1.00  0.00     0.075 A 
HETATM   37  C   UNL     1      23.857  45.924  36.774  1.00  0.00     0.070 A 
HETATM   38  C   UNL     1      24.407  47.202  36.741  1.00  0.00     0.039 A 
HETATM   39  C   UNL     1      25.643  47.434  37.344  1.00  0.00     0.035 A 
BRANCH  35  40
HETATM   40  O   UNL     1      26.471  44.147  38.695  1.00  0.00    -0.354 OA
HETATM   41  C   UNL     1      26.938  43.001  37.993  1.00  0.00     0.210 C 
ENDBRANCH  35  40
BRANCH  37  42
HETATM   42  O   UNL     1      22.641  45.649  36.209  1.00  0.00    -0.356 OA
HETATM   43  C   UNL     1      21.843  46.831  36.095  1.00  0.00     0.210 C 
ENDBRANCH  37  42
ENDBRANCH   1  34
TORSDOF 9
ENDMDL
MODEL 7
REMARK VINA RESULT:      -8.2      2.557      5.849
REMARK  9 active torsions:
REMARK  status: ('A' for Active; 'I' for Inactive)
REMARK    1  A    between atoms: O_2  and  C_3 
REMARK    2  A    between atoms: C_5  and  O_6 
REMARK    3  A    between atoms: C_8  and  N_9 
REMARK    4  A    between atoms: C_10  and  C_12 
REMARK    5  A    between atoms: C_10  and  O_11 
REMARK       I    between atoms: C_12  and  N_13 
REMARK    6  A    between atoms: N_13  and  C_14 
REMARK    7  A    between atoms: C_14  and  C_15 
REMARK    8  A    between atoms: C_15  and  N_16 
REMARK    9  A    between atoms: N_20  and  C_21 
ROOT
HETATM    1  N   UNL     1      26.002  41.653  50.121  1.00  0.00    -0.251 N 
HETATM    2  C   UNL     1      25.785  42.976  50.716  1.00  0.00     0.256 C 
HETATM    3  C   UNL     1      26.699  43.230  51.908  1.00  0.00     0.034 A 
HETATM    4  C   UNL     1      27.170  42.123  52.613  1.00  0.00     0.048 A 
HETATM    5  N   UNL     1      26.894  40.848  52.132  1.00  0.00    -0.308 N 
HETATM    6  C   UNL     1      26.369  40.571  50.906  1.00  0.00     0.330 C 
HETATM    7  O   UNL     1      26.258  39.394  50.568  1.00  0.00    -0.246 OA
HETATM    8  C   UNL     1      27.014  44.507  52.404  1.00  0.00     0.015 A 
HETATM    9  C   UNL     1      27.773  44.660  53.567  1.00  0.00     0.001 A 
HETATM   10  C   UNL     1      28.217  43.539  54.261  1.00  0.00     0.002 A 
HETATM   11  C   UNL     1      27.914  42.266  53.785  1.00  0.00     0.030 A 
HETATM   12  H   UNL     1      27.226  40.035  52.637  1.00  0.00     0.170 HD
ENDROOT
BRANCH   2  13
HETATM   13  C   UNL     1      25.888  44.196  49.675  1.00  0.00     0.279 C 
HETATM   14  N   UNL     1      24.790  44.730  49.044  1.00  0.00    -0.355 N 
HETATM   15  H   UNL     1      25.078  45.364  48.305  1.00  0.00     0.162 HD
HETATM   16  O   UNL     1      26.952  44.760  49.389  1.00  0.00    -0.268 OA
BRANCH  14  17
HETATM   17  C   UNL     1      23.369  44.495  49.233  1.00  0.00     0.150 C 
BRANCH  17  18
HETATM   18  C   UNL     1      22.582  44.145  47.949  1.00  0.00     0.254 C 
BRANCH  18  19
HETATM   19  N   UNL     1      21.378  45.049  47.677  1.00  0.00    -0.067 N 
HETATM   20  H   UNL     1      20.608  44.485  47.300  1.00  0.00     0.280 HD
HETATM   21  C   UNL     1      20.895  45.643  49.022  1.00  0.00     0.254 C 
HETATM   22  C   UNL     1      19.786  46.700  48.830  1.00  0.00     0.150 C 
HETATM   23  N   UNL     1      20.217  47.745  47.882  1.00  0.00    -0.378 N 
HETATM   24  C   UNL     1      20.513  47.171  46.553  1.00  0.00     0.150 C 
HETATM   25  C   UNL     1      21.677  46.163  46.657  1.00  0.00     0.254 C 
BRANCH  23  26
HETATM   26  C   UNL     1      21.037  48.799  48.323  1.00  0.00     0.030 A 
HETATM   27  C   UNL     1      20.651  49.709  49.321  1.00  0.00     0.029 A 
HETATM   28  C   UNL     1      21.498  50.737  49.763  1.00  0.00     0.002 A 
HETATM   29  C   UNL     1      22.754  50.901  49.197  1.00  0.00     0.000 A 
HETATM   30  C   UNL     1      23.150  50.054  48.174  1.00  0.00     0.002 A 
HETATM   31  C   UNL     1      22.297  49.030  47.740  1.00  0.00     0.029 A 
ENDBRANCH  23  26
ENDBRANCH  18  19
ENDBRANCH  17  18
ENDBRANCH  14  17
ENDBRANCH   2  13
BRANCH   2  32
HETATM   32  O   UNL     1      24.476  42.919  51.299  1.00  0.00    -0.359 OA
HETATM   33  H   UNL     1      24.581  43.435  52.118  1.00  0.00     0.213 HD
ENDBRANCH   2  32
BRANCH   1  34
HETATM   34  C   UNL     1      25.513  41.381  48.807  1.00  0.00     0.076 A 
HETATM   35  C   UNL     1      26.407  41.335  47.718  1.00  0.00     0.098 A 
HETATM   36  C   UNL     1      25.930  40.982  46.454  1.00  0.00     0.075 A 
HETATM   37  C   UNL     1      24.591  40.625  46.289  1.00  0.00     0.070 A 
HETATM   38  C   UNL     1      23.703  40.667  47.360  1.00  0.00     0.039 A 
HETATM   39  C   UNL     1      24.166  41.032  48.623  1.00  0.00     0.035 A 
BRANCH  35  40
HETATM   40  O   UNL     1      27.720  41.587  48.010  1.00  0.00    -0.354 OA
HETATM   41  C   UNL     1      28.640  40.506  47.909  1.00  0.00     0.210 C 
ENDBRANCH  35  40
BRANCH  37  42
HETATM   42  O   UNL     1      24.188  40.260  45.033  1.00  0.00    -0.356 OA
HETATM   43  C   UNL     1      22.910  39.617  45.065  1.00  0.00     0.210 C 
ENDBRANCH  37  42
ENDBRANCH   1  34
TORSDOF 9
ENDMDL
MODEL 8
REMARK VINA RESULT:      -8.2      3.764      7.336
REMARK  9 active torsions:
REMARK  status: ('A' for Active; 'I' for Inactive)
REMARK    1  A    between atoms: O_2  and  C_3 
REMARK    2  A    between atoms: C_5  and  O_6 
REMARK    3  A    between atoms: C_8  and  N_9 
REMARK    4  A    between atoms: C_10  and  C_12 
REMARK    5  A    between atoms: C_10  and  O_11 
REMARK       I    between atoms: C_12  and  N_13 
REMARK    6  A    between atoms: N_13  and  C_14 
REMARK    7  A    between atoms: C_14  and  C_15 
REMARK    8  A    between atoms: C_15  and  N_16 
REMARK    9  A    between atoms: N_20  and  C_21 
ROOT
HETATM    1  N   UNL     1      27.990  40.526  49.769  1.00  0.00    -0.251 N 
HETATM    2  C   UNL     1      27.072  41.491  50.384  1.00  0.00     0.256 C 
HETATM    3  C   UNL     1      27.616  42.051  51.692  1.00  0.00     0.034 A 
HETATM    4  C   UNL     1      28.525  41.271  52.405  1.00  0.00     0.048 A 
HETATM    5  N   UNL     1      28.988  40.088  51.842  1.00  0.00    -0.308 N 
HETATM    6  C   UNL     1      28.790  39.707  50.549  1.00  0.00     0.330 C 
HETATM    7  O   UNL     1      29.331  38.675  50.153  1.00  0.00    -0.246 OA
HETATM    8  C   UNL     1      27.185  43.256  52.274  1.00  0.00     0.015 A 
HETATM    9  C   UNL     1      27.651  43.655  53.530  1.00  0.00     0.001 A 
HETATM   10  C   UNL     1      28.545  42.851  54.228  1.00  0.00     0.002 A 
HETATM   11  C   UNL     1      28.984  41.654  53.667  1.00  0.00     0.030 A 
HETATM   12  H   UNL     1      29.645  39.509  52.352  1.00  0.00     0.170 HD
ENDROOT
BRANCH   2  13
HETATM   13  C   UNL     1      26.624  42.691  49.415  1.00  0.00     0.279 C 
HETATM   14  N   UNL     1      25.508  42.624  48.615  1.00  0.00    -0.355 N 
HETATM   15  H   UNL     1      25.494  43.398  47.958  1.00  0.00     0.162 HD
HETATM   16  O   UNL     1      27.229  43.768  49.339  1.00  0.00    -0.268 OA
BRANCH  14  17
HETATM   17  C   UNL     1      24.439  41.643  48.542  1.00  0.00     0.150 C 
BRANCH  17  18
HETATM   18  C   UNL     1      23.485  41.796  47.335  1.00  0.00     0.254 C 
BRANCH  18  19
HETATM   19  N   UNL     1      22.531  42.989  47.428  1.00  0.00    -0.067 N 
HETATM   20  H   UNL     1      21.614  42.720  47.053  1.00  0.00     0.280 HD
HETATM   21  C   UNL     1      22.330  43.341  48.921  1.00  0.00     0.254 C 
HETATM   22  C   UNL     1      21.513  44.638  49.111  1.00  0.00     0.150 C 
HETATM   23  N   UNL     1      22.113  45.750  48.351  1.00  0.00    -0.378 N 
HETATM   24  C   UNL     1      22.141  45.455  46.904  1.00  0.00     0.150 C 
HETATM   25  C   UNL     1      23.015  44.213  46.632  1.00  0.00     0.254 C 
BRANCH  23  26
HETATM   26  C   UNL     1      23.207  46.455  48.883  1.00  0.00     0.030 A 
HETATM   27  C   UNL     1      24.211  45.850  49.657  1.00  0.00     0.029 A 
HETATM   28  C   UNL     1      25.308  46.570  50.155  1.00  0.00     0.002 A 
HETATM   29  C   UNL     1      25.420  47.931  49.912  1.00  0.00     0.000 A 
HETATM   30  C   UNL     1      24.423  48.573  49.194  1.00  0.00     0.002 A 
HETATM   31  C   UNL     1      23.331  47.846  48.702  1.00  0.00     0.029 A 
ENDBRANCH  23  26
ENDBRANCH  18  19
ENDBRANCH  17  18
ENDBRANCH  14  17
ENDBRANCH   2  13
BRANCH   2  32
HETATM   32  O   UNL     1      25.933  40.721  50.794  1.00  0.00    -0.359 OA
HETATM   33  H   UNL     1      25.948  40.813  51.764  1.00  0.00     0.213 HD
ENDBRANCH   2  32
BRANCH   1  34
HETATM   34  C   UNL     1      27.828  40.176  48.393  1.00  0.00     0.076 A 
HETATM   35  C   UNL     1      26.969  39.119  48.032  1.00  0.00     0.098 A 
HETATM   36  C   UNL     1      26.751  38.843  46.680  1.00  0.00     0.075 A 
HETATM   37  C   UNL     1      27.340  39.646  45.702  1.00  0.00     0.070 A 
HETATM   38  C   UNL     1      28.189  40.692  46.051  1.00  0.00     0.039 A 
HETATM   39  C   UNL     1      28.423  40.967  47.398  1.00  0.00     0.035 A 
BRANCH  35  40
HETATM   40  O   UNL     1      26.349  38.470  49.066  1.00  0.00    -0.354 OA
HETATM   41  C   UNL     1      26.518  37.061  49.160  1.00  0.00     0.210 C 
ENDBRANCH  35  40
BRANCH  37  42
HETATM   42  O   UNL     1      27.068  39.345  44.395  1.00  0.00    -0.356 OA
HETATM   43  C   UNL     1      28.242  38.895  43.711  1.00  0.00     0.210 C 
ENDBRANCH  37  42
ENDBRANCH   1  34
TORSDOF 9
ENDMDL
MODEL 9
REMARK VINA RESULT:      -8.0     10.611     13.567
REMARK  9 active torsions:
REMARK  status: ('A' for Active; 'I' for Inactive)
REMARK    1  A    between atoms: O_2  and  C_3 
REMARK    2  A    between atoms: C_5  and  O_6 
REMARK    3  A    between atoms: C_8  and  N_9 
REMARK    4  A    between atoms: C_10  and  C_12 
REMARK    5  A    between atoms: C_10  and  O_11 
REMARK       I    between atoms: C_12  and  N_13 
REMARK    6  A    between atoms: N_13  and  C_14 
REMARK    7  A    between atoms: C_14  and  C_15 
REMARK    8  A    between atoms: C_15  and  N_16 
REMARK    9  A    between atoms: N_20  and  C_21 
ROOT
HETATM    1  N   UNL     1      28.932  50.874  39.274  1.00  0.00    -0.251 N 
HETATM    2  C   UNL     1      28.526  50.019  40.394  1.00  0.00     0.256 C 
HETATM    3  C   UNL     1      27.189  49.334  40.142  1.00  0.00     0.034 A 
HETATM    4  C   UNL     1      26.298  49.949  39.265  1.00  0.00     0.048 A 
HETATM    5  N   UNL     1      26.707  51.081  38.570  1.00  0.00    -0.308 N 
HETATM    6  C   UNL     1      27.988  51.541  38.508  1.00  0.00     0.330 C 
HETATM    7  O   UNL     1      28.231  52.504  37.782  1.00  0.00    -0.246 OA
HETATM    8  C   UNL     1      26.757  48.176  40.813  1.00  0.00     0.015 A 
HETATM    9  C   UNL     1      25.473  47.663  40.608  1.00  0.00     0.001 A 
HETATM   10  C   UNL     1      24.597  48.306  39.739  1.00  0.00     0.002 A 
HETATM   11  C   UNL     1      25.008  49.454  39.066  1.00  0.00     0.030 A 
HETATM   12  H   UNL     1      26.068  51.541  37.932  1.00  0.00     0.170 HD
ENDROOT
BRANCH   2  13
HETATM   13  C   UNL     1      29.626  48.935  40.834  1.00  0.00     0.279 C 
HETATM   14  N   UNL     1      29.928  47.831  40.072  1.00  0.00    -0.355 N 
HETATM   15  H   UNL     1      30.511  47.186  40.597  1.00  0.00     0.162 HD
HETATM   16  O   UNL     1      30.299  49.027  41.868  1.00  0.00    -0.268 OA
BRANCH  14  17
HETATM   17  C   UNL     1      29.519  47.452  38.731  1.00  0.00     0.150 C 
BRANCH  17  18
HETATM   18  C   UNL     1      29.925  46.024  38.297  1.00  0.00     0.254 C 
BRANCH  18  19
HETATM   19  N   UNL     1      28.747  45.106  37.961  1.00  0.00    -0.067 N 
HETATM   20  H   UNL     1      28.850  44.760  37.000  1.00  0.00     0.280 HD
HETATM   21  C   UNL     1      28.800  43.876  38.898  1.00  0.00     0.254 C 
HETATM   22  C   UNL     1      27.557  42.971  38.747  1.00  0.00     0.150 C 
HETATM   23  N   UNL     1      26.318  43.752  38.921  1.00  0.00    -0.378 N 
HETATM   24  C   UNL     1      26.212  44.819  37.905  1.00  0.00     0.150 C 
HETATM   25  C   UNL     1      27.384  45.813  38.054  1.00  0.00     0.254 C 
BRANCH  23  26
HETATM   26  C   UNL     1      25.849  44.047  40.213  1.00  0.00     0.030 A 
HETATM   27  C   UNL     1      26.697  44.219  41.320  1.00  0.00     0.029 A 
HETATM   28  C   UNL     1      26.206  44.540  42.595  1.00  0.00     0.002 A 
HETATM   29  C   UNL     1      24.842  44.675  42.806  1.00  0.00     0.000 A 
HETATM   30  C   UNL     1      23.970  44.463  41.749  1.00  0.00     0.002 A 
HETATM   31  C   UNL     1      24.470  44.143  40.480  1.00  0.00     0.029 A 
ENDBRANCH  23  26
ENDBRANCH  18  19
ENDBRANCH  17  18
ENDBRANCH  14  17
ENDBRANCH   2  13
BRANCH   2  32
HETATM   32  O   UNL     1      28.244  50.921  41.475  1.00  0.00    -0.359 OA
HETATM   33  H   UNL     1      28.764  51.710  41.239  1.00  0.00     0.213 HD
ENDBRANCH   2  32
BRANCH   1  34
HETATM   34  C   UNL     1      30.290  51.301  39.168  1.00  0.00     0.076 A 
HETATM   35  C   UNL     1      30.803  52.249  40.076  1.00  0.00     0.098 A 
HETATM   36  C   UNL     1      32.155  52.594  40.018  1.00  0.00     0.075 A 
HETATM   37  C   UNL     1      32.997  51.961  39.102  1.00  0.00     0.070 A 
HETATM   38  C   UNL     1      32.498  51.024  38.202  1.00  0.00     0.039 A 
HETATM   39  C   UNL     1      31.146  50.683  38.244  1.00  0.00     0.035 A 
BRANCH  35  40
HETATM   40  O   UNL     1      29.922  52.721  41.011  1.00  0.00    -0.354 OA
HETATM   41  C   UNL     1      30.387  52.866  42.348  1.00  0.00     0.210 C 
ENDBRANCH  35  40
BRANCH  37  42
HETATM   42  O   UNL     1      34.318  52.319  39.110  1.00  0.00    -0.356 OA
HETATM   43  C   UNL     1      35.048  51.588  40.100  1.00  0.00     0.210 C 
ENDBRANCH  37  42
ENDBRANCH   1  34
TORSDOF 9
ENDMDL
MODEL 10
REMARK VINA RESULT:      -7.9      5.283     10.960
REMARK  9 active torsions:
REMARK  status: ('A' for Active; 'I' for Inactive)
REMARK    1  A    between atoms: O_2  and  C_3 
REMARK    2  A    between atoms: C_5  and  O_6 
REMARK    3  A    between atoms: C_8  and  N_9 
REMARK    4  A    between atoms: C_10  and  C_12 
REMARK    5  A    between atoms: C_10  and  O_11 
REMARK       I    between atoms: C_12  and  N_13 
REMARK    6  A    between atoms: N_13  and  C_14 
REMARK    7  A    between atoms: C_14  and  C_15 
REMARK    8  A    between atoms: C_15  and  N_16 
REMARK    9  A    between atoms: N_20  and  C_21 
ROOT
HETATM    1  N   UNL     1      16.384  50.532  45.853  1.00  0.00    -0.251 N 
HETATM    2  C   UNL     1      17.022  49.646  46.832  1.00  0.00     0.256 C 
HETATM    3  C   UNL     1      17.666  50.418  47.976  1.00  0.00     0.034 A 
HETATM    4  C   UNL     1      18.068  51.730  47.729  1.00  0.00     0.048 A 
HETATM    5  N   UNL     1      17.758  52.314  46.507  1.00  0.00    -0.308 N 
HETATM    6  C   UNL     1      16.906  51.788  45.583  1.00  0.00     0.330 C 
HETATM    7  O   UNL     1      16.647  52.451  44.579  1.00  0.00    -0.246 OA
HETATM    8  C   UNL     1      17.972  49.862  49.231  1.00  0.00     0.015 A 
HETATM    9  C   UNL     1      18.660  50.601  50.197  1.00  0.00     0.001 A 
HETATM   10  C   UNL     1      19.064  51.903  49.919  1.00  0.00     0.002 A 
HETATM   11  C   UNL     1      18.770  52.471  48.682  1.00  0.00     0.030 A 
HETATM   12  H   UNL     1      18.048  53.265  46.312  1.00  0.00     0.170 HD
ENDROOT
BRANCH   2  13
HETATM   13  C   UNL     1      16.059  48.500  47.415  1.00  0.00     0.279 C 
HETATM   14  N   UNL     1      16.279  47.161  47.194  1.00  0.00    -0.355 N 
HETATM   15  H   UNL     1      15.475  46.615  47.491  1.00  0.00     0.162 HD
HETATM   16  O   UNL     1      15.074  48.734  48.126  1.00  0.00    -0.268 OA
BRANCH  14  17
HETATM   17  C   UNL     1      17.398  46.461  46.588  1.00  0.00     0.150 C 
BRANCH  17  18
HETATM   18  C   UNL     1      17.942  45.261  47.398  1.00  0.00     0.254 C 
BRANCH  18  19
HETATM   19  N   UNL     1      19.461  45.086  47.328  1.00  0.00    -0.067 N 
HETATM   20  H   UNL     1      19.678  44.126  47.037  1.00  0.00     0.280 HD
HETATM   21  C   UNL     1      20.014  46.032  46.235  1.00  0.00     0.254 C 
HETATM   22  C   UNL     1      21.558  46.048  46.203  1.00  0.00     0.150 C 
HETATM   23  N   UNL     1      22.106  46.356  47.538  1.00  0.00    -0.378 N 
HETATM   24  C   UNL     1      21.697  45.341  48.530  1.00  0.00     0.150 C 
HETATM   25  C   UNL     1      20.160  45.330  48.676  1.00  0.00     0.254 C 
BRANCH  23  26
HETATM   26  C   UNL     1      22.179  47.689  47.977  1.00  0.00     0.030 A 
HETATM   27  C   UNL     1      23.013  48.110  49.028  1.00  0.00     0.029 A 
HETATM   28  C   UNL     1      23.088  49.451  49.430  1.00  0.00     0.002 A 
HETATM   29  C   UNL     1      22.310  50.415  48.806  1.00  0.00     0.000 A 
HETATM   30  C   UNL     1      21.438  50.030  47.799  1.00  0.00     0.002 A 
HETATM   31  C   UNL     1      21.369  48.688  47.403  1.00  0.00     0.029 A 
ENDBRANCH  23  26
ENDBRANCH  18  19
ENDBRANCH  17  18
ENDBRANCH  14  17
ENDBRANCH   2  13
BRANCH   2  32
HETATM   32  O   UNL     1      18.140  49.066  46.145  1.00  0.00    -0.359 OA
HETATM   33  H   UNL     1      18.675  48.700  46.872  1.00  0.00     0.213 HD
ENDBRANCH   2  32
BRANCH   1  34
HETATM   34  C   UNL     1      15.438  49.996  44.927  1.00  0.00     0.076 A 
HETATM   35  C   UNL     1      15.886  49.301  43.786  1.00  0.00     0.098 A 
HETATM   36  C   UNL     1      14.952  48.707  42.934  1.00  0.00     0.075 A 
HETATM   37  C   UNL     1      13.593  48.757  43.246  1.00  0.00     0.070 A 
HETATM   38  C   UNL     1      13.143  49.442  44.372  1.00  0.00     0.039 A 
HETATM   39  C   UNL     1      14.067  50.050  45.221  1.00  0.00     0.035 A 
BRANCH  35  40
HETATM   40  O   UNL     1      17.243  49.208  43.634  1.00  0.00    -0.354 OA
HETATM   41  C   UNL     1      17.824  49.801  42.479  1.00  0.00     0.210 C 
ENDBRANCH  35  40
BRANCH  37  42
HETATM   42  O   UNL     1      12.727  48.133  42.390  1.00  0.00    -0.356 OA
HETATM   43  C   UNL     1      12.282  49.023  41.362  1.00  0.00     0.210 C 
ENDBRANCH  37  42
ENDBRANCH   1  34
TORSDOF 9
ENDMDL
