MODEL 1
REMARK VINA RESULT:      -8.2      0.000      0.000
REMARK  4 active torsions:
REMARK  status: ('A' for Active; 'I' for Inactive)
REMARK    1  A    between atoms: C_2  and  O_3 
REMARK    2  A    between atoms: O_3  and  C_4 
REMARK    3  A    between atoms: C_7  and  C_8 
REMARK       I    between atoms: C_8  and  N_9 
REMARK    4  A    between atoms: N_9  and  C_10 
ROOT
HETATM    1  C   UNL     1      28.049  41.934  52.999  1.00  0.00     0.262 C 
HETATM    2  N   UNL     1      28.115  42.138  51.631  1.00  0.00    -0.321 N 
HETATM    3  O   UNL     1      27.844  40.845  53.523  1.00  0.00    -0.267 OA
HETATM    4  H   UNL     1      28.244  43.092  51.313  1.00  0.00     0.169 HD
ENDROOT
BRANCH   1   5
HETATM    5  C   UNL     1      28.247  43.132  53.871  1.00  0.00     0.112 A 
HETATM    6  C   UNL     1      29.478  43.442  54.469  1.00  0.00     0.168 A 
HETATM    7  C   UNL     1      29.627  44.569  55.290  1.00  0.00     0.108 A 
HETATM    8  F   UNL     1      30.529  42.631  54.260  1.00  0.00    -0.202 F 
HETATM    9  C   UNL     1      28.523  45.391  55.526  1.00  0.00     0.043 A 
HETATM   10  C   UNL     1      27.296  45.105  54.937  1.00  0.00     0.046 A 
HETATM   11  C   UNL     1      27.164  43.986  54.116  1.00  0.00     0.135 A 
HETATM   12  F   UNL     1      25.953  43.758  53.590  1.00  0.00    -0.205 F 
BRANCH   7  13
HETATM   13  O   UNL     1      30.763  44.977  55.935  1.00  0.00    -0.348 OA
BRANCH  13  14
HETATM   14  C   UNL     1      30.964  44.530  57.275  1.00  0.00     0.171 C 
HETATM   15  C   UNL     1      31.908  43.342  57.228  1.00  0.00     0.034 C 
ENDBRANCH  13  14
ENDBRANCH   7  13
ENDBRANCH   1   5
BRANCH   2  16
HETATM   16  C   UNL     1      28.022  41.178  50.598  1.00  0.00     0.064 A 
HETATM   17  C   UNL     1      28.628  39.913  50.554  1.00  0.00     0.088 A 
HETATM   18  C   UNL     1      28.492  39.042  49.473  1.00  0.00     0.014 A 
HETATM   19  N   UNL     1      29.432  39.236  51.436  1.00  0.00    -0.275 N 
HETATM   20  C   UNL     1      29.255  37.905  49.822  1.00  0.00     0.152 A 
HETATM   21  C   UNL     1      27.713  39.420  48.367  1.00  0.00     0.015 A 
HETATM   22  N   UNL     1      29.832  38.019  51.018  1.00  0.00    -0.186 NA
HETATM   23  C   UNL     1      27.094  40.669  48.382  1.00  0.00     0.003 A 
HETATM   24  C   UNL     1      27.248  41.527  49.473  1.00  0.00     0.032 A 
HETATM   25  H   UNL     1      29.732  39.575  52.349  1.00  0.00     0.189 HD
ENDBRANCH   2  16
TORSDOF 4
ENDMDL
MODEL 2
REMARK VINA RESULT:      -8.1      5.413      7.076
REMARK  4 active torsions:
REMARK  status: ('A' for Active; 'I' for Inactive)
REMARK    1  A    between atoms: C_2  and  O_3 
REMARK    2  A    between atoms: O_3  and  C_4 
REMARK    3  A    between atoms: C_7  and  C_8 
REMARK       I    between atoms: C_8  and  N_9 
REMARK    4  A    between atoms: N_9  and  C_10 
ROOT
HETATM    1  C   UNL     1      25.988  46.800  52.107  1.00  0.00     0.262 C 
HETATM    2  N   UNL     1      26.292  46.934  50.763  1.00  0.00    -0.321 N 
HETATM    3  O   UNL     1      25.321  47.606  52.746  1.00  0.00    -0.267 OA
HETATM    4  H   UNL     1      26.891  46.227  50.353  1.00  0.00     0.169 HD
ENDROOT
BRANCH   1   5
HETATM    5  C   UNL     1      26.517  45.586  52.801  1.00  0.00     0.112 A 
HETATM    6  C   UNL     1      27.548  45.643  53.750  1.00  0.00     0.168 A 
HETATM    7  C   UNL     1      28.028  44.483  54.377  1.00  0.00     0.108 A 
HETATM    8  F   UNL     1      28.095  46.832  54.052  1.00  0.00    -0.202 F 
HETATM    9  C   UNL     1      27.475  43.246  54.038  1.00  0.00     0.043 A 
HETATM   10  C   UNL     1      26.447  43.171  53.103  1.00  0.00     0.046 A 
HETATM   11  C   UNL     1      25.974  44.332  52.495  1.00  0.00     0.135 A 
HETATM   12  F   UNL     1      24.992  44.189  51.595  1.00  0.00    -0.205 F 
BRANCH   7  13
HETATM   13  O   UNL     1      29.028  44.400  55.308  1.00  0.00    -0.348 OA
BRANCH  13  14
HETATM   14  C   UNL     1      30.184  43.634  54.975  1.00  0.00     0.171 C 
HETATM   15  C   UNL     1      31.018  43.486  56.236  1.00  0.00     0.034 C 
ENDBRANCH  13  14
ENDBRANCH   7  13
ENDBRANCH   1   5
BRANCH   2  16
HETATM   16  C   UNL     1      25.873  47.945  49.868  1.00  0.00     0.064 A 
HETATM   17  C   UNL     1      24.563  48.220  49.447  1.00  0.00     0.088 A 
HETATM   18  C   UNL     1      24.253  49.231  48.538  1.00  0.00     0.014 A 
HETATM   19  N   UNL     1      23.350  47.656  49.753  1.00  0.00    -0.275 N 
HETATM   20  C   UNL     1      22.851  49.165  48.380  1.00  0.00     0.152 A 
HETATM   21  C   UNL     1      25.279  50.032  48.009  1.00  0.00     0.015 A 
HETATM   22  N   UNL     1      22.295  48.203  49.119  1.00  0.00    -0.186 NA
HETATM   23  C   UNL     1      26.592  49.787  48.412  1.00  0.00     0.003 A 
HETATM   24  C   UNL     1      26.879  48.765  49.319  1.00  0.00     0.032 A 
HETATM   25  H   UNL     1      23.199  46.885  50.402  1.00  0.00     0.189 HD
ENDBRANCH   2  16
TORSDOF 4
ENDMDL
MODEL 3
REMARK VINA RESULT:      -8.1      4.640      7.454
REMARK  4 active torsions:
REMARK  status: ('A' for Active; 'I' for Inactive)
REMARK    1  A    between atoms: C_2  and  O_3 
REMARK    2  A    between atoms: O_3  and  C_4 
REMARK    3  A    between atoms: C_7  and  C_8 
REMARK       I    between atoms: C_8  and  N_9 
REMARK    4  A    between atoms: N_9  and  C_10 
ROOT
HETATM    1  C   UNL     1      26.174  44.712  52.837  1.00  0.00     0.262 C 
HETATM    2  N   UNL     1      27.546  44.723  52.653  1.00  0.00    -0.321 N 
HETATM    3  O   UNL     1      25.618  44.290  53.845  1.00  0.00    -0.267 OA
HETATM    4  H   UNL     1      27.888  45.055  51.759  1.00  0.00     0.169 HD
ENDROOT
BRANCH   1   5
HETATM    5  C   UNL     1      25.338  45.258  51.724  1.00  0.00     0.112 A 
HETATM    6  C   UNL     1      25.305  46.622  51.398  1.00  0.00     0.168 A 
HETATM    7  C   UNL     1      24.503  47.104  50.353  1.00  0.00     0.108 A 
HETATM    8  F   UNL     1      26.047  47.484  52.113  1.00  0.00    -0.202 F 
HETATM    9  C   UNL     1      23.712  46.206  49.632  1.00  0.00     0.043 A 
HETATM   10  C   UNL     1      23.737  44.849  49.936  1.00  0.00     0.046 A 
HETATM   11  C   UNL     1      24.545  44.384  50.971  1.00  0.00     0.135 A 
HETATM   12  F   UNL     1      24.513  43.068  51.222  1.00  0.00    -0.205 F 
BRANCH   7  13
HETATM   13  O   UNL     1      24.374  48.402  49.940  1.00  0.00    -0.348 OA
BRANCH  13  14
HETATM   14  C   UNL     1      23.209  48.751  49.195  1.00  0.00     0.171 C 
HETATM   15  C   UNL     1      23.625  49.747  48.128  1.00  0.00     0.034 C 
ENDBRANCH  13  14
ENDBRANCH   7  13
ENDBRANCH   1   5
BRANCH   2  16
HETATM   16  C   UNL     1      28.553  44.324  53.561  1.00  0.00     0.064 A 
HETATM   17  C   UNL     1      28.877  44.919  54.789  1.00  0.00     0.088 A 
HETATM   18  C   UNL     1      29.910  44.462  55.608  1.00  0.00     0.014 A 
HETATM   19  N   UNL     1      28.353  45.990  55.471  1.00  0.00    -0.275 N 
HETATM   20  C   UNL     1      29.907  45.331  56.722  1.00  0.00     0.152 A 
HETATM   21  C   UNL     1      30.673  43.351  55.211  1.00  0.00     0.015 A 
HETATM   22  N   UNL     1      28.959  46.266  56.642  1.00  0.00    -0.186 NA
HETATM   23  C   UNL     1      30.372  42.733  53.998  1.00  0.00     0.003 A 
HETATM   24  C   UNL     1      29.338  43.213  53.192  1.00  0.00     0.032 A 
HETATM   25  H   UNL     1      27.568  46.563  55.165  1.00  0.00     0.189 HD
ENDBRANCH   2  16
TORSDOF 4
ENDMDL
MODEL 4
REMARK VINA RESULT:      -8.0      9.108     10.974
REMARK  4 active torsions:
REMARK  status: ('A' for Active; 'I' for Inactive)
REMARK    1  A    between atoms: C_2  and  O_3 
REMARK    2  A    between atoms: O_3  and  C_4 
REMARK    3  A    between atoms: C_7  and  C_8 
REMARK       I    between atoms: C_8  and  N_9 
REMARK    4  A    between atoms: N_9  and  C_10 
ROOT
HETATM    1  C   UNL     1      22.721  48.968  48.600  1.00  0.00     0.262 C 
HETATM    2  N   UNL     1      21.973  49.548  49.611  1.00  0.00    -0.321 N 
HETATM    3  O   UNL     1      22.261  48.614  47.520  1.00  0.00    -0.267 OA
HETATM    4  H   UNL     1      22.454  49.758  50.478  1.00  0.00     0.169 HD
ENDROOT
BRANCH   1   5
HETATM    5  C   UNL     1      24.180  48.776  48.865  1.00  0.00     0.112 A 
HETATM    6  C   UNL     1      24.682  47.690  49.597  1.00  0.00     0.168 A 
HETATM    7  C   UNL     1      26.056  47.543  49.836  1.00  0.00     0.108 A 
HETATM    8  F   UNL     1      23.824  46.781  50.092  1.00  0.00    -0.202 F 
HETATM    9  C   UNL     1      26.940  48.506  49.344  1.00  0.00     0.043 A 
HETATM   10  C   UNL     1      26.461  49.587  48.609  1.00  0.00     0.046 A 
HETATM   11  C   UNL     1      25.095  49.715  48.373  1.00  0.00     0.135 A 
HETATM   12  F   UNL     1      24.697  50.784  47.670  1.00  0.00    -0.205 F 
BRANCH   7  13
HETATM   13  O   UNL     1      26.671  46.542  50.538  1.00  0.00    -0.348 OA
BRANCH  13  14
HETATM   14  C   UNL     1      26.953  45.324  49.851  1.00  0.00     0.171 C 
HETATM   15  C   UNL     1      27.423  44.313  50.881  1.00  0.00     0.034 C 
ENDBRANCH  13  14
ENDBRANCH   7  13
ENDBRANCH   1   5
BRANCH   2  16
HETATM   16  C   UNL     1      20.602  49.891  49.597  1.00  0.00     0.064 A 
HETATM   17  C   UNL     1      19.516  49.050  49.312  1.00  0.00     0.088 A 
HETATM   18  C   UNL     1      18.193  49.491  49.304  1.00  0.00     0.014 A 
HETATM   19  N   UNL     1      19.431  47.717  48.996  1.00  0.00    -0.275 N 
HETATM   20  C   UNL     1      17.429  48.352  48.966  1.00  0.00     0.152 A 
HETATM   21  C   UNL     1      17.905  50.835  49.597  1.00  0.00     0.015 A 
HETATM   22  N   UNL     1      18.180  47.267  48.775  1.00  0.00    -0.186 NA
HETATM   23  C   UNL     1      18.962  51.696  49.889  1.00  0.00     0.003 A 
HETATM   24  C   UNL     1      20.279  51.232  49.886  1.00  0.00     0.032 A 
HETATM   25  H   UNL     1      20.216  47.071  48.922  1.00  0.00     0.189 HD
ENDBRANCH   2  16
TORSDOF 4
ENDMDL
MODEL 5
REMARK VINA RESULT:      -7.9      3.765      5.382
REMARK  4 active torsions:
REMARK  status: ('A' for Active; 'I' for Inactive)
REMARK    1  A    between atoms: C_2  and  O_3 
REMARK    2  A    between atoms: O_3  and  C_4 
REMARK    3  A    between atoms: C_7  and  C_8 
REMARK       I    between atoms: C_8  and  N_9 
REMARK    4  A    between atoms: N_9  and  C_10 
ROOT
HETATM    1  C   UNL     1      26.508  44.329  53.393  1.00  0.00     0.262 C 
HETATM    2  N   UNL     1      26.559  44.607  52.038  1.00  0.00    -0.321 N 
HETATM    3  O   UNL     1      25.470  44.217  54.035  1.00  0.00    -0.267 OA
HETATM    4  H   UNL     1      27.477  44.722  51.625  1.00  0.00     0.169 HD
ENDROOT
BRANCH   1   5
HETATM    5  C   UNL     1      27.817  44.157  54.097  1.00  0.00     0.112 A 
HETATM    6  C   UNL     1      28.438  45.193  54.809  1.00  0.00     0.168 A 
HETATM    7  C   UNL     1      29.671  45.001  55.451  1.00  0.00     0.108 A 
HETATM    8  F   UNL     1      27.845  46.397  54.864  1.00  0.00    -0.202 F 
HETATM    9  C   UNL     1      30.296  43.755  55.366  1.00  0.00     0.043 A 
HETATM   10  C   UNL     1      29.692  42.713  54.670  1.00  0.00     0.046 A 
HETATM   11  C   UNL     1      28.463  42.916  54.045  1.00  0.00     0.135 A 
HETATM   12  F   UNL     1      27.941  41.876  53.380  1.00  0.00    -0.205 F 
BRANCH   7  13
HETATM   13  O   UNL     1      30.383  45.925  56.166  1.00  0.00    -0.348 OA
BRANCH  13  14
HETATM   14  C   UNL     1      30.385  45.808  57.588  1.00  0.00     0.171 C 
HETATM   15  C   UNL     1      28.976  46.091  58.076  1.00  0.00     0.034 C 
ENDBRANCH  13  14
ENDBRANCH   7  13
ENDBRANCH   1   5
BRANCH   2  16
HETATM   16  C   UNL     1      25.482  44.757  51.135  1.00  0.00     0.064 A 
HETATM   17  C   UNL     1      24.965  45.954  50.619  1.00  0.00     0.088 A 
HETATM   18  C   UNL     1      23.878  45.999  49.745  1.00  0.00     0.014 A 
HETATM   19  N   UNL     1      25.316  47.270  50.790  1.00  0.00    -0.275 N 
HETATM   20  C   UNL     1      23.677  47.373  49.481  1.00  0.00     0.152 A 
HETATM   21  C   UNL     1      23.258  44.805  49.342  1.00  0.00     0.015 A 
HETATM   22  N   UNL     1      24.552  48.152  50.118  1.00  0.00    -0.186 NA
HETATM   23  C   UNL     1      23.752  43.597  49.834  1.00  0.00     0.003 A 
HETATM   24  C   UNL     1      24.837  43.577  50.712  1.00  0.00     0.032 A 
HETATM   25  H   UNL     1      26.086  47.610  51.365  1.00  0.00     0.189 HD
ENDBRANCH   2  16
TORSDOF 4
ENDMDL
MODEL 6
REMARK VINA RESULT:      -7.7      5.370      7.246
REMARK  4 active torsions:
REMARK  status: ('A' for Active; 'I' for Inactive)
REMARK    1  A    between atoms: C_2  and  O_3 
REMARK    2  A    between atoms: O_3  and  C_4 
REMARK    3  A    between atoms: C_7  and  C_8 
REMARK       I    between atoms: C_8  and  N_9 
REMARK    4  A    between atoms: N_9  and  C_10 
ROOT
HETATM    1  C   UNL     1      25.731  45.720  51.113  1.00  0.00     0.262 C 
HETATM    2  N   UNL     1      26.194  47.022  51.032  1.00  0.00    -0.321 N 
HETATM    3  O   UNL     1      24.946  45.217  50.317  1.00  0.00    -0.267 OA
HETATM    4  H   UNL     1      26.805  47.342  51.775  1.00  0.00     0.169 HD
ENDROOT
BRANCH   1   5
HETATM    5  C   UNL     1      26.237  44.893  52.252  1.00  0.00     0.112 A 
HETATM    6  C   UNL     1      26.926  43.685  52.066  1.00  0.00     0.168 A 
HETATM    7  C   UNL     1      27.380  42.928  53.157  1.00  0.00     0.108 A 
HETATM    8  F   UNL     1      27.141  43.240  50.817  1.00  0.00    -0.202 F 
HETATM    9  C   UNL     1      27.127  43.382  54.453  1.00  0.00     0.043 A 
HETATM   10  C   UNL     1      26.451  44.581  54.657  1.00  0.00     0.046 A 
HETATM   11  C   UNL     1      26.014  45.327  53.565  1.00  0.00     0.135 A 
HETATM   12  F   UNL     1      25.358  46.465  53.829  1.00  0.00    -0.205 F 
BRANCH   7  13
HETATM   13  O   UNL     1      28.052  41.737  53.114  1.00  0.00    -0.348 OA
BRANCH  13  14
HETATM   14  C   UNL     1      29.336  41.720  52.494  1.00  0.00     0.171 C 
HETATM   15  C   UNL     1      30.217  42.714  53.230  1.00  0.00     0.034 C 
ENDBRANCH  13  14
ENDBRANCH   7  13
ENDBRANCH   1   5
BRANCH   2  16
HETATM   16  C   UNL     1      25.923  47.986  50.035  1.00  0.00     0.064 A 
HETATM   17  C   UNL     1      24.668  48.352  49.523  1.00  0.00     0.088 A 
HETATM   18  C   UNL     1      24.505  49.305  48.518  1.00  0.00     0.014 A 
HETATM   19  N   UNL     1      23.390  47.941  49.812  1.00  0.00    -0.275 N 
HETATM   20  C   UNL     1      23.111  49.365  48.293  1.00  0.00     0.152 A 
HETATM   21  C   UNL     1      25.631  49.949  47.978  1.00  0.00     0.015 A 
HETATM   22  N   UNL     1      22.427  48.533  49.079  1.00  0.00    -0.186 NA
HETATM   23  C   UNL     1      26.892  49.611  48.469  1.00  0.00     0.003 A 
HETATM   24  C   UNL     1      27.031  48.650  49.472  1.00  0.00     0.032 A 
HETATM   25  H   UNL     1      23.132  47.250  50.515  1.00  0.00     0.189 HD
ENDBRANCH   2  16
TORSDOF 4
ENDMDL
MODEL 7
REMARK VINA RESULT:      -7.7      9.946     12.021
REMARK  4 active torsions:
REMARK  status: ('A' for Active; 'I' for Inactive)
REMARK    1  A    between atoms: C_2  and  O_3 
REMARK    2  A    between atoms: O_3  and  C_4 
REMARK    3  A    between atoms: C_7  and  C_8 
REMARK       I    between atoms: C_8  and  N_9 
REMARK    4  A    between atoms: N_9  and  C_10 
ROOT
HETATM    1  C   UNL     1      21.608  50.175  49.464  1.00  0.00     0.262 C 
HETATM    2  N   UNL     1      22.425  49.364  48.696  1.00  0.00    -0.321 N 
HETATM    3  O   UNL     1      22.002  50.853  50.407  1.00  0.00    -0.267 OA
HETATM    4  H   UNL     1      21.978  48.813  47.971  1.00  0.00     0.169 HD
ENDROOT
BRANCH   1   5
HETATM    5  C   UNL     1      20.158  50.212  49.102  1.00  0.00     0.112 A 
HETATM    6  C   UNL     1      19.303  49.114  49.278  1.00  0.00     0.168 A 
HETATM    7  C   UNL     1      17.948  49.179  48.918  1.00  0.00     0.108 A 
HETATM    8  F   UNL     1      19.798  47.974  49.789  1.00  0.00    -0.202 F 
HETATM    9  C   UNL     1      17.447  50.357  48.361  1.00  0.00     0.043 A 
HETATM   10  C   UNL     1      18.278  51.459  48.185  1.00  0.00     0.046 A 
HETATM   11  C   UNL     1      19.619  51.383  48.555  1.00  0.00     0.135 A 
HETATM   12  F   UNL     1      20.369  52.474  48.347  1.00  0.00    -0.205 F 
BRANCH   7  13
HETATM   13  O   UNL     1      17.015  48.184  49.030  1.00  0.00    -0.348 OA
BRANCH  13  14
HETATM   14  C   UNL     1      16.763  47.376  47.882  1.00  0.00     0.171 C 
HETATM   15  C   UNL     1      17.458  46.043  48.095  1.00  0.00     0.034 C 
ENDBRANCH  13  14
ENDBRANCH   7  13
ENDBRANCH   1   5
BRANCH   2  16
HETATM   16  C   UNL     1      23.825  49.193  48.788  1.00  0.00     0.064 A 
HETATM   17  C   UNL     1      24.520  48.276  49.590  1.00  0.00     0.088 A 
HETATM   18  C   UNL     1      25.912  48.199  49.627  1.00  0.00     0.014 A 
HETATM   19  N   UNL     1      24.104  47.305  50.467  1.00  0.00    -0.275 N 
HETATM   20  C   UNL     1      26.198  47.171  50.553  1.00  0.00     0.152 A 
HETATM   21  C   UNL     1      26.679  49.065  48.829  1.00  0.00     0.015 A 
HETATM   22  N   UNL     1      25.098  46.623  51.070  1.00  0.00    -0.186 NA
HETATM   23  C   UNL     1      26.018  49.985  48.016  1.00  0.00     0.003 A 
HETATM   24  C   UNL     1      24.623  50.047  48.000  1.00  0.00     0.032 A 
HETATM   25  H   UNL     1      23.136  47.074  50.683  1.00  0.00     0.189 HD
ENDBRANCH   2  16
TORSDOF 4
ENDMDL
MODEL 8
REMARK VINA RESULT:      -7.6      6.418      8.816
REMARK  4 active torsions:
REMARK  status: ('A' for Active; 'I' for Inactive)
REMARK    1  A    between atoms: C_2  and  O_3 
REMARK    2  A    between atoms: O_3  and  C_4 
REMARK    3  A    between atoms: C_7  and  C_8 
REMARK       I    between atoms: C_8  and  N_9 
REMARK    4  A    between atoms: N_9  and  C_10 
ROOT
HETATM    1  C   UNL     1      26.345  46.853  50.397  1.00  0.00     0.262 C 
HETATM    2  N   UNL     1      26.042  46.857  51.747  1.00  0.00    -0.321 N 
HETATM    3  O   UNL     1      27.019  45.990  49.845  1.00  0.00    -0.267 OA
HETATM    4  H   UNL     1      25.514  47.648  52.099  1.00  0.00     0.169 HD
ENDROOT
BRANCH   1   5
HETATM    5  C   UNL     1      25.802  47.981  49.578  1.00  0.00     0.112 A 
HETATM    6  C   UNL     1      24.429  48.166  49.358  1.00  0.00     0.168 A 
HETATM    7  C   UNL     1      23.953  49.230  48.577  1.00  0.00     0.108 A 
HETATM    8  F   UNL     1      23.556  47.297  49.894  1.00  0.00    -0.202 F 
HETATM    9  C   UNL     1      24.867  50.113  47.998  1.00  0.00     0.043 A 
HETATM   10  C   UNL     1      26.232  49.949  48.211  1.00  0.00     0.046 A 
HETATM   11  C   UNL     1      26.690  48.893  48.996  1.00  0.00     0.135 A 
HETATM   12  F   UNL     1      28.016  48.783  49.152  1.00  0.00    -0.205 F 
BRANCH   7  13
HETATM   13  O   UNL     1      22.648  49.517  48.279  1.00  0.00    -0.348 OA
BRANCH  13  14
HETATM   14  C   UNL     1      21.872  50.190  49.268  1.00  0.00     0.171 C 
HETATM   15  C   UNL     1      21.099  51.297  48.574  1.00  0.00     0.034 C 
ENDBRANCH  13  14
ENDBRANCH   7  13
ENDBRANCH   1   5
BRANCH   2  16
HETATM   16  C   UNL     1      26.376  45.890  52.722  1.00  0.00     0.064 A 
HETATM   17  C   UNL     1      27.105  46.091  53.905  1.00  0.00     0.088 A 
HETATM   18  C   UNL     1      27.404  45.061  54.797  1.00  0.00     0.014 A 
HETATM   19  N   UNL     1      27.672  47.205  54.471  1.00  0.00    -0.275 N 
HETATM   20  C   UNL     1      28.146  45.677  55.830  1.00  0.00     0.152 A 
HETATM   21  C   UNL     1      26.963  43.755  54.528  1.00  0.00     0.015 A 
HETATM   22  N   UNL     1      28.314  46.985  55.634  1.00  0.00    -0.186 NA
HETATM   23  C   UNL     1      26.232  43.524  53.363  1.00  0.00     0.003 A 
HETATM   24  C   UNL     1      25.949  44.569  52.482  1.00  0.00     0.032 A 
HETATM   25  H   UNL     1      27.639  48.149  54.088  1.00  0.00     0.189 HD
ENDBRANCH   2  16
TORSDOF 4
ENDMDL
MODEL 9
REMARK VINA RESULT:      -7.4      8.917     10.844
REMARK  4 active torsions:
REMARK  status: ('A' for Active; 'I' for Inactive)
REMARK    1  A    between atoms: C_2  and  O_3 
REMARK    2  A    between atoms: O_3  and  C_4 
REMARK    3  A    between atoms: C_7  and  C_8 
REMARK       I    between atoms: C_8  and  N_9 
REMARK    4  A    between atoms: N_9  and  C_10 
ROOT
HETATM    1  C   UNL     1      22.477  48.421  48.860  1.00  0.00     0.262 C 
HETATM    2  N   UNL     1      23.213  48.005  49.956  1.00  0.00    -0.321 N 
HETATM    3  O   UNL     1      22.777  48.178  47.696  1.00  0.00    -0.267 OA
HETATM    4  H   UNL     1      22.890  48.306  50.869  1.00  0.00     0.169 HD
ENDROOT
BRANCH   1   5
HETATM    5  C   UNL     1      21.240  49.215  49.138  1.00  0.00     0.112 A 
HETATM    6  C   UNL     1      19.956  48.652  49.115  1.00  0.00     0.168 A 
HETATM    7  C   UNL     1      18.814  49.427  49.371  1.00  0.00     0.108 A 
HETATM    8  F   UNL     1      19.818  47.347  48.826  1.00  0.00    -0.202 F 
HETATM    9  C   UNL     1      18.962  50.789  49.642  1.00  0.00     0.043 A 
HETATM   10  C   UNL     1      20.229  51.363  49.677  1.00  0.00     0.046 A 
HETATM   11  C   UNL     1      21.354  50.580  49.429  1.00  0.00     0.135 A 
HETATM   12  F   UNL     1      22.543  51.197  49.464  1.00  0.00    -0.205 F 
BRANCH   7  13
HETATM   13  O   UNL     1      17.512  49.005  49.371  1.00  0.00    -0.348 OA
BRANCH  13  14
HETATM   14  C   UNL     1      16.871  48.826  48.110  1.00  0.00     0.171 C 
HETATM   15  C   UNL     1      15.750  49.846  48.014  1.00  0.00     0.034 C 
ENDBRANCH  13  14
ENDBRANCH   7  13
ENDBRANCH   1   5
BRANCH   2  16
HETATM   16  C   UNL     1      24.376  47.202  49.975  1.00  0.00     0.064 A 
HETATM   17  C   UNL     1      24.468  45.844  50.315  1.00  0.00     0.088 A 
HETATM   18  C   UNL     1      25.673  45.142  50.324  1.00  0.00     0.014 A 
HETATM   19  N   UNL     1      23.532  44.915  50.694  1.00  0.00    -0.275 N 
HETATM   20  C   UNL     1      25.331  43.832  50.726  1.00  0.00     0.152 A 
HETATM   21  C   UNL     1      26.865  45.799  49.975  1.00  0.00     0.015 A 
HETATM   22  N   UNL     1      24.025  43.688  50.954  1.00  0.00    -0.186 NA
HETATM   23  C   UNL     1      26.806  47.148  49.627  1.00  0.00     0.003 A 
HETATM   24  C   UNL     1      25.589  47.832  49.630  1.00  0.00     0.032 A 
HETATM   25  H   UNL     1      22.530  45.081  50.785  1.00  0.00     0.189 HD
ENDBRANCH   2  16
TORSDOF 4
ENDMDL
MODEL 10
REMARK VINA RESULT:      -7.4      6.495      8.807
REMARK  4 active torsions:
REMARK  status: ('A' for Active; 'I' for Inactive)
REMARK    1  A    between atoms: C_2  and  O_3 
REMARK    2  A    between atoms: O_3  and  C_4 
REMARK    3  A    between atoms: C_7  and  C_8 
REMARK       I    between atoms: C_8  and  N_9 
REMARK    4  A    between atoms: N_9  and  C_10 
ROOT
HETATM    1  C   UNL     1      25.841  47.324  50.065  1.00  0.00     0.262 C 
HETATM    2  N   UNL     1      25.604  47.216  51.425  1.00  0.00    -0.321 N 
HETATM    3  O   UNL     1      26.732  46.726  49.472  1.00  0.00    -0.267 OA
HETATM    4  H   UNL     1      24.867  47.795  51.812  1.00  0.00     0.169 HD
ENDROOT
BRANCH   1   5
HETATM    5  C   UNL     1      24.940  48.233  49.292  1.00  0.00     0.112 A 
HETATM    6  C   UNL     1      23.587  47.944  49.060  1.00  0.00     0.168 A 
HETATM    7  C   UNL     1      22.771  48.814  48.322  1.00  0.00     0.108 A 
HETATM    8  F   UNL     1      23.070  46.801  49.542  1.00  0.00    -0.202 F 
HETATM    9  C   UNL     1      23.322  49.986  47.798  1.00  0.00     0.043 A 
HETATM   10  C   UNL     1      24.660  50.293  48.024  1.00  0.00     0.046 A 
HETATM   11  C   UNL     1      25.457  49.424  48.766  1.00  0.00     0.135 A 
HETATM   12  F   UNL     1      26.740  49.771  48.936  1.00  0.00    -0.205 F 
BRANCH   7  13
HETATM   13  O   UNL     1      21.447  48.647  48.018  1.00  0.00    -0.348 OA
BRANCH  13  14
HETATM   14  C   UNL     1      20.492  48.882  49.050  1.00  0.00     0.171 C 
HETATM   15  C   UNL     1      19.542  47.699  49.079  1.00  0.00     0.034 C 
ENDBRANCH  13  14
ENDBRANCH   7  13
ENDBRANCH   1   5
BRANCH   2  16
HETATM   16  C   UNL     1      26.263  46.392  52.365  1.00  0.00     0.064 A 
HETATM   17  C   UNL     1      26.547  45.023  52.246  1.00  0.00     0.088 A 
HETATM   18  C   UNL     1      27.186  44.289  53.245  1.00  0.00     0.014 A 
HETATM   19  N   UNL     1      26.314  44.108  51.250  1.00  0.00    -0.275 N 
HETATM   20  C   UNL     1      27.267  42.973  52.738  1.00  0.00     0.152 A 
HETATM   21  C   UNL     1      27.581  44.926  54.433  1.00  0.00     0.015 A 
HETATM   22  N   UNL     1      26.734  42.857  51.521  1.00  0.00    -0.186 NA
HETATM   23  C   UNL     1      27.318  46.288  54.580  1.00  0.00     0.003 A 
HETATM   24  C   UNL     1      26.671  47.000  53.568  1.00  0.00     0.032 A 
HETATM   25  H   UNL     1      25.866  44.303  50.355  1.00  0.00     0.189 HD
ENDBRANCH   2  16
TORSDOF 4
ENDMDL
