MODEL 1
REMARK VINA RESULT:      -8.9      0.000      0.000
REMARK  4 active torsions:
REMARK  status: ('A' for Active; 'I' for Inactive)
REMARK    1  A    between atoms: C_2  and  C_3 
REMARK    2  A    between atoms: C_4  and  N_5 
REMARK       I    between atoms: N_5  and  C_6 
REMARK    3  A    between atoms: C_6  and  C_7 
REMARK    4  A    between atoms: C_19  and  C_20 
ROOT
HETATM    1  N   UNL     1      28.936  43.346  53.601  1.00  0.00    -0.321 N 
HETATM    2  C   UNL     1      28.001  42.319  53.622  1.00  0.00     0.277 C 
HETATM    3  O   UNL     1      27.127  42.142  54.456  1.00  0.00    -0.266 OA
HETATM    4  H   UNL     1      29.279  43.526  52.666  1.00  0.00     0.169 HD
ENDROOT
BRANCH   2   5
HETATM    5  C   UNL     1      28.097  41.415  52.385  1.00  0.00     0.156 A 
HETATM    6  N   UNL     1      28.973  40.450  52.471  1.00  0.00    -0.166 NA
HETATM    7  N   UNL     1      29.143  39.635  51.395  1.00  0.00    -0.242 N 
HETATM    8  C   UNL     1      28.501  39.749  50.187  1.00  0.00     0.272 A 
HETATM    9  H   UNL     1      29.847  38.907  51.474  1.00  0.00     0.192 HD
HETATM   10  O   UNL     1      28.743  39.001  49.246  1.00  0.00    -0.266 OA
HETATM   11  C   UNL     1      27.489  40.814  50.088  1.00  0.00     0.046 A 
HETATM   12  C   UNL     1      27.256  41.642  51.187  1.00  0.00     0.016 A 
HETATM   13  C   UNL     1      26.762  40.971  48.901  1.00  0.00     0.018 A 
HETATM   14  C   UNL     1      26.255  42.616  51.099  1.00  0.00     0.015 A 
HETATM   15  C   UNL     1      25.526  42.775  49.915  1.00  0.00     0.001 A 
HETATM   16  C   UNL     1      25.782  41.958  48.815  1.00  0.00     0.001 A 
ENDBRANCH   2   5
BRANCH   1  17
HETATM   17  C   UNL     1      28.905  44.393  54.543  1.00  0.00     0.049 A 
HETATM   18  C   UNL     1      29.862  44.365  55.598  1.00  0.00    -0.031 A 
HETATM   19  C   UNL     1      29.840  45.361  56.584  1.00  0.00     0.011 A 
HETATM   20  C   UNL     1      28.910  46.385  56.526  1.00  0.00     0.025 A 
HETATM   21  C   UNL     1      28.008  46.445  55.465  1.00  0.00     0.042 A 
HETATM   22  C   UNL     1      27.986  45.469  54.429  1.00  0.00    -0.009 A 
HETATM   23 CL   UNL     1      26.897  47.783  55.504  1.00  0.00    -0.084 Cl
BRANCH  18  24
HETATM   24  C   UNL     1      31.021  43.385  55.652  1.00  0.00     0.036 C 
HETATM   25  C   UNL     1      31.685  43.385  57.024  1.00  0.00     0.010 C 
ENDBRANCH  18  24
BRANCH  22  26
HETATM   26  C   UNL     1      26.910  45.654  53.365  1.00  0.00     0.038 C 
HETATM   27  C   UNL     1      25.480  45.167  53.526  1.00  0.00     0.010 C 
ENDBRANCH  22  26
ENDBRANCH   1  17
TORSDOF 4
ENDMDL
MODEL 2
REMARK VINA RESULT:      -8.8      2.567      3.912
REMARK  4 active torsions:
REMARK  status: ('A' for Active; 'I' for Inactive)
REMARK    1  A    between atoms: C_2  and  C_3 
REMARK    2  A    between atoms: C_4  and  N_5 
REMARK       I    between atoms: N_5  and  C_6 
REMARK    3  A    between atoms: C_6  and  C_7 
REMARK    4  A    between atoms: C_19  and  C_20 
ROOT
HETATM    1  N   UNL     1      27.886  44.401  53.166  1.00  0.00    -0.321 N 
HETATM    2  C   UNL     1      26.584  43.950  53.340  1.00  0.00     0.277 C 
HETATM    3  O   UNL     1      26.122  43.413  54.335  1.00  0.00    -0.266 OA
HETATM    4  H   UNL     1      27.943  45.135  52.471  1.00  0.00     0.169 HD
ENDROOT
BRANCH   2   5
HETATM    5  C   UNL     1      25.684  44.284  52.143  1.00  0.00     0.156 A 
HETATM    6  N   UNL     1      25.175  45.486  52.150  1.00  0.00    -0.166 NA
HETATM    7  N   UNL     1      24.333  45.837  51.141  1.00  0.00    -0.242 N 
HETATM    8  C   UNL     1      23.923  45.026  50.112  1.00  0.00     0.272 A 
HETATM    9  H   UNL     1      23.928  46.768  51.180  1.00  0.00     0.192 HD
HETATM   10  O   UNL     1      23.123  45.401  49.263  1.00  0.00    -0.266 OA
HETATM   11  C   UNL     1      24.513  43.677  50.076  1.00  0.00     0.046 A 
HETATM   12  C   UNL     1      25.416  43.297  51.070  1.00  0.00     0.016 A 
HETATM   13  C   UNL     1      24.178  42.801  49.035  1.00  0.00     0.018 A 
HETATM   14  C   UNL     1      26.012  42.032  50.996  1.00  0.00     0.015 A 
HETATM   15  C   UNL     1      25.678  41.156  49.957  1.00  0.00     0.001 A 
HETATM   16  C   UNL     1      24.759  41.536  48.981  1.00  0.00     0.001 A 
ENDBRANCH   2   5
BRANCH   1  17
HETATM   17  C   UNL     1      28.828  44.362  54.213  1.00  0.00     0.049 A 
HETATM   18  C   UNL     1      29.829  43.350  54.167  1.00  0.00    -0.031 A 
HETATM   19  C   UNL     1      30.761  43.244  55.210  1.00  0.00     0.011 A 
HETATM   20  C   UNL     1      30.728  44.132  56.272  1.00  0.00     0.025 A 
HETATM   21  C   UNL     1      29.783  45.157  56.291  1.00  0.00     0.042 A 
HETATM   22  C   UNL     1      28.817  45.322  55.259  1.00  0.00    -0.009 A 
HETATM   23 CL   UNL     1      29.851  46.209  57.676  1.00  0.00    -0.084 Cl
BRANCH  18  24
HETATM   24  C   UNL     1      30.050  42.444  52.969  1.00  0.00     0.036 C 
HETATM   25  C   UNL     1      29.102  41.252  52.991  1.00  0.00     0.010 C 
ENDBRANCH  18  24
BRANCH  22  26
HETATM   26  C   UNL     1      27.828  46.465  55.451  1.00  0.00     0.038 C 
HETATM   27  C   UNL     1      27.926  47.791  54.716  1.00  0.00     0.010 C 
ENDBRANCH  22  26
ENDBRANCH   1  17
TORSDOF 4
ENDMDL
MODEL 3
REMARK VINA RESULT:      -8.8      2.828      4.252
REMARK  4 active torsions:
REMARK  status: ('A' for Active; 'I' for Inactive)
REMARK    1  A    between atoms: C_2  and  C_3 
REMARK    2  A    between atoms: C_4  and  N_5 
REMARK       I    between atoms: N_5  and  C_6 
REMARK    3  A    between atoms: C_6  and  C_7 
REMARK    4  A    between atoms: C_19  and  C_20 
ROOT
HETATM    1  N   UNL     1      27.239  44.613  53.097  1.00  0.00    -0.321 N 
HETATM    2  C   UNL     1      26.006  44.010  53.313  1.00  0.00     0.277 C 
HETATM    3  O   UNL     1      25.533  43.676  54.388  1.00  0.00    -0.266 OA
HETATM    4  H   UNL     1      27.255  45.143  52.235  1.00  0.00     0.169 HD
ENDROOT
BRANCH   2   5
HETATM    5  C   UNL     1      25.189  43.871  52.022  1.00  0.00     0.156 A 
HETATM    6  N   UNL     1      24.293  44.802  51.830  1.00  0.00    -0.166 NA
HETATM    7  N   UNL     1      23.502  44.720  50.727  1.00  0.00    -0.242 N 
HETATM    8  C   UNL     1      23.522  43.714  49.792  1.00  0.00     0.272 A 
HETATM    9  H   UNL     1      22.795  45.440  50.611  1.00  0.00     0.192 HD
HETATM   10  O   UNL     1      22.743  43.685  48.846  1.00  0.00    -0.266 OA
HETATM   11  C   UNL     1      24.547  42.674  49.981  1.00  0.00     0.046 A 
HETATM   12  C   UNL     1      25.407  42.750  51.078  1.00  0.00     0.016 A 
HETATM   13  C   UNL     1      24.660  41.634  49.049  1.00  0.00     0.018 A 
HETATM   14  C   UNL     1      26.412  41.786  51.218  1.00  0.00     0.015 A 
HETATM   15  C   UNL     1      26.527  40.747  50.288  1.00  0.00     0.001 A 
HETATM   16  C   UNL     1      25.650  40.667  49.208  1.00  0.00     0.001 A 
ENDBRANCH   2   5
BRANCH   1  17
HETATM   17  C   UNL     1      28.070  45.001  54.167  1.00  0.00     0.049 A 
HETATM   18  C   UNL     1      27.863  46.291  54.734  1.00  0.00    -0.031 A 
HETATM   19  C   UNL     1      28.695  46.738  55.770  1.00  0.00     0.011 A 
HETATM   20  C   UNL     1      29.703  45.924  56.260  1.00  0.00     0.025 A 
HETATM   21  C   UNL     1      29.873  44.641  55.742  1.00  0.00     0.042 A 
HETATM   22  C   UNL     1      29.054  44.127  54.697  1.00  0.00    -0.009 A 
HETATM   23 CL   UNL     1      31.168  43.717  56.447  1.00  0.00    -0.084 Cl
BRANCH  18  24
HETATM   24  C   UNL     1      26.684  47.181  54.382  1.00  0.00     0.036 C 
HETATM   25  C   UNL     1      26.484  48.275  55.424  1.00  0.00     0.010 C 
ENDBRANCH  18  24
BRANCH  22  26
HETATM   26  C   UNL     1      29.397  42.722  54.216  1.00  0.00     0.038 C 
HETATM   27  C   UNL     1      30.128  42.438  52.915  1.00  0.00     0.010 C 
ENDBRANCH  22  26
ENDBRANCH   1  17
TORSDOF 4
ENDMDL
MODEL 4
REMARK VINA RESULT:      -8.5      3.375      4.812
REMARK  4 active torsions:
REMARK  status: ('A' for Active; 'I' for Inactive)
REMARK    1  A    between atoms: C_2  and  C_3 
REMARK    2  A    between atoms: C_4  and  N_5 
REMARK       I    between atoms: N_5  and  C_6 
REMARK    3  A    between atoms: C_6  and  C_7 
REMARK    4  A    between atoms: C_19  and  C_20 
ROOT
HETATM    1  N   UNL     1      26.898  44.642  52.799  1.00  0.00    -0.321 N 
HETATM    2  C   UNL     1      25.604  44.201  53.042  1.00  0.00     0.277 C 
HETATM    3  O   UNL     1      25.114  43.934  54.128  1.00  0.00    -0.266 OA
HETATM    4  H   UNL     1      26.964  45.162  51.933  1.00  0.00     0.169 HD
ENDROOT
BRANCH   2   5
HETATM    5  C   UNL     1      24.750  44.160  51.767  1.00  0.00     0.156 A 
HETATM    6  N   UNL     1      24.282  42.983  51.451  1.00  0.00    -0.166 NA
HETATM    7  N   UNL     1      23.552  42.863  50.310  1.00  0.00    -0.242 N 
HETATM    8  C   UNL     1      23.283  43.868  49.414  1.00  0.00     0.272 A 
HETATM    9  H   UNL     1      23.219  41.933  50.070  1.00  0.00     0.192 HD
HETATM   10  O   UNL     1      22.654  43.671  48.381  1.00  0.00    -0.266 OA
HETATM   11  C   UNL     1      23.780  45.207  49.774  1.00  0.00     0.046 A 
HETATM   12  C   UNL     1      24.495  45.377  50.961  1.00  0.00     0.016 A 
HETATM   13  C   UNL     1      23.513  46.295  48.933  1.00  0.00     0.018 A 
HETATM   14  C   UNL     1      24.916  46.663  51.319  1.00  0.00     0.015 A 
HETATM   15  C   UNL     1      24.650  47.751  50.480  1.00  0.00     0.001 A 
HETATM   16  C   UNL     1      23.955  47.568  49.287  1.00  0.00     0.001 A 
ENDBRANCH   2   5
BRANCH   1  17
HETATM   17  C   UNL     1      27.792  44.928  53.849  1.00  0.00     0.049 A 
HETATM   18  C   UNL     1      27.653  46.178  54.518  1.00  0.00    -0.031 A 
HETATM   19  C   UNL     1      28.549  46.524  55.539  1.00  0.00     0.011 A 
HETATM   20  C   UNL     1      29.553  45.650  55.918  1.00  0.00     0.025 A 
HETATM   21  C   UNL     1      29.658  44.403  55.301  1.00  0.00     0.042 A 
HETATM   22  C   UNL     1      28.774  43.991  54.265  1.00  0.00    -0.009 A 
HETATM   23 CL   UNL     1      30.956  43.395  55.871  1.00  0.00    -0.084 Cl
BRANCH  18  24
HETATM   24  C   UNL     1      26.487  47.124  54.291  1.00  0.00     0.036 C 
HETATM   25  C   UNL     1      26.465  48.237  55.332  1.00  0.00     0.010 C 
ENDBRANCH  18  24
BRANCH  22  26
HETATM   26  C   UNL     1      29.048  42.616  53.667  1.00  0.00     0.038 C 
HETATM   27  C   UNL     1      28.063  41.462  53.731  1.00  0.00     0.010 C 
ENDBRANCH  22  26
ENDBRANCH   1  17
TORSDOF 4
ENDMDL
MODEL 5
REMARK VINA RESULT:      -8.4      1.037      2.855
REMARK  4 active torsions:
REMARK  status: ('A' for Active; 'I' for Inactive)
REMARK    1  A    between atoms: C_2  and  C_3 
REMARK    2  A    between atoms: C_4  and  N_5 
REMARK       I    between atoms: N_5  and  C_6 
REMARK    3  A    between atoms: C_6  and  C_7 
REMARK    4  A    between atoms: C_19  and  C_20 
ROOT
HETATM    1  N   UNL     1      28.763  43.323  53.239  1.00  0.00    -0.321 N 
HETATM    2  C   UNL     1      28.058  42.146  53.452  1.00  0.00     0.277 C 
HETATM    3  O   UNL     1      27.386  41.862  54.432  1.00  0.00    -0.266 OA
HETATM    4  H   UNL     1      28.903  43.507  52.254  1.00  0.00     0.169 HD
ENDROOT
BRANCH   2   5
HETATM    5  C   UNL     1      28.114  41.203  52.243  1.00  0.00     0.156 A 
HETATM    6  N   UNL     1      29.084  40.328  52.267  1.00  0.00    -0.166 NA
HETATM    7  N   UNL     1      29.221  39.487  51.207  1.00  0.00    -0.242 N 
HETATM    8  C   UNL     1      28.451  39.488  50.070  1.00  0.00     0.272 A 
HETATM    9  H   UNL     1      29.998  38.832  51.235  1.00  0.00     0.192 HD
HETATM   10  O   UNL     1      28.667  38.727  49.134  1.00  0.00    -0.266 OA
HETATM   11  C   UNL     1      27.336  40.450  50.043  1.00  0.00     0.046 A 
HETATM   12  C   UNL     1      27.137  41.299  51.133  1.00  0.00     0.016 A 
HETATM   13  C   UNL     1      26.479  40.487  48.936  1.00  0.00     0.018 A 
HETATM   14  C   UNL     1      26.042  42.171  51.120  1.00  0.00     0.015 A 
HETATM   15  C   UNL     1      25.184  42.210  50.015  1.00  0.00     0.001 A 
HETATM   16  C   UNL     1      25.404  41.374  48.922  1.00  0.00     0.001 A 
ENDBRANCH   2   5
BRANCH   1  17
HETATM   17  C   UNL     1      28.693  44.402  54.143  1.00  0.00     0.049 A 
HETATM   18  C   UNL     1      27.624  45.330  53.987  1.00  0.00    -0.031 A 
HETATM   19  C   UNL     1      27.540  46.443  54.836  1.00  0.00     0.011 A 
HETATM   20  C   UNL     1      28.476  46.634  55.838  1.00  0.00     0.025 A 
HETATM   21  C   UNL     1      29.492  45.698  56.026  1.00  0.00     0.042 A 
HETATM   22  C   UNL     1      29.625  44.543  55.204  1.00  0.00    -0.009 A 
HETATM   23 CL   UNL     1      30.599  46.048  57.321  1.00  0.00    -0.084 Cl
BRANCH  18  24
HETATM   24  C   UNL     1      26.461  45.116  53.035  1.00  0.00     0.036 C 
HETATM   25  C   UNL     1      25.214  44.651  53.777  1.00  0.00     0.010 C 
ENDBRANCH  18  24
BRANCH  22  26
HETATM   26  C   UNL     1      30.814  43.642  55.514  1.00  0.00     0.038 C 
HETATM   27  C   UNL     1      30.992  42.913  56.835  1.00  0.00     0.010 C 
ENDBRANCH  22  26
ENDBRANCH   1  17
TORSDOF 4
ENDMDL
MODEL 6
REMARK VINA RESULT:      -8.2      2.984      7.061
REMARK  4 active torsions:
REMARK  status: ('A' for Active; 'I' for Inactive)
REMARK    1  A    between atoms: C_2  and  C_3 
REMARK    2  A    between atoms: C_4  and  N_5 
REMARK       I    between atoms: N_5  and  C_6 
REMARK    3  A    between atoms: C_6  and  C_7 
REMARK    4  A    between atoms: C_19  and  C_20 
ROOT
HETATM    1  N   UNL     1      26.603  42.704  51.855  1.00  0.00    -0.321 N 
HETATM    2  C   UNL     1      27.272  43.908  51.682  1.00  0.00     0.277 C 
HETATM    3  O   UNL     1      27.602  44.416  50.622  1.00  0.00    -0.266 OA
HETATM    4  H   UNL     1      26.099  42.674  52.732  1.00  0.00     0.169 HD
ENDROOT
BRANCH   2   5
HETATM    5  C   UNL     1      27.499  44.648  53.008  1.00  0.00     0.156 A 
HETATM    6  N   UNL     1      26.629  45.584  53.276  1.00  0.00    -0.166 NA
HETATM    7  N   UNL     1      26.793  46.310  54.415  1.00  0.00    -0.242 N 
HETATM    8  C   UNL     1      27.824  46.183  55.312  1.00  0.00     0.272 A 
HETATM    9  H   UNL     1      26.119  47.050  54.591  1.00  0.00     0.192 HD
HETATM   10  O   UNL     1      27.928  46.908  56.295  1.00  0.00    -0.266 OA
HETATM   11  C   UNL     1      28.795  45.111  55.036  1.00  0.00     0.046 A 
HETATM   12  C   UNL     1      28.635  44.315  53.901  1.00  0.00     0.016 A 
HETATM   13  C   UNL     1      29.856  44.890  55.925  1.00  0.00     0.018 A 
HETATM   14  C   UNL     1      29.533  43.266  53.677  1.00  0.00     0.015 A 
HETATM   15  C   UNL     1      30.592  43.043  54.564  1.00  0.00     0.001 A 
HETATM   16  C   UNL     1      30.757  43.856  55.683  1.00  0.00     0.001 A 
ENDBRANCH   2   5
BRANCH   1  17
HETATM   17  C   UNL     1      26.133  41.954  50.759  1.00  0.00     0.049 A 
HETATM   18  C   UNL     1      26.980  40.932  50.242  1.00  0.00    -0.031 A 
HETATM   19  C   UNL     1      26.574  40.191  49.123  1.00  0.00     0.011 A 
HETATM   20  C   UNL     1      25.345  40.430  48.533  1.00  0.00     0.025 A 
HETATM   21  C   UNL     1      24.491  41.393  49.070  1.00  0.00     0.042 A 
HETATM   22  C   UNL     1      24.843  42.171  50.209  1.00  0.00    -0.009 A 
HETATM   23 CL   UNL     1      22.975  41.592  48.241  1.00  0.00    -0.084 Cl
BRANCH  18  24
HETATM   24  C   UNL     1      28.263  40.484  50.920  1.00  0.00     0.036 C 
HETATM   25  C   UNL     1      28.780  39.181  50.324  1.00  0.00     0.010 C 
ENDBRANCH  18  24
BRANCH  22  26
HETATM   26  C   UNL     1      23.816  43.210  50.645  1.00  0.00     0.038 C 
HETATM   27  C   UNL     1      23.950  44.694  50.353  1.00  0.00     0.010 C 
ENDBRANCH  22  26
ENDBRANCH   1  17
TORSDOF 4
ENDMDL
MODEL 7
REMARK VINA RESULT:      -8.2      4.706      6.371
REMARK  4 active torsions:
REMARK  status: ('A' for Active; 'I' for Inactive)
REMARK    1  A    between atoms: C_2  and  C_3 
REMARK    2  A    between atoms: C_4  and  N_5 
REMARK       I    between atoms: N_5  and  C_6 
REMARK    3  A    between atoms: C_6  and  C_7 
REMARK    4  A    between atoms: C_19  and  C_20 
ROOT
HETATM    1  N   UNL     1      26.648  45.037  51.997  1.00  0.00    -0.321 N 
HETATM    2  C   UNL     1      26.867  45.508  50.709  1.00  0.00     0.277 C 
HETATM    3  O   UNL     1      27.807  45.233  49.979  1.00  0.00    -0.266 OA
HETATM    4  H   UNL     1      25.668  45.064  52.249  1.00  0.00     0.169 HD
ENDROOT
BRANCH   2   5
HETATM    5  C   UNL     1      25.715  46.387  50.204  1.00  0.00     0.156 A 
HETATM    6  N   UNL     1      24.521  45.883  50.365  1.00  0.00    -0.166 NA
HETATM    7  N   UNL     1      23.454  46.588  49.902  1.00  0.00    -0.242 N 
HETATM    8  C   UNL     1      23.507  47.787  49.233  1.00  0.00     0.272 A 
HETATM    9  H   UNL     1      22.537  46.166  50.015  1.00  0.00     0.192 HD
HETATM   10  O   UNL     1      22.501  48.340  48.804  1.00  0.00    -0.266 OA
HETATM   11  C   UNL     1      24.845  48.380  49.072  1.00  0.00     0.046 A 
HETATM   12  C   UNL     1      25.960  47.707  49.574  1.00  0.00     0.016 A 
HETATM   13  C   UNL     1      24.981  49.621  48.435  1.00  0.00     0.018 A 
HETATM   14  C   UNL     1      27.219  48.306  49.462  1.00  0.00     0.015 A 
HETATM   15  C   UNL     1      27.358  49.545  48.828  1.00  0.00     0.001 A 
HETATM   16  C   UNL     1      26.242  50.200  48.310  1.00  0.00     0.001 A 
ENDBRANCH   2   5
BRANCH   1  17
HETATM   17  C   UNL     1      27.488  44.070  52.584  1.00  0.00     0.049 A 
HETATM   18  C   UNL     1      28.223  44.446  53.745  1.00  0.00    -0.031 A 
HETATM   19  C   UNL     1      29.106  43.531  54.336  1.00  0.00     0.011 A 
HETATM   20  C   UNL     1      29.251  42.258  53.813  1.00  0.00     0.025 A 
HETATM   21  C   UNL     1      28.493  41.870  52.708  1.00  0.00     0.042 A 
HETATM   22  C   UNL     1      27.574  42.750  52.070  1.00  0.00    -0.009 A 
HETATM   23 CL   UNL     1      28.763  40.244  52.152  1.00  0.00    -0.084 Cl
BRANCH  18  24
HETATM   24  C   UNL     1      28.005  45.752  54.488  1.00  0.00     0.036 C 
HETATM   25  C   UNL     1      29.065  45.964  55.561  1.00  0.00     0.010 C 
ENDBRANCH  18  24
BRANCH  22  26
HETATM   26  C   UNL     1      26.855  42.186  50.850  1.00  0.00     0.038 C 
HETATM   27  C   UNL     1      25.343  42.147  50.712  1.00  0.00     0.010 C 
ENDBRANCH  22  26
ENDBRANCH   1  17
TORSDOF 4
ENDMDL
MODEL 8
REMARK VINA RESULT:      -8.1      2.612      6.504
REMARK  4 active torsions:
REMARK  status: ('A' for Active; 'I' for Inactive)
REMARK    1  A    between atoms: C_2  and  C_3 
REMARK    2  A    between atoms: C_4  and  N_5 
REMARK       I    between atoms: N_5  and  C_6 
REMARK    3  A    between atoms: C_6  and  C_7 
REMARK    4  A    between atoms: C_19  and  C_20 
ROOT
HETATM    1  N   UNL     1      26.773  42.669  52.005  1.00  0.00    -0.321 N 
HETATM    2  C   UNL     1      27.812  43.565  51.791  1.00  0.00     0.277 C 
HETATM    3  O   UNL     1      28.008  44.231  50.786  1.00  0.00    -0.266 OA
HETATM    4  H   UNL     1      26.580  42.542  52.991  1.00  0.00     0.169 HD
ENDROOT
BRANCH   2   5
HETATM    5  C   UNL     1      28.703  43.736  53.029  1.00  0.00     0.156 A 
HETATM    6  N   UNL     1      29.697  42.893  53.117  1.00  0.00    -0.166 NA
HETATM    7  N   UNL     1      30.504  42.958  54.210  1.00  0.00    -0.242 N 
HETATM    8  C   UNL     1      30.354  43.813  55.274  1.00  0.00     0.272 A 
HETATM    9  H   UNL     1      31.255  42.277  54.271  1.00  0.00     0.192 HD
HETATM   10  O   UNL     1      31.097  43.779  56.249  1.00  0.00    -0.266 OA
HETATM   11  C   UNL     1      29.255  44.788  55.173  1.00  0.00     0.046 A 
HETATM   12  C   UNL     1      28.434  44.781  54.044  1.00  0.00     0.016 A 
HETATM   13  C   UNL     1      29.059  45.721  56.199  1.00  0.00     0.018 A 
HETATM   14  C   UNL     1      27.426  45.746  53.935  1.00  0.00     0.015 A 
HETATM   15  C   UNL     1      27.230  46.680  54.958  1.00  0.00     0.001 A 
HETATM   16  C   UNL     1      28.040  46.665  56.091  1.00  0.00     0.001 A 
ENDBRANCH   2   5
BRANCH   1  17
HETATM   17  C   UNL     1      25.735  42.500  51.068  1.00  0.00     0.049 A 
HETATM   18  C   UNL     1      25.787  41.357  50.219  1.00  0.00    -0.031 A 
HETATM   19  C   UNL     1      24.800  41.173  49.240  1.00  0.00     0.011 A 
HETATM   20  C   UNL     1      23.764  42.081  49.108  1.00  0.00     0.025 A 
HETATM   21  C   UNL     1      23.682  43.172  49.973  1.00  0.00     0.042 A 
HETATM   22  C   UNL     1      24.648  43.409  50.992  1.00  0.00    -0.009 A 
HETATM   23 CL   UNL     1      22.331  44.235  49.709  1.00  0.00    -0.084 Cl
BRANCH  18  24
HETATM   24  C   UNL     1      26.781  40.224  50.399  1.00  0.00     0.036 C 
HETATM   25  C   UNL     1      27.990  40.396  49.487  1.00  0.00     0.010 C 
ENDBRANCH  18  24
BRANCH  22  26
HETATM   26  C   UNL     1      24.438  44.668  51.825  1.00  0.00     0.038 C 
HETATM   27  C   UNL     1      24.973  46.033  51.430  1.00  0.00     0.010 C 
ENDBRANCH  22  26
ENDBRANCH   1  17
TORSDOF 4
ENDMDL
MODEL 9
REMARK VINA RESULT:      -8.0      8.015     10.157
REMARK  4 active torsions:
REMARK  status: ('A' for Active; 'I' for Inactive)
REMARK    1  A    between atoms: C_2  and  C_3 
REMARK    2  A    between atoms: C_4  and  N_5 
REMARK       I    between atoms: N_5  and  C_6 
REMARK    3  A    between atoms: C_6  and  C_7 
REMARK    4  A    between atoms: C_19  and  C_20 
ROOT
HETATM    1  N   UNL     1      22.750  47.845  49.525  1.00  0.00    -0.321 N 
HETATM    2  C   UNL     1      21.988  47.681  48.376  1.00  0.00     0.277 C 
HETATM    3  O   UNL     1      22.402  47.442  47.252  1.00  0.00    -0.266 OA
HETATM    4  H   UNL     1      22.220  47.640  50.363  1.00  0.00     0.169 HD
ENDROOT
BRANCH   2   5
HETATM    5  C   UNL     1      20.481  47.735  48.660  1.00  0.00     0.156 A 
HETATM    6  N   UNL     1      19.880  46.576  48.683  1.00  0.00    -0.166 NA
HETATM    7  N   UNL     1      18.535  46.550  48.887  1.00  0.00    -0.242 N 
HETATM    8  C   UNL     1      17.720  47.645  49.036  1.00  0.00     0.272 A 
HETATM    9  H   UNL     1      18.084  45.640  48.876  1.00  0.00     0.192 HD
HETATM   10  O   UNL     1      16.506  47.542  49.170  1.00  0.00    -0.266 OA
HETATM   11  C   UNL     1      18.390  48.956  49.042  1.00  0.00     0.046 A 
HETATM   12  C   UNL     1      19.775  49.019  48.880  1.00  0.00     0.016 A 
HETATM   13  C   UNL     1      17.634  50.121  49.228  1.00  0.00     0.018 A 
HETATM   14  C   UNL     1      20.407  50.266  48.940  1.00  0.00     0.015 A 
HETATM   15  C   UNL     1      19.654  51.431  49.127  1.00  0.00     0.001 A 
HETATM   16  C   UNL     1      18.270  51.360  49.266  1.00  0.00     0.001 A 
ENDBRANCH   2   5
BRANCH   1  17
HETATM   17  C   UNL     1      24.146  47.649  49.523  1.00  0.00     0.049 A 
HETATM   18  C   UNL     1      24.633  46.342  49.810  1.00  0.00    -0.031 A 
HETATM   19  C   UNL     1      26.015  46.111  49.863  1.00  0.00     0.011 A 
HETATM   20  C   UNL     1      26.908  47.139  49.615  1.00  0.00     0.025 A 
HETATM   21  C   UNL     1      26.433  48.407  49.281  1.00  0.00     0.042 A 
HETATM   22  C   UNL     1      25.043  48.702  49.202  1.00  0.00    -0.009 A 
HETATM   23 CL   UNL     1      27.655  49.609  48.986  1.00  0.00    -0.084 Cl
BRANCH  18  24
HETATM   24  C   UNL     1      23.738  45.121  49.926  1.00  0.00     0.036 C 
HETATM   25  C   UNL     1      23.740  44.307  48.638  1.00  0.00     0.010 C 
ENDBRANCH  18  24
BRANCH  22  26
HETATM   26  C   UNL     1      24.688  50.146  48.867  1.00  0.00     0.038 C 
HETATM   27  C   UNL     1      23.911  50.551  47.626  1.00  0.00     0.010 C 
ENDBRANCH  22  26
ENDBRANCH   1  17
TORSDOF 4
ENDMDL
MODEL 10
REMARK VINA RESULT:      -8.0      1.597      2.350
REMARK  4 active torsions:
REMARK  status: ('A' for Active; 'I' for Inactive)
REMARK    1  A    between atoms: C_2  and  C_3 
REMARK    2  A    between atoms: C_4  and  N_5 
REMARK       I    between atoms: N_5  and  C_6 
REMARK    3  A    between atoms: C_6  and  C_7 
REMARK    4  A    between atoms: C_19  and  C_20 
ROOT
HETATM    1  N   UNL     1      28.433  44.127  53.019  1.00  0.00    -0.321 N 
HETATM    2  C   UNL     1      27.612  43.011  52.920  1.00  0.00     0.277 C 
HETATM    3  O   UNL     1      26.904  42.543  53.798  1.00  0.00    -0.266 OA
HETATM    4  H   UNL     1      28.602  44.554  52.117  1.00  0.00     0.169 HD
ENDROOT
BRANCH   2   5
HETATM    5  C   UNL     1      27.588  42.427  51.501  1.00  0.00     0.156 A 
HETATM    6  N   UNL     1      26.981  43.161  50.609  1.00  0.00    -0.166 NA
HETATM    7  N   UNL     1      26.884  42.686  49.338  1.00  0.00    -0.242 N 
HETATM    8  C   UNL     1      27.335  41.467  48.895  1.00  0.00     0.272 A 
HETATM    9  H   UNL     1      26.385  43.262  48.666  1.00  0.00     0.192 HD
HETATM   10  O   UNL     1      27.168  41.088  47.742  1.00  0.00    -0.266 OA
HETATM   11  C   UNL     1      28.048  40.641  49.885  1.00  0.00     0.046 A 
HETATM   12  C   UNL     1      28.206  41.116  51.188  1.00  0.00     0.016 A 
HETATM   13  C   UNL     1      28.574  39.400  49.503  1.00  0.00     0.018 A 
HETATM   14  C   UNL     1      28.931  40.347  52.105  1.00  0.00     0.015 A 
HETATM   15  C   UNL     1      29.459  39.108  51.725  1.00  0.00     0.001 A 
HETATM   16  C   UNL     1      29.276  38.632  50.428  1.00  0.00     0.001 A 
ENDBRANCH   2   5
BRANCH   1  17
HETATM   17  C   UNL     1      28.461  44.925  54.180  1.00  0.00     0.049 A 
HETATM   18  C   UNL     1      29.389  44.576  55.202  1.00  0.00    -0.031 A 
HETATM   19  C   UNL     1      29.421  45.314  56.394  1.00  0.00     0.011 A 
HETATM   20  C   UNL     1      28.572  46.392  56.574  1.00  0.00     0.025 A 
HETATM   21  C   UNL     1      27.700  46.768  55.553  1.00  0.00     0.042 A 
HETATM   22  C   UNL     1      27.627  46.065  54.318  1.00  0.00    -0.009 A 
HETATM   23 CL   UNL     1      26.691  48.142  55.901  1.00  0.00    -0.084 Cl
BRANCH  18  24
HETATM   24  C   UNL     1      30.471  43.524  55.029  1.00  0.00     0.036 C 
HETATM   25  C   UNL     1      31.257  43.319  56.318  1.00  0.00     0.010 C 
ENDBRANCH  18  24
BRANCH  22  26
HETATM   26  C   UNL     1      26.591  46.577  53.323  1.00  0.00     0.038 C 
HETATM   27  C   UNL     1      25.316  45.826  52.981  1.00  0.00     0.010 C 
ENDBRANCH  22  26
ENDBRANCH   1  17
TORSDOF 4
ENDMDL
