MODEL 1
REMARK VINA RESULT:      -9.5      0.000      0.000
REMARK  4 active torsions:
REMARK  status: ('A' for Active; 'I' for Inactive)
REMARK    1  A    between atoms: C_4  and  C_5 
REMARK    2  A    between atoms: C_8  and  C_9 
REMARK    3  A    between atoms: C_9  and  N_10 
REMARK       I    between atoms: N_10  and  C_11 
REMARK       I    between atoms: C_11  and  N_12 
REMARK    4  A    between atoms: N_12  and  C_13 
ROOT
HETATM    1  C   UNL     1      26.293  43.460  50.746  1.00  0.00     0.213 C 
ENDROOT
BRANCH   1   2
HETATM    2  C   UNL     1      27.232  43.312  51.882  1.00  0.00     0.190 A 
HETATM    3  O   UNL     1      27.577  42.042  52.233  1.00  0.00    -0.194 OA
HETATM    4  N   UNL     1      28.391  42.149  53.357  1.00  0.00    -0.106 NA
HETATM    5  C   UNL     1      28.458  43.473  53.584  1.00  0.00     0.189 A 
HETATM    6  N   UNL     1      27.767  44.229  52.658  1.00  0.00    -0.202 NA
BRANCH   5   7
HETATM    7  C   UNL     1      29.158  44.072  54.717  1.00  0.00     0.015 A 
HETATM    8  C   UNL     1      30.219  43.391  55.335  1.00  0.00     0.022 A 
HETATM    9  C   UNL     1      30.917  43.960  56.411  1.00  0.00    -0.061 A 
HETATM   10  C   UNL     1      32.065  43.238  57.053  1.00  0.00     0.048 C 
HETATM   11  C   UNL     1      30.554  45.234  56.860  1.00  0.00     0.007 A 
HETATM   12  C   UNL     1      29.502  45.922  56.257  1.00  0.00     0.002 A 
HETATM   13  C   UNL     1      28.806  45.343  55.193  1.00  0.00     0.015 A 
ENDBRANCH   5   7
ENDBRANCH   1   2
BRANCH   1  14
HETATM   14  N   UNL     1      25.989  44.856  50.503  1.00  0.00    -0.335 N 
HETATM   15  C   UNL     1      24.769  45.322  50.882  1.00  0.00     0.321 C 
HETATM   16  N   UNL     1      24.517  46.648  50.737  1.00  0.00    -0.309 N 
HETATM   17  O   UNL     1      23.915  44.599  51.392  1.00  0.00    -0.247 OA
HETATM   18  H   UNL     1      23.668  46.906  51.226  1.00  0.00     0.170 HD
HETATM   19  H   UNL     1      26.741  45.514  50.657  1.00  0.00     0.164 HD
BRANCH  16  20
HETATM   20  C   UNL     1      25.136  47.669  49.993  1.00  0.00     0.036 A 
HETATM   21  C   UNL     1      26.515  47.851  49.891  1.00  0.00     0.029 A 
HETATM   22  C   UNL     1      27.037  48.883  49.101  1.00  0.00     0.002 A 
HETATM   23  C   UNL     1      26.184  49.729  48.397  1.00  0.00     0.000 A 
HETATM   24  C   UNL     1      24.808  49.542  48.472  1.00  0.00     0.002 A 
HETATM   25  C   UNL     1      24.288  48.512  49.261  1.00  0.00     0.029 A 
ENDBRANCH  16  20
ENDBRANCH   1  14
TORSDOF 4
ENDMDL
MODEL 2
REMARK VINA RESULT:      -9.1      1.135      7.872
REMARK  4 active torsions:
REMARK  status: ('A' for Active; 'I' for Inactive)
REMARK    1  A    between atoms: C_4  and  C_5 
REMARK    2  A    between atoms: C_8  and  C_9 
REMARK    3  A    between atoms: C_9  and  N_10 
REMARK       I    between atoms: N_10  and  C_11 
REMARK       I    between atoms: C_11  and  N_12 
REMARK    4  A    between atoms: N_12  and  C_13 
ROOT
HETATM    1  C   UNL     1      25.220  44.368  53.734  1.00  0.00     0.213 C 
ENDROOT
BRANCH   1   2
HETATM    2  C   UNL     1      25.015  45.179  52.512  1.00  0.00     0.190 A 
HETATM    3  O   UNL     1      24.155  44.681  51.581  1.00  0.00    -0.194 OA
HETATM    4  N   UNL     1      24.184  45.562  50.503  1.00  0.00    -0.106 NA
HETATM    5  C   UNL     1      25.064  46.506  50.880  1.00  0.00     0.189 A 
HETATM    6  N   UNL     1      25.579  46.310  52.146  1.00  0.00    -0.202 NA
BRANCH   5   7
HETATM    7  C   UNL     1      25.478  47.620  50.032  1.00  0.00     0.015 A 
HETATM    8  C   UNL     1      24.518  48.395  49.359  1.00  0.00     0.022 A 
HETATM    9  C   UNL     1      24.897  49.482  48.557  1.00  0.00    -0.061 A 
HETATM   10  C   UNL     1      23.867  50.319  47.859  1.00  0.00     0.048 C 
HETATM   11  C   UNL     1      26.253  49.804  48.443  1.00  0.00     0.007 A 
HETATM   12  C   UNL     1      27.217  49.044  49.104  1.00  0.00     0.002 A 
HETATM   13  C   UNL     1      26.832  47.957  49.892  1.00  0.00     0.015 A 
ENDBRANCH   5   7
ENDBRANCH   1   2
BRANCH   1  14
HETATM   14  N   UNL     1      26.617  44.354  54.119  1.00  0.00    -0.335 N 
HETATM   15  C   UNL     1      27.492  43.668  53.335  1.00  0.00     0.321 C 
HETATM   16  N   UNL     1      28.813  43.730  53.645  1.00  0.00    -0.309 N 
HETATM   17  O   UNL     1      27.135  43.043  52.338  1.00  0.00    -0.247 OA
HETATM   18  H   UNL     1      29.375  43.351  52.891  1.00  0.00     0.170 HD
HETATM   19  H   UNL     1      26.992  45.219  54.485  1.00  0.00     0.164 HD
BRANCH  16  20
HETATM   20  C   UNL     1      29.513  44.120  54.801  1.00  0.00     0.036 A 
HETATM   21  C   UNL     1      29.303  45.315  55.489  1.00  0.00     0.029 A 
HETATM   22  C   UNL     1      30.032  45.601  56.650  1.00  0.00     0.002 A 
HETATM   23  C   UNL     1      30.965  44.688  57.137  1.00  0.00     0.000 A 
HETATM   24  C   UNL     1      31.164  43.483  56.472  1.00  0.00     0.002 A 
HETATM   25  C   UNL     1      30.437  43.198  55.314  1.00  0.00     0.029 A 
ENDBRANCH  16  20
ENDBRANCH   1  14
TORSDOF 4
ENDMDL
MODEL 3
REMARK VINA RESULT:      -8.7      2.026      8.446
REMARK  4 active torsions:
REMARK  status: ('A' for Active; 'I' for Inactive)
REMARK    1  A    between atoms: C_4  and  C_5 
REMARK    2  A    between atoms: C_8  and  C_9 
REMARK    3  A    between atoms: C_9  and  N_10 
REMARK       I    between atoms: N_10  and  C_11 
REMARK       I    between atoms: C_11  and  N_12 
REMARK    4  A    between atoms: N_12  and  C_13 
ROOT
HETATM    1  C   UNL     1      25.714  44.521  49.861  1.00  0.00     0.213 C 
ENDROOT
BRANCH   1   2
HETATM    2  C   UNL     1      25.381  45.957  49.725  1.00  0.00     0.190 A 
HETATM    3  O   UNL     1      26.267  46.846  50.255  1.00  0.00    -0.194 OA
HETATM    4  N   UNL     1      25.712  48.111  50.080  1.00  0.00    -0.106 NA
HETATM    5  C   UNL     1      24.540  47.868  49.467  1.00  0.00     0.189 A 
HETATM    6  N   UNL     1      24.319  46.530  49.204  1.00  0.00    -0.202 NA
BRANCH   5   7
HETATM    7  C   UNL     1      23.563  48.902  49.136  1.00  0.00     0.015 A 
HETATM    8  C   UNL     1      22.187  48.630  49.220  1.00  0.00     0.022 A 
HETATM    9  C   UNL     1      21.235  49.618  48.926  1.00  0.00    -0.061 A 
HETATM   10  C   UNL     1      19.767  49.330  49.039  1.00  0.00     0.048 C 
HETATM   11  C   UNL     1      21.670  50.896  48.561  1.00  0.00     0.007 A 
HETATM   12  C   UNL     1      23.032  51.180  48.474  1.00  0.00     0.002 A 
HETATM   13  C   UNL     1      23.973  50.188  48.757  1.00  0.00     0.015 A 
ENDBRANCH   5   7
ENDBRANCH   1   2
BRANCH   1  14
HETATM   14  N   UNL     1      26.300  44.245  51.158  1.00  0.00    -0.335 N 
HETATM   15  C   UNL     1      25.478  43.821  52.156  1.00  0.00     0.321 C 
HETATM   16  N   UNL     1      26.039  43.476  53.343  1.00  0.00    -0.309 N 
HETATM   17  O   UNL     1      24.265  43.694  52.003  1.00  0.00    -0.247 OA
HETATM   18  H   UNL     1      25.366  42.999  53.931  1.00  0.00     0.170 HD
HETATM   19  H   UNL     1      27.204  43.792  51.157  1.00  0.00     0.164 HD
BRANCH  16  20
HETATM   20  C   UNL     1      27.296  43.727  53.923  1.00  0.00     0.036 A 
HETATM   21  C   UNL     1      27.659  44.923  54.543  1.00  0.00     0.029 A 
HETATM   22  C   UNL     1      28.928  45.067  55.116  1.00  0.00     0.002 A 
HETATM   23  C   UNL     1      29.837  44.012  55.085  1.00  0.00     0.000 A 
HETATM   24  C   UNL     1      29.478  42.808  54.490  1.00  0.00     0.002 A 
HETATM   25  C   UNL     1      28.211  42.664  53.918  1.00  0.00     0.029 A 
ENDBRANCH  16  20
ENDBRANCH   1  14
TORSDOF 4
ENDMDL
MODEL 4
REMARK VINA RESULT:      -8.7      3.428      9.396
REMARK  4 active torsions:
REMARK  status: ('A' for Active; 'I' for Inactive)
REMARK    1  A    between atoms: C_4  and  C_5 
REMARK    2  A    between atoms: C_8  and  C_9 
REMARK    3  A    between atoms: C_9  and  N_10 
REMARK       I    between atoms: N_10  and  C_11 
REMARK       I    between atoms: C_11  and  N_12 
REMARK    4  A    between atoms: N_12  and  C_13 
ROOT
HETATM    1  C   UNL     1      24.434  46.098  49.636  1.00  0.00     0.213 C 
ENDROOT
BRANCH   1   2
HETATM    2  C   UNL     1      23.838  47.439  49.441  1.00  0.00     0.190 A 
HETATM    3  O   UNL     1      24.610  48.509  49.781  1.00  0.00    -0.194 OA
HETATM    4  N   UNL     1      23.823  49.642  49.591  1.00  0.00    -0.106 NA
HETATM    5  C   UNL     1      22.648  49.151  49.160  1.00  0.00     0.189 A 
HETATM    6  N   UNL     1      22.637  47.776  49.027  1.00  0.00    -0.202 NA
BRANCH   5   7
HETATM    7  C   UNL     1      21.471  49.972  48.889  1.00  0.00     0.015 A 
HETATM    8  C   UNL     1      20.806  49.873  47.656  1.00  0.00     0.022 A 
HETATM    9  C   UNL     1      19.661  50.639  47.386  1.00  0.00    -0.061 A 
HETATM   10  C   UNL     1      18.942  50.513  46.076  1.00  0.00     0.048 C 
HETATM   11  C   UNL     1      19.171  51.501  48.373  1.00  0.00     0.007 A 
HETATM   12  C   UNL     1      19.821  51.609  49.601  1.00  0.00     0.002 A 
HETATM   13  C   UNL     1      20.965  50.851  49.857  1.00  0.00     0.015 A 
ENDBRANCH   5   7
ENDBRANCH   1   2
BRANCH   1  14
HETATM   14  N   UNL     1      25.067  45.995  50.936  1.00  0.00    -0.335 N 
HETATM   15  C   UNL     1      24.650  45.011  51.777  1.00  0.00     0.321 C 
HETATM   16  N   UNL     1      25.304  44.857  52.957  1.00  0.00    -0.309 N 
HETATM   17  O   UNL     1      23.743  44.233  51.484  1.00  0.00    -0.247 OA
HETATM   18  H   UNL     1      25.039  43.986  53.401  1.00  0.00     0.170 HD
HETATM   19  H   UNL     1      26.065  46.157  50.965  1.00  0.00     0.164 HD
BRANCH  16  20
HETATM   20  C   UNL     1      26.172  45.686  53.690  1.00  0.00     0.036 A 
HETATM   21  C   UNL     1      25.882  46.996  54.072  1.00  0.00     0.029 A 
HETATM   22  C   UNL     1      26.802  47.733  54.828  1.00  0.00     0.002 A 
HETATM   23  C   UNL     1      28.011  47.161  55.218  1.00  0.00     0.000 A 
HETATM   24  C   UNL     1      28.299  45.847  54.863  1.00  0.00     0.002 A 
HETATM   25  C   UNL     1      27.381  45.112  54.109  1.00  0.00     0.029 A 
ENDBRANCH  16  20
ENDBRANCH   1  14
TORSDOF 4
ENDMDL
MODEL 5
REMARK VINA RESULT:      -8.7      3.096      4.614
REMARK  4 active torsions:
REMARK  status: ('A' for Active; 'I' for Inactive)
REMARK    1  A    between atoms: C_4  and  C_5 
REMARK    2  A    between atoms: C_8  and  C_9 
REMARK    3  A    between atoms: C_9  and  N_10 
REMARK       I    between atoms: N_10  and  C_11 
REMARK       I    between atoms: C_11  and  N_12 
REMARK    4  A    between atoms: N_12  and  C_13 
ROOT
HETATM    1  C   UNL     1      23.881  46.002  49.360  1.00  0.00     0.213 C 
ENDROOT
BRANCH   1   2
HETATM    2  C   UNL     1      24.625  46.282  50.610  1.00  0.00     0.190 A 
HETATM    3  O   UNL     1      24.615  47.569  51.056  1.00  0.00    -0.194 OA
HETATM    4  N   UNL     1      25.433  47.605  52.182  1.00  0.00    -0.106 NA
HETATM    5  C   UNL     1      25.866  46.338  52.308  1.00  0.00     0.189 A 
HETATM    6  N   UNL     1      25.353  45.479  51.356  1.00  0.00    -0.202 NA
BRANCH   5   7
HETATM    7  C   UNL     1      26.818  45.898  53.325  1.00  0.00     0.015 A 
HETATM    8  C   UNL     1      27.400  44.623  53.247  1.00  0.00     0.022 A 
HETATM    9  C   UNL     1      28.332  44.192  54.203  1.00  0.00    -0.061 A 
HETATM   10  C   UNL     1      28.968  42.837  54.103  1.00  0.00     0.048 C 
HETATM   11  C   UNL     1      28.695  45.059  55.239  1.00  0.00     0.007 A 
HETATM   12  C   UNL     1      28.125  46.328  55.329  1.00  0.00     0.002 A 
HETATM   13  C   UNL     1      27.190  46.745  54.379  1.00  0.00     0.015 A 
ENDBRANCH   5   7
ENDBRANCH   1   2
BRANCH   1  14
HETATM   14  N   UNL     1      22.826  46.975  49.156  1.00  0.00    -0.335 N 
HETATM   15  C   UNL     1      22.168  46.967  47.967  1.00  0.00     0.321 C 
HETATM   16  N   UNL     1      21.120  47.817  47.809  1.00  0.00    -0.309 N 
HETATM   17  O   UNL     1      22.454  46.189  47.059  1.00  0.00    -0.247 OA
HETATM   18  H   UNL     1      20.595  47.587  46.974  1.00  0.00     0.170 HD
HETATM   19  H   UNL     1      22.229  47.165  49.950  1.00  0.00     0.164 HD
BRANCH  16  20
HETATM   20  C   UNL     1      20.699  48.964  48.506  1.00  0.00     0.036 A 
HETATM   21  C   UNL     1      19.855  48.951  49.618  1.00  0.00     0.029 A 
HETATM   22  C   UNL     1      19.515  50.146  50.262  1.00  0.00     0.002 A 
HETATM   23  C   UNL     1      20.025  51.360  49.809  1.00  0.00     0.000 A 
HETATM   24  C   UNL     1      20.885  51.382  48.716  1.00  0.00     0.002 A 
HETATM   25  C   UNL     1      21.226  50.189  48.074  1.00  0.00     0.029 A 
ENDBRANCH  16  20
ENDBRANCH   1  14
TORSDOF 4
ENDMDL
MODEL 6
REMARK VINA RESULT:      -8.6      2.997      4.934
REMARK  4 active torsions:
REMARK  status: ('A' for Active; 'I' for Inactive)
REMARK    1  A    between atoms: C_4  and  C_5 
REMARK    2  A    between atoms: C_8  and  C_9 
REMARK    3  A    between atoms: C_9  and  N_10 
REMARK       I    between atoms: N_10  and  C_11 
REMARK       I    between atoms: C_11  and  N_12 
REMARK    4  A    between atoms: N_12  and  C_13 
ROOT
HETATM    1  C   UNL     1      24.957  44.863  51.840  1.00  0.00     0.213 C 
ENDROOT
BRANCH   1   2
HETATM    2  C   UNL     1      25.964  45.178  52.878  1.00  0.00     0.190 A 
HETATM    3  O   UNL     1      26.003  46.464  53.326  1.00  0.00    -0.194 OA
HETATM    4  N   UNL     1      27.064  46.539  54.224  1.00  0.00    -0.106 NA
HETATM    5  C   UNL     1      27.571  45.293  54.232  1.00  0.00     0.189 A 
HETATM    6  N   UNL     1      26.884  44.411  53.421  1.00  0.00    -0.202 NA
BRANCH   5   7
HETATM    7  C   UNL     1      28.756  44.900  54.988  1.00  0.00     0.015 A 
HETATM    8  C   UNL     1      29.134  45.614  56.136  1.00  0.00     0.022 A 
HETATM    9  C   UNL     1      30.258  45.238  56.887  1.00  0.00    -0.061 A 
HETATM   10  C   UNL     1      30.644  45.991  58.126  1.00  0.00     0.048 C 
HETATM   11  C   UNL     1      31.000  44.121  56.488  1.00  0.00     0.007 A 
HETATM   12  C   UNL     1      30.637  43.403  55.350  1.00  0.00     0.002 A 
HETATM   13  C   UNL     1      29.523  43.791  54.603  1.00  0.00     0.015 A 
ENDBRANCH   5   7
ENDBRANCH   1   2
BRANCH   1  14
HETATM   14  N   UNL     1      25.368  43.719  51.049  1.00  0.00    -0.335 N 
HETATM   15  C   UNL     1      24.416  42.823  50.673  1.00  0.00     0.321 C 
HETATM   16  N   UNL     1      24.784  41.802  49.857  1.00  0.00    -0.309 N 
HETATM   17  O   UNL     1      23.237  42.936  51.003  1.00  0.00    -0.247 OA
HETATM   18  H   UNL     1      23.969  41.324  49.493  1.00  0.00     0.170 HD
HETATM   19  H   UNL     1      26.067  43.891  50.338  1.00  0.00     0.164 HD
BRANCH  16  20
HETATM   20  C   UNL     1      26.030  41.250  49.511  1.00  0.00     0.036 A 
HETATM   21  C   UNL     1      26.738  41.556  48.348  1.00  0.00     0.029 A 
HETATM   22  C   UNL     1      27.987  40.974  48.105  1.00  0.00     0.002 A 
HETATM   23  C   UNL     1      28.544  40.092  49.028  1.00  0.00     0.000 A 
HETATM   24  C   UNL     1      27.858  39.797  50.201  1.00  0.00     0.002 A 
HETATM   25  C   UNL     1      26.611  40.379  50.444  1.00  0.00     0.029 A 
ENDBRANCH  16  20
ENDBRANCH   1  14
TORSDOF 4
ENDMDL
MODEL 7
REMARK VINA RESULT:      -8.6      3.517      7.422
REMARK  4 active torsions:
REMARK  status: ('A' for Active; 'I' for Inactive)
REMARK    1  A    between atoms: C_4  and  C_5 
REMARK    2  A    between atoms: C_8  and  C_9 
REMARK    3  A    between atoms: C_9  and  N_10 
REMARK       I    between atoms: N_10  and  C_11 
REMARK       I    between atoms: C_11  and  N_12 
REMARK    4  A    between atoms: N_12  and  C_13 
ROOT
HETATM    1  C   UNL     1      25.776  44.968  54.216  1.00  0.00     0.213 C 
ENDROOT
BRANCH   1   2
HETATM    2  C   UNL     1      25.871  44.119  53.006  1.00  0.00     0.190 A 
HETATM    3  O   UNL     1      24.738  43.982  52.262  1.00  0.00    -0.194 OA
HETATM    4  N   UNL     1      25.043  43.090  51.237  1.00  0.00    -0.106 NA
HETATM    5  C   UNL     1      26.329  42.766  51.461  1.00  0.00     0.189 A 
HETATM    6  N   UNL     1      26.884  43.419  52.545  1.00  0.00    -0.202 NA
BRANCH   5   7
HETATM    7  C   UNL     1      27.075  41.792  50.670  1.00  0.00     0.015 A 
HETATM    8  C   UNL     1      27.045  41.847  49.266  1.00  0.00     0.022 A 
HETATM    9  C   UNL     1      27.773  40.933  48.490  1.00  0.00    -0.061 A 
HETATM   10  C   UNL     1      27.756  41.010  46.992  1.00  0.00     0.048 C 
HETATM   11  C   UNL     1      28.550  39.963  49.131  1.00  0.00     0.007 A 
HETATM   12  C   UNL     1      28.589  39.896  50.522  1.00  0.00     0.002 A 
HETATM   13  C   UNL     1      27.854  40.803  51.288  1.00  0.00     0.015 A 
ENDBRANCH   5   7
ENDBRANCH   1   2
BRANCH   1  14
HETATM   14  N   UNL     1      27.059  45.065  54.883  1.00  0.00    -0.335 N 
HETATM   15  C   UNL     1      27.741  46.238  54.794  1.00  0.00     0.321 C 
HETATM   16  N   UNL     1      28.899  46.360  55.494  1.00  0.00    -0.309 N 
HETATM   17  O   UNL     1      27.322  47.198  54.150  1.00  0.00    -0.247 OA
HETATM   18  H   UNL     1      29.208  47.325  55.507  1.00  0.00     0.170 HD
HETATM   19  H   UNL     1      27.131  44.622  55.789  1.00  0.00     0.164 HD
BRANCH  16  20
HETATM   20  C   UNL     1      29.761  45.427  56.097  1.00  0.00     0.036 A 
HETATM   21  C   UNL     1      30.237  45.518  57.406  1.00  0.00     0.029 A 
HETATM   22  C   UNL     1      31.070  44.521  57.927  1.00  0.00     0.002 A 
HETATM   23  C   UNL     1      31.423  43.421  57.149  1.00  0.00     0.000 A 
HETATM   24  C   UNL     1      30.936  43.309  55.851  1.00  0.00     0.002 A 
HETATM   25  C   UNL     1      30.103  44.304  55.331  1.00  0.00     0.029 A 
ENDBRANCH  16  20
ENDBRANCH   1  14
TORSDOF 4
ENDMDL
MODEL 8
REMARK VINA RESULT:      -8.5      2.285      3.163
REMARK  4 active torsions:
REMARK  status: ('A' for Active; 'I' for Inactive)
REMARK    1  A    between atoms: C_4  and  C_5 
REMARK    2  A    between atoms: C_8  and  C_9 
REMARK    3  A    between atoms: C_9  and  N_10 
REMARK       I    between atoms: N_10  and  C_11 
REMARK       I    between atoms: C_11  and  N_12 
REMARK    4  A    between atoms: N_12  and  C_13 
ROOT
HETATM    1  C   UNL     1      24.329  44.762  49.671  1.00  0.00     0.213 C 
ENDROOT
BRANCH   1   2
HETATM    2  C   UNL     1      24.910  44.738  51.033  1.00  0.00     0.190 A 
HETATM    3  O   UNL     1      24.131  44.220  52.024  1.00  0.00    -0.194 OA
HETATM    4  N   UNL     1      24.844  44.374  53.210  1.00  0.00    -0.106 NA
HETATM    5  C   UNL     1      25.984  44.976  52.826  1.00  0.00     0.189 A 
HETATM    6  N   UNL     1      26.067  45.189  51.464  1.00  0.00    -0.202 NA
BRANCH   5   7
HETATM    7  C   UNL     1      27.030  45.405  53.750  1.00  0.00     0.015 A 
HETATM    8  C   UNL     1      28.030  44.506  54.156  1.00  0.00     0.022 A 
HETATM    9  C   UNL     1      29.056  44.907  55.026  1.00  0.00    -0.061 A 
HETATM   10  C   UNL     1      30.134  43.950  55.439  1.00  0.00     0.048 C 
HETATM   11  C   UNL     1      29.085  46.230  55.480  1.00  0.00     0.007 A 
HETATM   12  C   UNL     1      28.099  47.134  55.085  1.00  0.00     0.002 A 
HETATM   13  C   UNL     1      27.076  46.723  54.227  1.00  0.00     0.015 A 
ENDBRANCH   5   7
ENDBRANCH   1   2
BRANCH   1  14
HETATM   14  N   UNL     1      23.624  46.005  49.430  1.00  0.00    -0.335 N 
HETATM   15  C   UNL     1      22.352  45.939  48.951  1.00  0.00     0.321 C 
HETATM   16  N   UNL     1      21.660  47.099  48.811  1.00  0.00    -0.309 N 
HETATM   17  O   UNL     1      21.799  44.872  48.692  1.00  0.00    -0.247 OA
HETATM   18  H   UNL     1      20.680  46.912  48.638  1.00  0.00     0.170 HD
HETATM   19  H   UNL     1      23.764  46.742  50.109  1.00  0.00     0.164 HD
BRANCH  16  20
HETATM   20  C   UNL     1      22.047  48.451  48.771  1.00  0.00     0.036 A 
HETATM   21  C   UNL     1      23.195  48.929  48.138  1.00  0.00     0.029 A 
HETATM   22  C   UNL     1      23.480  50.299  48.128  1.00  0.00     0.002 A 
HETATM   23  C   UNL     1      22.613  51.202  48.740  1.00  0.00     0.000 A 
HETATM   24  C   UNL     1      21.454  50.739  49.353  1.00  0.00     0.002 A 
HETATM   25  C   UNL     1      21.170  49.372  49.362  1.00  0.00     0.029 A 
ENDBRANCH  16  20
ENDBRANCH   1  14
TORSDOF 4
ENDMDL
MODEL 9
REMARK VINA RESULT:      -8.3      3.475      6.000
REMARK  4 active torsions:
REMARK  status: ('A' for Active; 'I' for Inactive)
REMARK    1  A    between atoms: C_4  and  C_5 
REMARK    2  A    between atoms: C_8  and  C_9 
REMARK    3  A    between atoms: C_9  and  N_10 
REMARK       I    between atoms: N_10  and  C_11 
REMARK       I    between atoms: C_11  and  N_12 
REMARK    4  A    between atoms: N_12  and  C_13 
ROOT
HETATM    1  C   UNL     1      25.533  43.261  51.406  1.00  0.00     0.213 C 
ENDROOT
BRANCH   1   2
HETATM    2  C   UNL     1      26.317  43.815  52.533  1.00  0.00     0.190 A 
HETATM    3  O   UNL     1      25.922  45.023  53.021  1.00  0.00    -0.194 OA
HETATM    4  N   UNL     1      26.842  45.372  54.006  1.00  0.00    -0.106 NA
HETATM    5  C   UNL     1      27.711  44.345  54.017  1.00  0.00     0.189 A 
HETATM    6  N   UNL     1      27.391  43.340  53.126  1.00  0.00    -0.202 NA
BRANCH   5   7
HETATM    7  C   UNL     1      28.905  44.296  54.855  1.00  0.00     0.015 A 
HETATM    8  C   UNL     1      29.068  45.207  55.912  1.00  0.00     0.022 A 
HETATM    9  C   UNL     1      30.199  45.161  56.742  1.00  0.00    -0.061 A 
HETATM   10  C   UNL     1      30.356  46.121  57.883  1.00  0.00     0.048 C 
HETATM   11  C   UNL     1      31.169  44.178  56.516  1.00  0.00     0.007 A 
HETATM   12  C   UNL     1      31.021  43.268  55.471  1.00  0.00     0.002 A 
HETATM   13  C   UNL     1      29.897  43.328  54.644  1.00  0.00     0.015 A 
ENDBRANCH   5   7
ENDBRANCH   1   2
BRANCH   1  14
HETATM   14  N   UNL     1      26.228  42.151  50.785  1.00  0.00    -0.335 N 
HETATM   15  C   UNL     1      26.958  42.398  49.664  1.00  0.00     0.321 C 
HETATM   16  N   UNL     1      27.683  41.378  49.135  1.00  0.00    -0.309 N 
HETATM   17  O   UNL     1      27.023  43.513  49.151  1.00  0.00    -0.247 OA
HETATM   18  H   UNL     1      28.327  41.724  48.434  1.00  0.00     0.170 HD
HETATM   19  H   UNL     1      26.658  41.482  51.410  1.00  0.00     0.164 HD
BRANCH  16  20
HETATM   20  C   UNL     1      27.644  39.982  49.304  1.00  0.00     0.036 A 
HETATM   21  C   UNL     1      26.589  39.164  48.897  1.00  0.00     0.029 A 
HETATM   22  C   UNL     1      26.656  37.778  49.084  1.00  0.00     0.002 A 
HETATM   23  C   UNL     1      27.782  37.200  49.665  1.00  0.00     0.000 A 
HETATM   24  C   UNL     1      28.849  38.004  50.052  1.00  0.00     0.002 A 
HETATM   25  C   UNL     1      28.782  39.387  49.865  1.00  0.00     0.029 A 
ENDBRANCH  16  20
ENDBRANCH   1  14
TORSDOF 4
ENDMDL
MODEL 10
REMARK VINA RESULT:      -8.2      3.384      7.493
REMARK  4 active torsions:
REMARK  status: ('A' for Active; 'I' for Inactive)
REMARK    1  A    between atoms: C_4  and  C_5 
REMARK    2  A    between atoms: C_8  and  C_9 
REMARK    3  A    between atoms: C_9  and  N_10 
REMARK       I    between atoms: N_10  and  C_11 
REMARK       I    between atoms: C_11  and  N_12 
REMARK    4  A    between atoms: N_12  and  C_13 
ROOT
HETATM    1  C   UNL     1      26.412  44.988  53.289  1.00  0.00     0.213 C 
ENDROOT
BRANCH   1   2
HETATM    2  C   UNL     1      26.782  44.126  52.143  1.00  0.00     0.190 A 
HETATM    3  O   UNL     1      27.014  44.751  50.955  1.00  0.00    -0.194 OA
HETATM    4  N   UNL     1      27.262  43.748  50.022  1.00  0.00    -0.106 NA
HETATM    5  C   UNL     1      27.151  42.611  50.731  1.00  0.00     0.189 A 
HETATM    6  N   UNL     1      26.880  42.817  52.070  1.00  0.00    -0.202 NA
BRANCH   5   7
HETATM    7  C   UNL     1      27.263  41.275  50.153  1.00  0.00     0.015 A 
HETATM    8  C   UNL     1      28.317  40.426  50.529  1.00  0.00     0.022 A 
HETATM    9  C   UNL     1      28.429  39.132  50.000  1.00  0.00    -0.061 A 
HETATM   10  C   UNL     1      29.544  38.221  50.422  1.00  0.00     0.048 C 
HETATM   11  C   UNL     1      27.462  38.680  49.095  1.00  0.00     0.007 A 
HETATM   12  C   UNL     1      26.411  39.511  48.713  1.00  0.00     0.002 A 
HETATM   13  C   UNL     1      26.313  40.802  49.236  1.00  0.00     0.015 A 
ENDBRANCH   5   7
ENDBRANCH   1   2
BRANCH   1  14
HETATM   14  N   UNL     1      27.480  45.034  54.269  1.00  0.00    -0.335 N 
HETATM   15  C   UNL     1      27.892  46.252  54.712  1.00  0.00     0.321 C 
HETATM   16  N   UNL     1      28.828  46.292  55.696  1.00  0.00    -0.309 N 
HETATM   17  O   UNL     1      27.414  47.304  54.292  1.00  0.00    -0.247 OA
HETATM   18  H   UNL     1      28.909  47.229  56.073  1.00  0.00     0.170 HD
HETATM   19  H   UNL     1      27.460  44.325  54.990  1.00  0.00     0.164 HD
BRANCH  16  20
HETATM   20  C   UNL     1      29.732  45.341  56.203  1.00  0.00     0.036 A 
HETATM   21  C   UNL     1      30.223  44.252  55.482  1.00  0.00     0.029 A 
HETATM   22  C   UNL     1      31.144  43.374  56.067  1.00  0.00     0.002 A 
HETATM   23  C   UNL     1      31.589  43.586  57.370  1.00  0.00     0.000 A 
HETATM   24  C   UNL     1      31.123  44.682  58.088  1.00  0.00     0.002 A 
HETATM   25  C   UNL     1      30.205  45.558  57.504  1.00  0.00     0.029 A 
ENDBRANCH  16  20
ENDBRANCH   1  14
TORSDOF 4
ENDMDL
