MODEL 1
REMARK VINA RESULT:     -10.3      0.000      0.000
REMARK  5 active torsions:
REMARK  status: ('A' for Active; 'I' for Inactive)
REMARK    1  A    between atoms: C_3  and  O_4 
REMARK    2  A    between atoms: C_8  and  C_9 
REMARK       I    between atoms: N_10  and  C_11 
REMARK    3  A    between atoms: C_11  and  C_12 
REMARK    4  A    between atoms: C_12  and  C_13 
REMARK    5  A    between atoms: C_13  and  C_14 
ROOT
HETATM    1  C   UNL     1      27.232  43.508  50.896  1.00  0.00     0.171 C 
HETATM    2  N   UNL     1      25.848  43.918  50.540  1.00  0.00    -0.338 N 
HETATM    3  C   UNL     1      25.524  45.147  49.971  1.00  0.00     0.221 C 
HETATM    4  O   UNL     1      24.360  45.452  49.703  1.00  0.00    -0.273 OA
HETATM    5  C   UNL     1      24.758  42.939  50.768  1.00  0.00     0.131 C 
HETATM    6  C   UNL     1      24.987  41.626  49.999  1.00  0.00     0.061 C 
HETATM    7  C   UNL     1      26.376  41.155  50.246  1.00  0.00    -0.019 A 
HETATM    8  C   UNL     1      27.361  42.025  50.679  1.00  0.00     0.044 A 
HETATM    9  N   UNL     1      28.519  41.303  50.810  1.00  0.00    -0.356 N 
HETATM   10  H   UNL     1      29.407  41.664  51.127  1.00  0.00     0.166 HD
HETATM   11  C   UNL     1      28.313  40.000  50.413  1.00  0.00     0.043 A 
HETATM   12  C   UNL     1      26.967  39.878  50.063  1.00  0.00    -0.001 A 
HETATM   13  C   UNL     1      29.214  38.931  50.332  1.00  0.00     0.030 A 
HETATM   14  C   UNL     1      28.725  37.705  49.876  1.00  0.00     0.002 A 
HETATM   15  C   UNL     1      27.385  37.552  49.523  1.00  0.00     0.001 A 
HETATM   16  C   UNL     1      26.495  38.629  49.614  1.00  0.00     0.014 A 
ENDROOT
BRANCH   1  17
HETATM   17  C   UNL     1      27.684  43.971  52.279  1.00  0.00    -0.029 A 
HETATM   18  C   UNL     1      26.973  44.901  53.047  1.00  0.00     0.012 A 
HETATM   19  C   UNL     1      27.413  45.280  54.320  1.00  0.00     0.038 A 
HETATM   20  C   UNL     1      28.576  44.732  54.865  1.00  0.00     0.074 A 
HETATM   21  C   UNL     1      29.309  43.799  54.116  1.00  0.00    -0.028 A 
HETATM   22  C   UNL     1      30.584  43.207  54.652  1.00  0.00     0.051 C 
HETATM   23  C   UNL     1      28.867  43.441  52.830  1.00  0.00     0.019 A 
BRANCH  20  24
HETATM   24  O   UNL     1      29.085  45.049  56.096  1.00  0.00    -0.355 OA
HETATM   25  C   UNL     1      28.654  46.270  56.684  1.00  0.00     0.210 C 
ENDBRANCH  20  24
ENDBRANCH   1  17
BRANCH   3  26
HETATM   26  C   UNL     1      26.679  46.071  49.611  1.00  0.00     0.108 C 
BRANCH  26  27
HETATM   27  C   UNL     1      26.544  47.476  50.194  1.00  0.00     0.051 C 
BRANCH  27  28
HETATM   28  C   UNL     1      25.943  48.485  49.272  1.00  0.00    -0.021 A 
HETATM   29  C   UNL     1      24.620  48.842  49.105  1.00  0.00     0.120 A 
HETATM   30  N   UNL     1      24.604  49.838  48.173  1.00  0.00    -0.285 N 
HETATM   31  C   UNL     1      23.448  50.540  47.672  1.00  0.00     0.179 C 
HETATM   32  N   UNL     1      25.827  50.174  47.728  1.00  0.00    -0.185 NA
HETATM   33  C   UNL     1      26.638  49.343  48.386  1.00  0.00     0.147 A 
ENDBRANCH  27  28
ENDBRANCH  26  27
ENDBRANCH   3  26
TORSDOF 5
ENDMDL
MODEL 2
REMARK VINA RESULT:      -9.1     12.316     14.700
REMARK  5 active torsions:
REMARK  status: ('A' for Active; 'I' for Inactive)
REMARK    1  A    between atoms: C_3  and  O_4 
REMARK    2  A    between atoms: C_8  and  C_9 
REMARK       I    between atoms: N_10  and  C_11 
REMARK    3  A    between atoms: C_11  and  C_12 
REMARK    4  A    between atoms: C_12  and  C_13 
REMARK    5  A    between atoms: C_13  and  C_14 
ROOT
HETATM    1  C   UNL     1      26.182  49.090  39.267  1.00  0.00     0.171 C 
HETATM    2  N   UNL     1      26.748  48.236  38.189  1.00  0.00    -0.338 N 
HETATM    3  C   UNL     1      27.679  47.225  38.409  1.00  0.00     0.221 C 
HETATM    4  O   UNL     1      28.132  46.548  37.484  1.00  0.00    -0.273 OA
HETATM    5  C   UNL     1      26.257  48.454  36.808  1.00  0.00     0.131 C 
HETATM    6  C   UNL     1      24.734  48.265  36.697  1.00  0.00     0.061 C 
HETATM    7  C   UNL     1      24.069  49.042  37.777  1.00  0.00    -0.019 A 
HETATM    8  C   UNL     1      24.759  49.426  38.913  1.00  0.00     0.044 A 
HETATM    9  N   UNL     1      23.885  50.116  39.712  1.00  0.00    -0.356 N 
HETATM   10  H   UNL     1      24.106  50.536  40.604  1.00  0.00     0.166 HD
HETATM   11  C   UNL     1      22.632  50.133  39.140  1.00  0.00     0.043 A 
HETATM   12  C   UNL     1      22.723  49.472  37.914  1.00  0.00    -0.001 A 
HETATM   13  C   UNL     1      21.432  50.674  39.618  1.00  0.00     0.030 A 
HETATM   14  C   UNL     1      20.294  50.531  38.821  1.00  0.00     0.002 A 
HETATM   15  C   UNL     1      20.356  49.879  37.591  1.00  0.00     0.001 A 
HETATM   16  C   UNL     1      21.564  49.348  37.124  1.00  0.00     0.014 A 
ENDROOT
BRANCH   1  17
HETATM   17  C   UNL     1      27.035  50.309  39.611  1.00  0.00    -0.029 A 
HETATM   18  C   UNL     1      27.307  50.710  40.925  1.00  0.00     0.012 A 
HETATM   19  C   UNL     1      28.112  51.823  41.193  1.00  0.00     0.038 A 
HETATM   20  C   UNL     1      28.677  52.561  40.152  1.00  0.00     0.074 A 
HETATM   21  C   UNL     1      28.420  52.183  38.826  1.00  0.00    -0.028 A 
HETATM   22  C   UNL     1      28.983  52.970  37.673  1.00  0.00     0.051 C 
HETATM   23  C   UNL     1      27.592  51.075  38.569  1.00  0.00     0.019 A 
BRANCH  20  24
HETATM   24  O   UNL     1      29.470  53.666  40.320  1.00  0.00    -0.355 OA
HETATM   25  C   UNL     1      30.713  53.480  40.983  1.00  0.00     0.210 C 
ENDBRANCH  20  24
ENDBRANCH   1  17
BRANCH   3  26
HETATM   26  C   UNL     1      28.052  46.926  39.854  1.00  0.00     0.108 C 
BRANCH  26  27
HETATM   27  C   UNL     1      29.558  46.818  40.088  1.00  0.00     0.051 C 
BRANCH  27  28
HETATM   28  C   UNL     1      30.304  48.107  39.984  1.00  0.00    -0.021 A 
HETATM   29  C   UNL     1      30.769  48.761  38.861  1.00  0.00     0.120 A 
HETATM   30  N   UNL     1      31.345  49.918  39.300  1.00  0.00    -0.285 N 
HETATM   31  C   UNL     1      31.967  50.939  38.493  1.00  0.00     0.179 C 
HETATM   32  N   UNL     1      31.275  50.078  40.632  1.00  0.00    -0.185 NA
HETATM   33  C   UNL     1      30.655  48.971  41.048  1.00  0.00     0.147 A 
ENDBRANCH  27  28
ENDBRANCH  26  27
ENDBRANCH   3  26
TORSDOF 5
ENDMDL
MODEL 3
REMARK VINA RESULT:      -9.0      6.008     10.416
REMARK  5 active torsions:
REMARK  status: ('A' for Active; 'I' for Inactive)
REMARK    1  A    between atoms: C_3  and  O_4 
REMARK    2  A    between atoms: C_8  and  C_9 
REMARK       I    between atoms: N_10  and  C_11 
REMARK    3  A    between atoms: C_11  and  C_12 
REMARK    4  A    between atoms: C_12  and  C_13 
REMARK    5  A    between atoms: C_13  and  C_14 
ROOT
HETATM    1  C   UNL     1      20.870  49.050  49.036  1.00  0.00     0.171 C 
HETATM    2  N   UNL     1      20.768  50.447  48.534  1.00  0.00    -0.338 N 
HETATM    3  C   UNL     1      19.787  51.347  48.938  1.00  0.00     0.221 C 
HETATM    4  O   UNL     1      19.732  52.493  48.487  1.00  0.00    -0.273 OA
HETATM    5  C   UNL     1      21.801  50.912  47.577  1.00  0.00     0.131 C 
HETATM    6  C   UNL     1      23.221  50.809  48.160  1.00  0.00     0.061 C 
HETATM    7  C   UNL     1      23.408  49.453  48.743  1.00  0.00    -0.019 A 
HETATM    8  C   UNL     1      22.325  48.672  49.101  1.00  0.00     0.044 A 
HETATM    9  N   UNL     1      22.814  47.495  49.606  1.00  0.00    -0.356 N 
HETATM   10  H   UNL     1      22.261  46.717  49.935  1.00  0.00     0.166 HD
HETATM   11  C   UNL     1      24.192  47.529  49.635  1.00  0.00     0.043 A 
HETATM   12  C   UNL     1      24.591  48.749  49.086  1.00  0.00    -0.001 A 
HETATM   13  C   UNL     1      25.105  46.579  50.109  1.00  0.00     0.030 A 
HETATM   14  C   UNL     1      26.464  46.889  50.024  1.00  0.00     0.002 A 
HETATM   15  C   UNL     1      26.893  48.097  49.477  1.00  0.00     0.001 A 
HETATM   16  C   UNL     1      25.968  49.035  49.003  1.00  0.00     0.014 A 
ENDROOT
BRANCH   1  17
HETATM   17  C   UNL     1      20.006  48.049  48.273  1.00  0.00    -0.029 A 
HETATM   18  C   UNL     1      19.423  46.926  48.872  1.00  0.00     0.012 A 
HETATM   19  C   UNL     1      18.621  46.045  48.138  1.00  0.00     0.038 A 
HETATM   20  C   UNL     1      18.371  46.269  46.783  1.00  0.00     0.074 A 
HETATM   21  C   UNL     1      18.944  47.386  46.157  1.00  0.00    -0.028 A 
HETATM   22  C   UNL     1      18.727  47.648  44.691  1.00  0.00     0.051 C 
HETATM   23  C   UNL     1      19.766  48.252  46.900  1.00  0.00     0.019 A 
BRANCH  20  24
HETATM   24  O   UNL     1      17.606  45.458  45.986  1.00  0.00    -0.355 OA
HETATM   25  C   UNL     1      18.108  44.157  45.710  1.00  0.00     0.210 C 
ENDBRANCH  20  24
ENDBRANCH   1  17
BRANCH   3  26
HETATM   26  C   UNL     1      18.832  50.889  50.032  1.00  0.00     0.108 C 
BRANCH  26  27
HETATM   27  C   UNL     1      17.399  51.381  49.838  1.00  0.00     0.051 C 
BRANCH  27  28
HETATM   28  C   UNL     1      16.675  50.770  48.684  1.00  0.00    -0.021 A 
HETATM   29  C   UNL     1      16.504  49.438  48.362  1.00  0.00     0.120 A 
HETATM   30  N   UNL     1      15.732  49.409  47.238  1.00  0.00    -0.285 N 
HETATM   31  C   UNL     1      15.278  48.240  46.526  1.00  0.00     0.179 C 
HETATM   32  N   UNL     1      15.368  50.629  46.807  1.00  0.00    -0.185 NA
HETATM   33  C   UNL     1      15.952  51.455  47.678  1.00  0.00     0.147 A 
ENDBRANCH  27  28
ENDBRANCH  26  27
ENDBRANCH   3  26
TORSDOF 5
ENDMDL
MODEL 4
REMARK VINA RESULT:      -8.9      8.923     14.802
REMARK  5 active torsions:
REMARK  status: ('A' for Active; 'I' for Inactive)
REMARK    1  A    between atoms: C_3  and  O_4 
REMARK    2  A    between atoms: C_8  and  C_9 
REMARK       I    between atoms: N_10  and  C_11 
REMARK    3  A    between atoms: C_11  and  C_12 
REMARK    4  A    between atoms: C_12  and  C_13 
REMARK    5  A    between atoms: C_13  and  C_14 
ROOT
HETATM    1  C   UNL     1      15.677  51.736  48.442  1.00  0.00     0.171 C 
HETATM    2  N   UNL     1      15.406  51.702  46.980  1.00  0.00    -0.338 N 
HETATM    3  C   UNL     1      15.196  50.533  46.256  1.00  0.00     0.221 C 
HETATM    4  O   UNL     1      14.986  50.549  45.042  1.00  0.00    -0.273 OA
HETATM    5  C   UNL     1      15.315  52.999  46.266  1.00  0.00     0.131 C 
HETATM    6  C   UNL     1      14.216  53.906  46.846  1.00  0.00     0.061 C 
HETATM    7  C   UNL     1      14.366  53.962  48.326  1.00  0.00    -0.019 A 
HETATM    8  C   UNL     1      15.057  52.982  49.014  1.00  0.00     0.044 A 
HETATM    9  N   UNL     1      15.017  53.307  50.345  1.00  0.00    -0.356 N 
HETATM   10  H   UNL     1      15.451  52.787  51.094  1.00  0.00     0.166 HD
HETATM   11  C   UNL     1      14.264  54.445  50.532  1.00  0.00     0.043 A 
HETATM   12  C   UNL     1      13.850  54.885  49.273  1.00  0.00    -0.001 A 
HETATM   13  C   UNL     1      13.915  55.109  51.715  1.00  0.00     0.030 A 
HETATM   14  C   UNL     1      13.117  56.250  51.606  1.00  0.00     0.002 A 
HETATM   15  C   UNL     1      12.692  56.715  50.362  1.00  0.00     0.001 A 
HETATM   16  C   UNL     1      13.053  56.043  49.189  1.00  0.00     0.014 A 
ENDROOT
BRANCH   1  17
HETATM   17  C   UNL     1      17.148  51.556  48.808  1.00  0.00    -0.029 A 
HETATM   18  C   UNL     1      18.176  52.333  48.261  1.00  0.00     0.012 A 
HETATM   19  C   UNL     1      19.510  52.146  48.642  1.00  0.00     0.038 A 
HETATM   20  C   UNL     1      19.852  51.180  49.590  1.00  0.00     0.074 A 
HETATM   21  C   UNL     1      18.842  50.386  50.153  1.00  0.00    -0.028 A 
HETATM   22  C   UNL     1      19.170  49.312  51.155  1.00  0.00     0.051 C 
HETATM   23  C   UNL     1      17.508  50.569  49.747  1.00  0.00     0.019 A 
BRANCH  20  24
HETATM   24  O   UNL     1      21.128  50.923  50.016  1.00  0.00    -0.355 OA
HETATM   25  C   UNL     1      22.137  50.811  49.020  1.00  0.00     0.210 C 
ENDBRANCH  20  24
ENDBRANCH   1  17
BRANCH   3  26
HETATM   26  C   UNL     1      15.147  49.229  47.042  1.00  0.00     0.108 C 
BRANCH  26  27
HETATM   27  C   UNL     1      16.035  48.131  46.461  1.00  0.00     0.051 C 
BRANCH  27  28
HETATM   28  C   UNL     1      17.474  48.215  46.849  1.00  0.00    -0.021 A 
HETATM   29  C   UNL     1      18.191  47.434  47.733  1.00  0.00     0.120 A 
HETATM   30  N   UNL     1      19.475  47.892  47.700  1.00  0.00    -0.285 N 
HETATM   31  C   UNL     1      20.598  47.386  48.450  1.00  0.00     0.179 C 
HETATM   32  N   UNL     1      19.658  48.909  46.840  1.00  0.00    -0.185 NA
HETATM   33  C   UNL     1      18.439  49.114  46.334  1.00  0.00     0.147 A 
ENDBRANCH  27  28
ENDBRANCH  26  27
ENDBRANCH   3  26
TORSDOF 5
ENDMDL
MODEL 5
REMARK VINA RESULT:      -8.9      6.492      9.701
REMARK  5 active torsions:
REMARK  status: ('A' for Active; 'I' for Inactive)
REMARK    1  A    between atoms: C_3  and  O_4 
REMARK    2  A    between atoms: C_8  and  C_9 
REMARK       I    between atoms: N_10  and  C_11 
REMARK    3  A    between atoms: C_11  and  C_12 
REMARK    4  A    between atoms: C_12  and  C_13 
REMARK    5  A    between atoms: C_13  and  C_14 
ROOT
HETATM    1  C   UNL     1      20.337  49.219  47.943  1.00  0.00     0.171 C 
HETATM    2  N   UNL     1      19.505  49.525  49.138  1.00  0.00    -0.338 N 
HETATM    3  C   UNL     1      19.194  50.815  49.557  1.00  0.00     0.221 C 
HETATM    4  O   UNL     1      18.510  51.025  50.561  1.00  0.00    -0.273 OA
HETATM    5  C   UNL     1      18.942  48.382  49.897  1.00  0.00     0.131 C 
HETATM    6  C   UNL     1      18.052  47.485  49.020  1.00  0.00     0.061 C 
HETATM    7  C   UNL     1      18.778  47.163  47.762  1.00  0.00    -0.019 A 
HETATM    8  C   UNL     1      19.826  47.950  47.318  1.00  0.00     0.044 A 
HETATM    9  N   UNL     1      20.281  47.405  46.146  1.00  0.00    -0.356 N 
HETATM   10  H   UNL     1      21.053  47.751  45.594  1.00  0.00     0.166 HD
HETATM   11  C   UNL     1      19.509  46.318  45.796  1.00  0.00     0.043 A 
HETATM   12  C   UNL     1      18.561  46.138  46.805  1.00  0.00    -0.001 A 
HETATM   13  C   UNL     1      19.577  45.494  44.667  1.00  0.00     0.030 A 
HETATM   14  C   UNL     1      18.644  44.458  44.564  1.00  0.00     0.002 A 
HETATM   15  C   UNL     1      17.688  44.251  45.557  1.00  0.00     0.001 A 
HETATM   16  C   UNL     1      17.637  45.082  46.683  1.00  0.00     0.014 A 
ENDROOT
BRANCH   1  17
HETATM   17  C   UNL     1      21.839  49.210  48.216  1.00  0.00    -0.029 A 
HETATM   18  C   UNL     1      22.710  50.200  47.746  1.00  0.00     0.012 A 
HETATM   19  C   UNL     1      24.079  50.163  48.038  1.00  0.00     0.038 A 
HETATM   20  C   UNL     1      24.613  49.136  48.818  1.00  0.00     0.074 A 
HETATM   21  C   UNL     1      23.763  48.129  49.300  1.00  0.00    -0.028 A 
HETATM   22  C   UNL     1      24.303  46.987  50.117  1.00  0.00     0.051 C 
HETATM   23  C   UNL     1      22.394  48.167  48.982  1.00  0.00     0.019 A 
BRANCH  20  24
HETATM   24  O   UNL     1      25.937  49.015  49.147  1.00  0.00    -0.355 OA
HETATM   25  C   UNL     1      26.856  49.863  48.470  1.00  0.00     0.210 C 
ENDBRANCH  20  24
ENDBRANCH   1  17
BRANCH   3  26
HETATM   26  C   UNL     1      19.661  51.964  48.673  1.00  0.00     0.108 C 
BRANCH  26  27
HETATM   27  C   UNL     1      18.538  52.605  47.859  1.00  0.00     0.051 C 
BRANCH  27  28
HETATM   28  C   UNL     1      17.609  51.640  47.200  1.00  0.00    -0.021 A 
HETATM   29  C   UNL     1      17.821  50.830  46.103  1.00  0.00     0.120 A 
HETATM   30  N   UNL     1      16.677  50.108  45.929  1.00  0.00    -0.285 N 
HETATM   31  C   UNL     1      16.420  49.118  44.912  1.00  0.00     0.179 C 
HETATM   32  N   UNL     1      15.732  50.374  46.847  1.00  0.00    -0.185 NA
HETATM   33  C   UNL     1      16.294  51.315  47.611  1.00  0.00     0.147 A 
ENDBRANCH  27  28
ENDBRANCH  26  27
ENDBRANCH   3  26
TORSDOF 5
ENDMDL
MODEL 6
REMARK VINA RESULT:      -8.6      7.448     13.296
REMARK  5 active torsions:
REMARK  status: ('A' for Active; 'I' for Inactive)
REMARK    1  A    between atoms: C_3  and  O_4 
REMARK    2  A    between atoms: C_8  and  C_9 
REMARK       I    between atoms: N_10  and  C_11 
REMARK    3  A    between atoms: C_11  and  C_12 
REMARK    4  A    between atoms: C_12  and  C_13 
REMARK    5  A    between atoms: C_13  and  C_14 
ROOT
HETATM    1  C   UNL     1      18.445  50.900  47.553  1.00  0.00     0.171 C 
HETATM    2  N   UNL     1      18.943  50.912  48.955  1.00  0.00    -0.338 N 
HETATM    3  C   UNL     1      20.291  50.928  49.299  1.00  0.00     0.221 C 
HETATM    4  O   UNL     1      20.661  50.926  50.475  1.00  0.00    -0.273 OA
HETATM    5  C   UNL     1      17.937  50.951  50.043  1.00  0.00     0.131 C 
HETATM    6  C   UNL     1      17.021  52.183  49.943  1.00  0.00     0.061 C 
HETATM    7  C   UNL     1      16.508  52.294  48.551  1.00  0.00    -0.019 A 
HETATM    8  C   UNL     1      17.158  51.678  47.497  1.00  0.00     0.044 A 
HETATM    9  N   UNL     1      16.456  51.965  46.356  1.00  0.00    -0.356 N 
HETATM   10  H   UNL     1      16.679  51.638  45.426  1.00  0.00     0.166 HD
HETATM   11  C   UNL     1      15.401  52.802  46.646  1.00  0.00     0.043 A 
HETATM   12  C   UNL     1      15.405  53.016  48.026  1.00  0.00    -0.001 A 
HETATM   13  C   UNL     1      14.455  53.386  45.795  1.00  0.00     0.030 A 
HETATM   14  C   UNL     1      13.490  54.217  46.371  1.00  0.00     0.002 A 
HETATM   15  C   UNL     1      13.467  54.445  47.746  1.00  0.00     0.001 A 
HETATM   16  C   UNL     1      14.417  53.850  48.584  1.00  0.00     0.014 A 
ENDROOT
BRANCH   1  17
HETATM   17  C   UNL     1      18.349  49.506  46.937  1.00  0.00    -0.029 A 
HETATM   18  C   UNL     1      18.665  49.234  45.601  1.00  0.00     0.012 A 
HETATM   19  C   UNL     1      18.582  47.936  45.084  1.00  0.00     0.038 A 
HETATM   20  C   UNL     1      18.190  46.870  45.895  1.00  0.00     0.074 A 
HETATM   21  C   UNL     1      17.867  47.114  47.238  1.00  0.00    -0.028 A 
HETATM   22  C   UNL     1      17.409  45.999  48.139  1.00  0.00     0.051 C 
HETATM   23  C   UNL     1      17.933  48.426  47.740  1.00  0.00     0.019 A 
BRANCH  20  24
HETATM   24  O   UNL     1      18.075  45.571  45.474  1.00  0.00    -0.355 OA
HETATM   25  C   UNL     1      19.213  44.983  44.859  1.00  0.00     0.210 C 
ENDBRANCH  20  24
ENDBRANCH   1  17
BRANCH   3  26
HETATM   26  C   UNL     1      21.297  51.039  48.162  1.00  0.00     0.108 C 
BRANCH  26  27
HETATM   27  C   UNL     1      21.906  49.700  47.751  1.00  0.00     0.051 C 
BRANCH  27  28
HETATM   28  C   UNL     1      23.290  49.457  48.255  1.00  0.00    -0.021 A 
HETATM   29  C   UNL     1      24.480  50.041  47.867  1.00  0.00     0.120 A 
HETATM   30  N   UNL     1      25.450  49.506  48.663  1.00  0.00    -0.285 N 
HETATM   31  C   UNL     1      26.859  49.812  48.639  1.00  0.00     0.179 C 
HETATM   32  N   UNL     1      24.979  48.624  49.561  1.00  0.00    -0.185 NA
HETATM   33  C   UNL     1      23.669  48.585  49.303  1.00  0.00     0.147 A 
ENDBRANCH  27  28
ENDBRANCH  26  27
ENDBRANCH   3  26
TORSDOF 5
ENDMDL
MODEL 7
REMARK VINA RESULT:      -8.6      4.270      7.513
REMARK  5 active torsions:
REMARK  status: ('A' for Active; 'I' for Inactive)
REMARK    1  A    between atoms: C_3  and  O_4 
REMARK    2  A    between atoms: C_8  and  C_9 
REMARK       I    between atoms: N_10  and  C_11 
REMARK    3  A    between atoms: C_11  and  C_12 
REMARK    4  A    between atoms: C_12  and  C_13 
REMARK    5  A    between atoms: C_13  and  C_14 
ROOT
HETATM    1  C   UNL     1      23.884  46.756  50.041  1.00  0.00     0.171 C 
HETATM    2  N   UNL     1      24.617  47.906  49.446  1.00  0.00    -0.338 N 
HETATM    3  C   UNL     1      23.997  49.052  48.957  1.00  0.00     0.221 C 
HETATM    4  O   UNL     1      24.642  49.977  48.460  1.00  0.00    -0.273 OA
HETATM    5  C   UNL     1      26.097  47.837  49.414  1.00  0.00     0.131 C 
HETATM    6  C   UNL     1      26.702  47.673  50.819  1.00  0.00     0.061 C 
HETATM    7  C   UNL     1      25.993  46.572  51.525  1.00  0.00    -0.019 A 
HETATM    8  C   UNL     1      24.733  46.161  51.131  1.00  0.00     0.044 A 
HETATM    9  N   UNL     1      24.350  45.146  51.968  1.00  0.00    -0.356 N 
HETATM   10  H   UNL     1      23.482  44.633  51.916  1.00  0.00     0.166 HD
HETATM   11  C   UNL     1      25.314  44.935  52.930  1.00  0.00     0.043 A 
HETATM   12  C   UNL     1      26.366  45.814  52.667  1.00  0.00    -0.001 A 
HETATM   13  C   UNL     1      25.327  44.043  54.009  1.00  0.00     0.030 A 
HETATM   14  C   UNL     1      26.447  44.055  54.845  1.00  0.00     0.002 A 
HETATM   15  C   UNL     1      27.514  44.919  54.605  1.00  0.00     0.001 A 
HETATM   16  C   UNL     1      27.487  45.802  53.519  1.00  0.00     0.014 A 
ENDROOT
BRANCH   1  17
HETATM   17  C   UNL     1      23.390  45.735  49.018  1.00  0.00    -0.029 A 
HETATM   18  C   UNL     1      24.175  44.675  48.551  1.00  0.00     0.012 A 
HETATM   19  C   UNL     1      23.673  43.750  47.628  1.00  0.00     0.038 A 
HETATM   20  C   UNL     1      22.364  43.856  47.153  1.00  0.00     0.074 A 
HETATM   21  C   UNL     1      21.556  44.910  47.604  1.00  0.00    -0.028 A 
HETATM   22  C   UNL     1      20.150  45.080  47.094  1.00  0.00     0.051 C 
HETATM   23  C   UNL     1      22.079  45.845  48.515  1.00  0.00     0.019 A 
BRANCH  20  24
HETATM   24  O   UNL     1      21.792  43.003  46.246  1.00  0.00    -0.355 OA
HETATM   25  C   UNL     1      22.255  41.659  46.235  1.00  0.00     0.210 C 
ENDBRANCH  20  24
ENDBRANCH   1  17
BRANCH   3  26
HETATM   26  C   UNL     1      22.489  49.158  49.140  1.00  0.00     0.108 C 
BRANCH  26  27
HETATM   27  C   UNL     1      21.905  50.484  48.657  1.00  0.00     0.051 C 
BRANCH  27  28
HETATM   28  C   UNL     1      20.558  50.817  49.209  1.00  0.00    -0.021 A 
HETATM   29  C   UNL     1      19.732  51.885  48.920  1.00  0.00     0.120 A 
HETATM   30  N   UNL     1      18.599  51.706  49.658  1.00  0.00    -0.285 N 
HETATM   31  C   UNL     1      17.438  52.561  49.687  1.00  0.00     0.179 C 
HETATM   32  N   UNL     1      18.614  50.584  50.398  1.00  0.00    -0.185 NA
HETATM   33  C   UNL     1      19.810  50.052  50.135  1.00  0.00     0.147 A 
ENDBRANCH  27  28
ENDBRANCH  26  27
ENDBRANCH   3  26
TORSDOF 5
ENDMDL
MODEL 8
REMARK VINA RESULT:      -8.5      4.909     11.094
REMARK  5 active torsions:
REMARK  status: ('A' for Active; 'I' for Inactive)
REMARK    1  A    between atoms: C_3  and  O_4 
REMARK    2  A    between atoms: C_8  and  C_9 
REMARK       I    between atoms: N_10  and  C_11 
REMARK    3  A    between atoms: C_11  and  C_12 
REMARK    4  A    between atoms: C_12  and  C_13 
REMARK    5  A    between atoms: C_13  and  C_14 
ROOT
HETATM    1  C   UNL     1      19.739  48.536  47.915  1.00  0.00     0.171 C 
HETATM    2  N   UNL     1      19.497  47.900  46.592  1.00  0.00    -0.338 N 
HETATM    3  C   UNL     1      19.683  46.545  46.337  1.00  0.00     0.221 C 
HETATM    4  O   UNL     1      19.483  46.062  45.221  1.00  0.00    -0.273 OA
HETATM    5  C   UNL     1      18.987  48.761  45.498  1.00  0.00     0.131 C 
HETATM    6  C   UNL     1      17.651  49.431  45.860  1.00  0.00     0.061 C 
HETATM    7  C   UNL     1      17.770  50.055  47.205  1.00  0.00    -0.019 A 
HETATM    8  C   UNL     1      18.743  49.649  48.100  1.00  0.00     0.044 A 
HETATM    9  N   UNL     1      18.597  50.399  49.237  1.00  0.00    -0.356 N 
HETATM   10  H   UNL     1      19.176  50.341  50.062  1.00  0.00     0.166 HD
HETATM   11  C   UNL     1      17.511  51.239  49.114  1.00  0.00     0.043 A 
HETATM   12  C   UNL     1      16.979  51.049  47.837  1.00  0.00    -0.001 A 
HETATM   13  C   UNL     1      16.962  52.140  50.034  1.00  0.00     0.030 A 
HETATM   14  C   UNL     1      15.833  52.862  49.639  1.00  0.00     0.002 A 
HETATM   15  C   UNL     1      15.283  52.697  48.369  1.00  0.00     0.001 A 
HETATM   16  C   UNL     1      15.846  51.796  47.458  1.00  0.00     0.014 A 
ENDROOT
BRANCH   1  17
HETATM   17  C   UNL     1      21.187  48.959  48.148  1.00  0.00    -0.029 A 
HETATM   18  C   UNL     1      21.735  50.139  47.630  1.00  0.00     0.012 A 
HETATM   19  C   UNL     1      23.063  50.498  47.887  1.00  0.00     0.038 A 
HETATM   20  C   UNL     1      23.879  49.689  48.679  1.00  0.00     0.074 A 
HETATM   21  C   UNL     1      23.357  48.500  49.210  1.00  0.00    -0.028 A 
HETATM   22  C   UNL     1      24.211  47.582  50.042  1.00  0.00     0.051 C 
HETATM   23  C   UNL     1      22.027  48.140  48.927  1.00  0.00     0.019 A 
BRANCH  20  24
HETATM   24  O   UNL     1      25.190  49.956  48.976  1.00  0.00    -0.355 OA
HETATM   25  C   UNL     1      26.118  49.936  47.899  1.00  0.00     0.210 C 
ENDBRANCH  20  24
ENDBRANCH   1  17
BRANCH   3  26
HETATM   26  C   UNL     1      20.063  45.661  47.517  1.00  0.00     0.108 C 
BRANCH  26  27
HETATM   27  C   UNL     1      21.039  44.543  47.155  1.00  0.00     0.051 C 
BRANCH  27  28
HETATM   28  C   UNL     1      22.161  44.351  48.122  1.00  0.00    -0.021 A 
HETATM   29  C   UNL     1      23.520  44.302  47.888  1.00  0.00     0.120 A 
HETATM   30  N   UNL     1      24.116  44.152  49.106  1.00  0.00    -0.285 N 
HETATM   31  C   UNL     1      25.530  44.058  49.376  1.00  0.00     0.179 C 
HETATM   32  N   UNL     1      23.244  44.117  50.128  1.00  0.00    -0.185 NA
HETATM   33  C   UNL     1      22.056  44.225  49.528  1.00  0.00     0.147 A 
ENDBRANCH  27  28
ENDBRANCH  26  27
ENDBRANCH   3  26
TORSDOF 5
ENDMDL
MODEL 9
REMARK VINA RESULT:      -8.4      2.665      3.424
REMARK  5 active torsions:
REMARK  status: ('A' for Active; 'I' for Inactive)
REMARK    1  A    between atoms: C_3  and  O_4 
REMARK    2  A    between atoms: C_8  and  C_9 
REMARK       I    between atoms: N_10  and  C_11 
REMARK    3  A    between atoms: C_11  and  C_12 
REMARK    4  A    between atoms: C_12  and  C_13 
REMARK    5  A    between atoms: C_13  and  C_14 
ROOT
HETATM    1  C   UNL     1      24.701  44.266  49.415  1.00  0.00     0.171 C 
HETATM    2  N   UNL     1      23.241  44.002  49.302  1.00  0.00    -0.338 N 
HETATM    3  C   UNL     1      22.323  44.920  48.800  1.00  0.00     0.221 C 
HETATM    4  O   UNL     1      21.119  44.665  48.735  1.00  0.00    -0.273 OA
HETATM    5  C   UNL     1      22.749  42.664  49.710  1.00  0.00     0.131 C 
HETATM    6  C   UNL     1      23.414  41.531  48.910  1.00  0.00     0.061 C 
HETATM    7  C   UNL     1      24.888  41.735  48.915  1.00  0.00    -0.019 A 
HETATM    8  C   UNL     1      25.439  42.977  49.176  1.00  0.00     0.044 A 
HETATM    9  N   UNL     1      26.801  42.846  49.106  1.00  0.00    -0.356 N 
HETATM   10  H   UNL     1      27.475  43.581  49.268  1.00  0.00     0.166 HD
HETATM   11  C   UNL     1      27.136  41.558  48.746  1.00  0.00     0.043 A 
HETATM   12  C   UNL     1      25.947  40.834  48.631  1.00  0.00    -0.001 A 
HETATM   13  C   UNL     1      28.393  40.988  48.510  1.00  0.00     0.030 A 
HETATM   14  C   UNL     1      28.434  39.641  48.141  1.00  0.00     0.002 A 
HETATM   15  C   UNL     1      27.264  38.893  48.021  1.00  0.00     0.001 A 
HETATM   16  C   UNL     1      26.015  39.476  48.265  1.00  0.00     0.014 A 
ENDROOT
BRANCH   1  17
HETATM   17  C   UNL     1      25.107  44.979  50.702  1.00  0.00    -0.029 A 
HETATM   18  C   UNL     1      25.533  46.313  50.739  1.00  0.00     0.012 A 
HETATM   19  C   UNL     1      25.876  46.933  51.946  1.00  0.00     0.038 A 
HETATM   20  C   UNL     1      25.794  46.237  53.153  1.00  0.00     0.074 A 
HETATM   21  C   UNL     1      25.373  44.899  53.145  1.00  0.00    -0.028 A 
HETATM   22  C   UNL     1      25.301  44.103  54.420  1.00  0.00     0.051 C 
HETATM   23  C   UNL     1      25.051  44.281  51.924  1.00  0.00     0.019 A 
BRANCH  20  24
HETATM   24  O   UNL     1      26.117  46.760  54.378  1.00  0.00    -0.355 OA
HETATM   25  C   UNL     1      27.479  47.101  54.602  1.00  0.00     0.210 C 
ENDBRANCH  20  24
ENDBRANCH   1  17
BRANCH   3  26
HETATM   26  C   UNL     1      22.878  46.227  48.250  1.00  0.00     0.108 C 
BRANCH  26  27
HETATM   27  C   UNL     1      21.800  47.189  47.754  1.00  0.00     0.051 C 
BRANCH  27  28
HETATM   28  C   UNL     1      21.679  48.455  48.536  1.00  0.00    -0.021 A 
HETATM   29  C   UNL     1      20.550  49.182  48.858  1.00  0.00     0.120 A 
HETATM   30  N   UNL     1      20.972  50.231  49.621  1.00  0.00    -0.285 N 
HETATM   31  C   UNL     1      20.153  51.266  50.203  1.00  0.00     0.179 C 
HETATM   32  N   UNL     1      22.298  50.236  49.838  1.00  0.00    -0.185 NA
HETATM   33  C   UNL     1      22.729  49.165  49.167  1.00  0.00     0.147 A 
ENDBRANCH  27  28
ENDBRANCH  26  27
ENDBRANCH   3  26
TORSDOF 5
ENDMDL
MODEL 10
REMARK VINA RESULT:      -8.2      5.936     10.487
REMARK  5 active torsions:
REMARK  status: ('A' for Active; 'I' for Inactive)
REMARK    1  A    between atoms: C_3  and  O_4 
REMARK    2  A    between atoms: C_8  and  C_9 
REMARK       I    between atoms: N_10  and  C_11 
REMARK    3  A    between atoms: C_11  and  C_12 
REMARK    4  A    between atoms: C_12  and  C_13 
REMARK    5  A    between atoms: C_13  and  C_14 
ROOT
HETATM    1  C   UNL     1      20.979  49.018  48.937  1.00  0.00     0.171 C 
HETATM    2  N   UNL     1      20.898  50.435  48.490  1.00  0.00    -0.338 N 
HETATM    3  C   UNL     1      19.907  51.322  48.900  1.00  0.00     0.221 C 
HETATM    4  O   UNL     1      19.870  52.486  48.495  1.00  0.00    -0.273 OA
HETATM    5  C   UNL     1      21.962  50.935  47.587  1.00  0.00     0.131 C 
HETATM    6  C   UNL     1      23.362  50.801  48.211  1.00  0.00     0.061 C 
HETATM    7  C   UNL     1      23.526  49.422  48.743  1.00  0.00    -0.019 A 
HETATM    8  C   UNL     1      22.430  48.631  49.034  1.00  0.00     0.044 A 
HETATM    9  N   UNL     1      22.899  47.432  49.505  1.00  0.00    -0.356 N 
HETATM   10  H   UNL     1      22.333  46.644  49.783  1.00  0.00     0.166 HD
HETATM   11  C   UNL     1      24.275  47.459  49.579  1.00  0.00     0.043 A 
HETATM   12  C   UNL     1      24.696  48.698  49.094  1.00  0.00    -0.001 A 
HETATM   13  C   UNL     1      25.169  46.486  50.043  1.00  0.00     0.030 A 
HETATM   14  C   UNL     1      26.532  46.793  50.015  1.00  0.00     0.002 A 
HETATM   15  C   UNL     1      26.982  48.021  49.532  1.00  0.00     0.001 A 
HETATM   16  C   UNL     1      26.075  48.981  49.068  1.00  0.00     0.014 A 
ENDROOT
BRANCH   1  17
HETATM   17  C   UNL     1      20.137  48.053  48.106  1.00  0.00    -0.029 A 
HETATM   18  C   UNL     1      20.635  47.361  46.996  1.00  0.00     0.012 A 
HETATM   19  C   UNL     1      19.832  46.469  46.275  1.00  0.00     0.038 A 
HETATM   20  C   UNL     1      18.508  46.238  46.652  1.00  0.00     0.074 A 
HETATM   21  C   UNL     1      17.983  46.920  47.760  1.00  0.00    -0.028 A 
HETATM   22  C   UNL     1      16.551  46.724  48.182  1.00  0.00     0.051 C 
HETATM   23  C   UNL     1      18.793  47.829  48.463  1.00  0.00     0.019 A 
BRANCH  20  24
HETATM   24  O   UNL     1      17.649  45.391  46.004  1.00  0.00    -0.355 OA
HETATM   25  C   UNL     1      18.005  44.015  45.953  1.00  0.00     0.210 C 
ENDBRANCH  20  24
ENDBRANCH   1  17
BRANCH   3  26
HETATM   26  C   UNL     1      18.916  50.823  49.942  1.00  0.00     0.108 C 
BRANCH  26  27
HETATM   27  C   UNL     1      17.509  50.598  49.391  1.00  0.00     0.051 C 
BRANCH  27  28
HETATM   28  C   UNL     1      16.632  51.807  49.392  1.00  0.00    -0.021 A 
HETATM   29  C   UNL     1      16.727  52.957  50.150  1.00  0.00     0.120 A 
HETATM   30  N   UNL     1      15.711  53.771  49.743  1.00  0.00    -0.285 N 
HETATM   31  C   UNL     1      15.404  55.091  50.239  1.00  0.00     0.179 C 
HETATM   32  N   UNL     1      14.965  53.244  48.757  1.00  0.00    -0.185 NA
HETATM   33  C   UNL     1      15.517  52.046  48.554  1.00  0.00     0.147 A 
ENDBRANCH  27  28
ENDBRANCH  26  27
ENDBRANCH   3  26
TORSDOF 5
ENDMDL
