MODEL 1
REMARK VINA RESULT:      -9.7      0.000      0.000
REMARK  6 active torsions:
REMARK  status: ('A' for Active; 'I' for Inactive)
REMARK    1  A    between atoms: N_2  and  C_4 
REMARK    2  A    between atoms: N_2  and  C_16 
REMARK    3  A    between atoms: C_4  and  C_5 
REMARK       I    between atoms: C_5  and  N_6 
REMARK    4  A    between atoms: N_6  and  C_7 
REMARK    5  A    between atoms: C_16  and  C_17 
REMARK    6  A    between atoms: C_21  and  C_22 
ROOT
HETATM    1  C   UNL     1      26.566  44.001  49.582  1.00  0.00     0.270 C 
HETATM    2  N   UNL     1      27.052  44.304  50.966  1.00  0.00    -0.061 N 
HETATM    3  H   UNL     1      28.041  44.598  50.862  1.00  0.00     0.280 HD
ENDROOT
BRANCH   2   4
HETATM    4  C   UNL     1      26.286  45.426  51.652  1.00  0.00     0.337 C 
BRANCH   4   5
HETATM    5  C   UNL     1      24.822  45.550  51.224  1.00  0.00     0.248 C 
HETATM    6  N   UNL     1      24.390  46.497  50.347  1.00  0.00    -0.326 N 
HETATM    7  H   UNL     1      23.406  46.354  50.124  1.00  0.00     0.169 HD
HETATM    8  O   UNL     1      23.984  44.751  51.658  1.00  0.00    -0.271 OA
BRANCH   6   9
HETATM    9  C   UNL     1      24.994  47.598  49.710  1.00  0.00     0.040 A 
HETATM   10  C   UNL     1      26.361  47.858  49.651  1.00  0.00     0.072 A 
HETATM   11  C   UNL     1      26.830  48.996  48.985  1.00  0.00     0.121 A 
HETATM   12  F   UNL     1      28.150  49.217  48.943  1.00  0.00    -0.206 F 
HETATM   13  C   UNL     1      25.968  49.894  48.380  1.00  0.00     0.084 A 
HETATM   14  C   UNL     1      24.611  49.645  48.454  1.00  0.00     0.121 A 
HETATM   15  F   UNL     1      23.749  50.498  47.885  1.00  0.00    -0.206 F 
HETATM   16  C   UNL     1      24.120  48.518  49.111  1.00  0.00     0.072 A 
ENDBRANCH   6   9
ENDBRANCH   4   5
ENDBRANCH   2   4
BRANCH   2  17
HETATM   17  C   UNL     1      27.193  43.045  51.813  1.00  0.00     0.295 C 
BRANCH  17  18
HETATM   18  C   UNL     1      28.333  43.201  52.774  1.00  0.00     0.082 A 
HETATM   19  N   UNL     1      29.509  42.612  52.500  1.00  0.00    -0.177 NA
HETATM   20  N   UNL     1      30.276  42.933  53.568  1.00  0.00    -0.277 N 
HETATM   21  H   UNL     1      31.230  42.586  53.608  1.00  0.00     0.189 HD
HETATM   22  C   UNL     1      29.626  43.684  54.517  1.00  0.00     0.062 A 
HETATM   23  C   UNL     1      28.356  43.876  54.010  1.00  0.00     0.062 A 
BRANCH  22  24
HETATM   24  C   UNL     1      30.232  44.103  55.781  1.00  0.00    -0.008 A 
HETATM   25  C   UNL     1      29.851  45.292  56.419  1.00  0.00     0.014 A 
HETATM   26  C   UNL     1      30.450  45.681  57.621  1.00  0.00     0.001 A 
HETATM   27  C   UNL     1      31.434  44.886  58.202  1.00  0.00     0.000 A 
HETATM   28  C   UNL     1      31.819  43.698  57.585  1.00  0.00     0.001 A 
HETATM   29  C   UNL     1      31.222  43.310  56.383  1.00  0.00     0.014 A 
ENDBRANCH  22  24
ENDBRANCH  17  18
ENDBRANCH   2  17
TORSDOF 6
ENDMDL
MODEL 2
REMARK VINA RESULT:      -9.2      3.194      8.506
REMARK  6 active torsions:
REMARK  status: ('A' for Active; 'I' for Inactive)
REMARK    1  A    between atoms: N_2  and  C_4 
REMARK    2  A    between atoms: N_2  and  C_16 
REMARK    3  A    between atoms: C_4  and  C_5 
REMARK       I    between atoms: C_5  and  N_6 
REMARK    4  A    between atoms: N_6  and  C_7 
REMARK    5  A    between atoms: C_16  and  C_17 
REMARK    6  A    between atoms: C_21  and  C_22 
ROOT
HETATM    1  C   UNL     1      25.878  44.247  54.431  1.00  0.00     0.270 C 
HETATM    2  N   UNL     1      26.726  43.610  53.373  1.00  0.00    -0.061 N 
HETATM    3  H   UNL     1      27.371  44.350  53.041  1.00  0.00     0.280 HD
ENDROOT
BRANCH   2   4
HETATM    4  C   UNL     1      27.557  42.438  53.878  1.00  0.00     0.337 C 
BRANCH   4   5
HETATM    5  C   UNL     1      29.008  42.432  53.392  1.00  0.00     0.248 C 
HETATM    6  N   UNL     1      30.011  43.058  54.065  1.00  0.00    -0.326 N 
HETATM    7  H   UNL     1      30.911  42.859  53.629  1.00  0.00     0.169 HD
HETATM    8  O   UNL     1      29.309  41.817  52.363  1.00  0.00    -0.271 OA
BRANCH   6   9
HETATM    9  C   UNL     1      30.066  43.897  55.195  1.00  0.00     0.040 A 
HETATM   10  C   UNL     1      29.255  45.005  55.429  1.00  0.00     0.072 A 
HETATM   11  C   UNL     1      29.418  45.758  56.597  1.00  0.00     0.121 A 
HETATM   12  F   UNL     1      28.622  46.816  56.794  1.00  0.00    -0.206 F 
HETATM   13  C   UNL     1      30.380  45.442  57.541  1.00  0.00     0.084 A 
HETATM   14  C   UNL     1      31.196  44.353  57.300  1.00  0.00     0.121 A 
HETATM   15  F   UNL     1      32.141  44.023  58.189  1.00  0.00    -0.206 F 
HETATM   16  C   UNL     1      31.052  43.586  56.144  1.00  0.00     0.072 A 
ENDBRANCH   6   9
ENDBRANCH   4   5
ENDBRANCH   2   4
BRANCH   2  17
HETATM   17  C   UNL     1      25.932  43.304  52.109  1.00  0.00     0.295 C 
BRANCH  17  18
HETATM   18  C   UNL     1      25.507  44.581  51.451  1.00  0.00     0.082 A 
HETATM   19  N   UNL     1      24.197  44.830  51.284  1.00  0.00    -0.177 NA
HETATM   20  N   UNL     1      24.184  46.025  50.649  1.00  0.00    -0.277 N 
HETATM   21  H   UNL     1      23.290  46.434  50.393  1.00  0.00     0.189 HD
HETATM   22  C   UNL     1      25.433  46.533  50.388  1.00  0.00     0.062 A 
HETATM   23  C   UNL     1      26.311  45.605  50.914  1.00  0.00     0.062 A 
BRANCH  22  24
HETATM   24  C   UNL     1      25.671  47.782  49.664  1.00  0.00    -0.008 A 
HETATM   25  C   UNL     1      24.614  48.529  49.125  1.00  0.00     0.014 A 
HETATM   26  C   UNL     1      24.861  49.715  48.427  1.00  0.00     0.001 A 
HETATM   27  C   UNL     1      26.167  50.170  48.261  1.00  0.00     0.000 A 
HETATM   28  C   UNL     1      27.227  49.442  48.795  1.00  0.00     0.001 A 
HETATM   29  C   UNL     1      26.980  48.257  49.492  1.00  0.00     0.014 A 
ENDBRANCH  22  24
ENDBRANCH  17  18
ENDBRANCH   2  17
TORSDOF 6
ENDMDL
MODEL 3
REMARK VINA RESULT:      -9.2     12.217     13.285
REMARK  6 active torsions:
REMARK  status: ('A' for Active; 'I' for Inactive)
REMARK    1  A    between atoms: N_2  and  C_4 
REMARK    2  A    between atoms: N_2  and  C_16 
REMARK    3  A    between atoms: C_4  and  C_5 
REMARK       I    between atoms: C_5  and  N_6 
REMARK    4  A    between atoms: N_6  and  C_7 
REMARK    5  A    between atoms: C_16  and  C_17 
REMARK    6  A    between atoms: C_21  and  C_22 
ROOT
HETATM    1  C   UNL     1      27.695  47.222  38.237  1.00  0.00     0.270 C 
HETATM    2  N   UNL     1      28.250  48.097  39.318  1.00  0.00    -0.061 N 
HETATM    3  H   UNL     1      28.981  48.677  38.868  1.00  0.00     0.280 HD
ENDROOT
BRANCH   2   4
HETATM    4  C   UNL     1      27.217  49.024  39.945  1.00  0.00     0.337 C 
BRANCH   4   5
HETATM    5  C   UNL     1      26.766  50.175  39.043  1.00  0.00     0.248 C 
HETATM    6  N   UNL     1      27.587  51.203  38.697  1.00  0.00    -0.326 N 
HETATM    7  H   UNL     1      27.129  51.813  38.021  1.00  0.00     0.169 HD
HETATM    8  O   UNL     1      25.621  50.177  38.574  1.00  0.00    -0.271 OA
BRANCH   6   9
HETATM    9  C   UNL     1      28.889  51.592  39.067  1.00  0.00     0.040 A 
HETATM   10  C   UNL     1      29.226  52.359  40.179  1.00  0.00     0.072 A 
HETATM   11  C   UNL     1      30.565  52.679  40.430  1.00  0.00     0.121 A 
HETATM   12  F   UNL     1      30.858  53.415  41.509  1.00  0.00    -0.206 F 
HETATM   13  C   UNL     1      31.585  52.260  39.592  1.00  0.00     0.084 A 
HETATM   14  C   UNL     1      31.247  51.513  38.480  1.00  0.00     0.121 A 
HETATM   15  F   UNL     1      32.208  51.097  37.645  1.00  0.00    -0.206 F 
HETATM   16  C   UNL     1      29.921  51.182  38.209  1.00  0.00     0.072 A 
ENDBRANCH   6   9
ENDBRANCH   4   5
ENDBRANCH   2   4
BRANCH   2  17
HETATM   17  C   UNL     1      29.067  47.307  40.334  1.00  0.00     0.295 C 
BRANCH  17  18
HETATM   18  C   UNL     1      30.317  48.059  40.680  1.00  0.00     0.082 A 
HETATM   19  N   UNL     1      31.444  47.811  39.992  1.00  0.00    -0.177 NA
HETATM   20  N   UNL     1      32.352  48.626  40.577  1.00  0.00    -0.277 N 
HETATM   21  H   UNL     1      33.310  48.615  40.238  1.00  0.00     0.189 HD
HETATM   22  C   UNL     1      31.850  49.365  41.620  1.00  0.00     0.062 A 
HETATM   23  C   UNL     1      30.517  49.013  41.696  1.00  0.00     0.062 A 
BRANCH  22  24
HETATM   24  C   UNL     1      32.655  50.273  42.438  1.00  0.00    -0.008 A 
HETATM   25  C   UNL     1      32.125  50.901  43.574  1.00  0.00     0.014 A 
HETATM   26  C   UNL     1      32.907  51.774  44.337  1.00  0.00     0.001 A 
HETATM   27  C   UNL     1      34.228  52.027  43.977  1.00  0.00     0.000 A 
HETATM   28  C   UNL     1      34.771  51.405  42.855  1.00  0.00     0.001 A 
HETATM   29  C   UNL     1      33.990  50.534  42.092  1.00  0.00     0.014 A 
ENDBRANCH  22  24
ENDBRANCH  17  18
ENDBRANCH   2  17
TORSDOF 6
ENDMDL
MODEL 4
REMARK VINA RESULT:      -9.1      2.603      3.666
REMARK  6 active torsions:
REMARK  status: ('A' for Active; 'I' for Inactive)
REMARK    1  A    between atoms: N_2  and  C_4 
REMARK    2  A    between atoms: N_2  and  C_16 
REMARK    3  A    between atoms: C_4  and  C_5 
REMARK       I    between atoms: C_5  and  N_6 
REMARK    4  A    between atoms: N_6  and  C_7 
REMARK    5  A    between atoms: C_16  and  C_17 
REMARK    6  A    between atoms: C_21  and  C_22 
ROOT
HETATM    1  C   UNL     1      24.950  45.137  49.165  1.00  0.00     0.270 C 
HETATM    2  N   UNL     1      25.147  45.644  50.560  1.00  0.00    -0.061 N 
HETATM    3  H   UNL     1      26.150  45.504  50.776  1.00  0.00     0.280 HD
ENDROOT
BRANCH   2   4
HETATM    4  C   UNL     1      24.819  47.121  50.727  1.00  0.00     0.337 C 
BRANCH   4   5
HETATM    5  C   UNL     1      25.603  48.054  49.801  1.00  0.00     0.248 C 
HETATM    6  N   UNL     1      24.997  48.959  48.985  1.00  0.00    -0.326 N 
HETATM    7  H   UNL     1      25.692  49.542  48.521  1.00  0.00     0.169 HD
HETATM    8  O   UNL     1      26.839  48.021  49.798  1.00  0.00    -0.271 OA
BRANCH   6   9
HETATM    9  C   UNL     1      23.659  49.246  48.653  1.00  0.00     0.040 A 
HETATM   10  C   UNL     1      23.043  50.491  48.751  1.00  0.00     0.072 A 
HETATM   11  C   UNL     1      21.699  50.638  48.390  1.00  0.00     0.121 A 
HETATM   12  F   UNL     1      21.136  51.848  48.493  1.00  0.00    -0.206 F 
HETATM   13  C   UNL     1      20.943  49.569  47.941  1.00  0.00     0.084 A 
HETATM   14  C   UNL     1      21.550  48.330  47.860  1.00  0.00     0.121 A 
HETATM   15  F   UNL     1      20.845  47.274  47.436  1.00  0.00    -0.206 F 
HETATM   16  C   UNL     1      22.887  48.159  48.213  1.00  0.00     0.072 A 
ENDBRANCH   6   9
ENDBRANCH   4   5
ENDBRANCH   2   4
BRANCH   2  17
HETATM   17  C   UNL     1      24.482  44.744  51.596  1.00  0.00     0.295 C 
BRANCH  17  18
HETATM   18  C   UNL     1      25.414  44.516  52.748  1.00  0.00     0.082 A 
HETATM   19  N   UNL     1      24.905  44.232  53.958  1.00  0.00    -0.177 NA
HETATM   20  N   UNL     1      26.003  44.119  54.741  1.00  0.00    -0.277 N 
HETATM   21  H   UNL     1      25.882  43.916  55.729  1.00  0.00     0.189 HD
HETATM   22  C   UNL     1      27.186  44.343  54.079  1.00  0.00     0.062 A 
HETATM   23  C   UNL     1      26.819  44.596  52.771  1.00  0.00     0.062 A 
BRANCH  22  24
HETATM   24  C   UNL     1      28.498  44.332  54.727  1.00  0.00    -0.008 A 
HETATM   25  C   UNL     1      29.397  43.272  54.544  1.00  0.00     0.014 A 
HETATM   26  C   UNL     1      30.641  43.273  55.181  1.00  0.00     0.001 A 
HETATM   27  C   UNL     1      31.005  44.336  56.004  1.00  0.00     0.000 A 
HETATM   28  C   UNL     1      30.126  45.400  56.190  1.00  0.00     0.001 A 
HETATM   29  C   UNL     1      28.882  45.398  55.555  1.00  0.00     0.014 A 
ENDBRANCH  22  24
ENDBRANCH  17  18
ENDBRANCH   2  17
TORSDOF 6
ENDMDL
MODEL 5
REMARK VINA RESULT:      -9.1      3.536      5.263
REMARK  6 active torsions:
REMARK  status: ('A' for Active; 'I' for Inactive)
REMARK    1  A    between atoms: N_2  and  C_4 
REMARK    2  A    between atoms: N_2  and  C_16 
REMARK    3  A    between atoms: C_4  and  C_5 
REMARK       I    between atoms: C_5  and  N_6 
REMARK    4  A    between atoms: N_6  and  C_7 
REMARK    5  A    between atoms: C_16  and  C_17 
REMARK    6  A    between atoms: C_21  and  C_22 
ROOT
HETATM    1  C   UNL     1      24.977  44.796  52.932  1.00  0.00     0.270 C 
HETATM    2  N   UNL     1      25.804  45.922  52.393  1.00  0.00    -0.061 N 
HETATM    3  H   UNL     1      26.784  45.585  52.399  1.00  0.00     0.280 HD
ENDROOT
BRANCH   2   4
HETATM    4  C   UNL     1      25.441  46.321  50.968  1.00  0.00     0.337 C 
BRANCH   4   5
HETATM    5  C   UNL     1      26.583  46.182  49.960  1.00  0.00     0.248 C 
HETATM    6  N   UNL     1      27.267  45.020  49.779  1.00  0.00    -0.326 N 
HETATM    7  H   UNL     1      27.921  45.108  49.003  1.00  0.00     0.169 HD
HETATM    8  O   UNL     1      26.896  47.144  49.249  1.00  0.00    -0.271 OA
BRANCH   6   9
HETATM    9  C   UNL     1      27.264  43.765  50.419  1.00  0.00     0.040 A 
HETATM   10  C   UNL     1      26.404  42.707  50.138  1.00  0.00     0.072 A 
HETATM   11  C   UNL     1      26.507  41.510  50.855  1.00  0.00     0.121 A 
HETATM   12  F   UNL     1      25.667  40.510  50.560  1.00  0.00    -0.206 F 
HETATM   13  C   UNL     1      27.445  41.340  51.859  1.00  0.00     0.084 A 
HETATM   14  C   UNL     1      28.288  42.396  52.149  1.00  0.00     0.121 A 
HETATM   15  F   UNL     1      29.201  42.268  53.119  1.00  0.00    -0.206 F 
HETATM   16  C   UNL     1      28.204  43.598  51.448  1.00  0.00     0.072 A 
ENDBRANCH   6   9
ENDBRANCH   4   5
ENDBRANCH   2   4
BRANCH   2  17
HETATM   17  C   UNL     1      25.876  47.096  53.363  1.00  0.00     0.295 C 
BRANCH  17  18
HETATM   18  C   UNL     1      26.881  46.809  54.437  1.00  0.00     0.082 A 
HETATM   19  N   UNL     1      27.033  47.685  55.445  1.00  0.00    -0.177 NA
HETATM   20  N   UNL     1      28.016  47.133  56.193  1.00  0.00    -0.277 N 
HETATM   21  H   UNL     1      28.332  47.622  57.026  1.00  0.00     0.189 HD
HETATM   22  C   UNL     1      28.508  45.954  55.687  1.00  0.00     0.062 A 
HETATM   23  C   UNL     1      27.771  45.723  54.543  1.00  0.00     0.062 A 
BRANCH  22  24
HETATM   24  C   UNL     1      29.611  45.205  56.291  1.00  0.00    -0.008 A 
HETATM   25  C   UNL     1      30.076  45.498  57.581  1.00  0.00     0.014 A 
HETATM   26  C   UNL     1      31.137  44.777  58.137  1.00  0.00     0.001 A 
HETATM   27  C   UNL     1      31.744  43.754  57.414  1.00  0.00     0.000 A 
HETATM   28  C   UNL     1      31.289  43.446  56.134  1.00  0.00     0.001 A 
HETATM   29  C   UNL     1      30.229  44.166  55.578  1.00  0.00     0.014 A 
ENDBRANCH  22  24
ENDBRANCH  17  18
ENDBRANCH   2  17
TORSDOF 6
ENDMDL
MODEL 6
REMARK VINA RESULT:      -9.0      2.297      3.309
REMARK  6 active torsions:
REMARK  status: ('A' for Active; 'I' for Inactive)
REMARK    1  A    between atoms: N_2  and  C_4 
REMARK    2  A    between atoms: N_2  and  C_16 
REMARK    3  A    between atoms: C_4  and  C_5 
REMARK       I    between atoms: C_5  and  N_6 
REMARK    4  A    between atoms: N_6  and  C_7 
REMARK    5  A    between atoms: C_16  and  C_17 
REMARK    6  A    between atoms: C_21  and  C_22 
ROOT
HETATM    1  C   UNL     1      26.654  40.495  48.513  1.00  0.00     0.270 C 
HETATM    2  N   UNL     1      26.833  41.574  49.536  1.00  0.00    -0.061 N 
HETATM    3  H   UNL     1      27.849  41.779  49.560  1.00  0.00     0.280 HD
ENDROOT
BRANCH   2   4
HETATM    4  C   UNL     1      26.090  42.861  49.204  1.00  0.00     0.337 C 
BRANCH   4   5
HETATM    5  C   UNL     1      24.646  42.909  49.709  1.00  0.00     0.248 C 
HETATM    6  N   UNL     1      24.203  43.855  50.580  1.00  0.00    -0.326 N 
HETATM    7  H   UNL     1      23.197  43.768  50.719  1.00  0.00     0.169 HD
HETATM    8  O   UNL     1      23.824  42.080  49.300  1.00  0.00    -0.271 OA
BRANCH   6   9
HETATM    9  C   UNL     1      24.820  44.889  51.310  1.00  0.00     0.040 A 
HETATM   10  C   UNL     1      24.987  44.926  52.692  1.00  0.00     0.072 A 
HETATM   11  C   UNL     1      25.618  46.021  53.293  1.00  0.00     0.121 A 
HETATM   12  F   UNL     1      25.766  46.026  54.623  1.00  0.00    -0.206 F 
HETATM   13  C   UNL     1      26.083  47.093  52.550  1.00  0.00     0.084 A 
HETATM   14  C   UNL     1      25.902  47.064  51.181  1.00  0.00     0.121 A 
HETATM   15  F   UNL     1      26.334  48.087  50.433  1.00  0.00    -0.206 F 
HETATM   16  C   UNL     1      25.277  45.984  50.559  1.00  0.00     0.072 A 
ENDBRANCH   6   9
ENDBRANCH   4   5
ENDBRANCH   2   4
BRANCH   2  17
HETATM   17  C   UNL     1      26.589  41.068  50.953  1.00  0.00     0.295 C 
BRANCH  17  18
HETATM   18  C   UNL     1      27.664  41.572  51.868  1.00  0.00     0.082 A 
HETATM   19  N   UNL     1      28.814  40.886  51.971  1.00  0.00    -0.177 NA
HETATM   20  N   UNL     1      29.522  41.596  52.880  1.00  0.00    -0.277 N 
HETATM   21  H   UNL     1      30.445  41.267  53.148  1.00  0.00     0.189 HD
HETATM   22  C   UNL     1      28.857  42.692  53.373  1.00  0.00     0.062 A 
HETATM   23  C   UNL     1      27.643  42.697  52.714  1.00  0.00     0.062 A 
BRANCH  22  24
HETATM   24  C   UNL     1      29.397  43.577  54.405  1.00  0.00    -0.008 A 
HETATM   25  C   UNL     1      28.795  44.807  54.705  1.00  0.00     0.014 A 
HETATM   26  C   UNL     1      29.332  45.645  55.687  1.00  0.00     0.001 A 
HETATM   27  C   UNL     1      30.475  45.262  56.384  1.00  0.00     0.000 A 
HETATM   28  C   UNL     1      31.082  44.041  56.103  1.00  0.00     0.001 A 
HETATM   29  C   UNL     1      30.545  43.204  55.121  1.00  0.00     0.014 A 
ENDBRANCH  22  24
ENDBRANCH  17  18
ENDBRANCH   2  17
TORSDOF 6
ENDMDL
MODEL 7
REMARK VINA RESULT:      -9.0     12.119     13.107
REMARK  6 active torsions:
REMARK  status: ('A' for Active; 'I' for Inactive)
REMARK    1  A    between atoms: N_2  and  C_4 
REMARK    2  A    between atoms: N_2  and  C_16 
REMARK    3  A    between atoms: C_4  and  C_5 
REMARK       I    between atoms: C_5  and  N_6 
REMARK    4  A    between atoms: N_6  and  C_7 
REMARK    5  A    between atoms: C_16  and  C_17 
REMARK    6  A    between atoms: C_21  and  C_22 
ROOT
HETATM    1  C   UNL     1      27.627  46.813  37.828  1.00  0.00     0.270 C 
HETATM    2  N   UNL     1      28.370  47.607  38.858  1.00  0.00    -0.061 N 
HETATM    3  H   UNL     1      28.406  48.578  38.498  1.00  0.00     0.280 HD
ENDROOT
BRANCH   2   4
HETATM    4  C   UNL     1      27.694  47.624  40.223  1.00  0.00     0.337 C 
BRANCH   4   5
HETATM    5  C   UNL     1      26.413  48.458  40.287  1.00  0.00     0.248 C 
HETATM    6  N   UNL     1      26.417  49.818  40.227  1.00  0.00    -0.326 N 
HETATM    7  H   UNL     1      25.463  50.175  40.194  1.00  0.00     0.169 HD
HETATM    8  O   UNL     1      25.315  47.894  40.368  1.00  0.00    -0.271 OA
BRANCH   6   9
HETATM    9  C   UNL     1      27.426  50.800  40.209  1.00  0.00     0.040 A 
HETATM   10  C   UNL     1      28.065  51.334  41.325  1.00  0.00     0.072 A 
HETATM   11  C   UNL     1      29.053  52.312  41.165  1.00  0.00     0.121 A 
HETATM   12  F   UNL     1      29.651  52.805  42.257  1.00  0.00    -0.206 F 
HETATM   13  C   UNL     1      29.417  52.784  39.916  1.00  0.00     0.084 A 
HETATM   14  C   UNL     1      28.770  52.266  38.810  1.00  0.00     0.121 A 
HETATM   15  F   UNL     1      29.094  52.705  37.587  1.00  0.00    -0.206 F 
HETATM   16  C   UNL     1      27.784  51.290  38.943  1.00  0.00     0.072 A 
ENDBRANCH   6   9
ENDBRANCH   4   5
ENDBRANCH   2   4
BRANCH   2  17
HETATM   17  C   UNL     1      29.849  47.242  38.906  1.00  0.00     0.295 C 
BRANCH  17  18
HETATM   18  C   UNL     1      30.638  48.384  39.473  1.00  0.00     0.082 A 
HETATM   19  N   UNL     1      31.038  49.375  38.659  1.00  0.00    -0.177 NA
HETATM   20  N   UNL     1      31.730  50.196  39.482  1.00  0.00    -0.277 N 
HETATM   21  H   UNL     1      32.156  51.033  39.095  1.00  0.00     0.189 HD
HETATM   22  C   UNL     1      31.802  49.754  40.781  1.00  0.00     0.062 A 
HETATM   23  C   UNL     1      31.085  48.573  40.795  1.00  0.00     0.062 A 
BRANCH  22  24
HETATM   24  C   UNL     1      32.542  50.445  41.837  1.00  0.00    -0.008 A 
HETATM   25  C   UNL     1      31.915  50.862  43.019  1.00  0.00     0.014 A 
HETATM   26  C   UNL     1      32.637  51.530  44.013  1.00  0.00     0.001 A 
HETATM   27  C   UNL     1      33.994  51.787  43.839  1.00  0.00     0.000 A 
HETATM   28  C   UNL     1      34.634  51.373  42.674  1.00  0.00     0.001 A 
HETATM   29  C   UNL     1      33.913  50.706  41.680  1.00  0.00     0.014 A 
ENDBRANCH  22  24
ENDBRANCH  17  18
ENDBRANCH   2  17
TORSDOF 6
ENDMDL
MODEL 8
REMARK VINA RESULT:      -9.0      2.902      4.039
REMARK  6 active torsions:
REMARK  status: ('A' for Active; 'I' for Inactive)
REMARK    1  A    between atoms: N_2  and  C_4 
REMARK    2  A    between atoms: N_2  and  C_16 
REMARK    3  A    between atoms: C_4  and  C_5 
REMARK       I    between atoms: C_5  and  N_6 
REMARK    4  A    between atoms: N_6  and  C_7 
REMARK    5  A    between atoms: C_16  and  C_17 
REMARK    6  A    between atoms: C_21  and  C_22 
ROOT
HETATM    1  C   UNL     1      26.550  45.793  49.796  1.00  0.00     0.270 C 
HETATM    2  N   UNL     1      25.655  46.700  50.583  1.00  0.00    -0.061 N 
HETATM    3  H   UNL     1      26.268  47.441  50.970  1.00  0.00     0.280 HD
ENDROOT
BRANCH   2   4
HETATM    4  C   UNL     1      24.567  47.362  49.747  1.00  0.00     0.337 C 
BRANCH   4   5
HETATM    5  C   UNL     1      24.952  48.726  49.171  1.00  0.00     0.248 C 
HETATM    6  N   UNL     1      24.033  49.689  48.886  1.00  0.00    -0.326 N 
HETATM    7  H   UNL     1      24.497  50.550  48.600  1.00  0.00     0.169 HD
HETATM    8  O   UNL     1      26.142  48.997  48.973  1.00  0.00    -0.271 OA
BRANCH   6   9
HETATM    9  C   UNL     1      22.626  49.743  48.899  1.00  0.00     0.040 A 
HETATM   10  C   UNL     1      21.770  48.662  49.090  1.00  0.00     0.072 A 
HETATM   11  C   UNL     1      20.384  48.854  49.076  1.00  0.00     0.121 A 
HETATM   12  F   UNL     1      19.587  47.796  49.265  1.00  0.00    -0.206 F 
HETATM   13  C   UNL     1      19.823  50.103  48.867  1.00  0.00     0.084 A 
HETATM   14  C   UNL     1      20.673  51.173  48.661  1.00  0.00     0.121 A 
HETATM   15  F   UNL     1      20.163  52.392  48.449  1.00  0.00    -0.206 F 
HETATM   16  C   UNL     1      22.057  51.006  48.671  1.00  0.00     0.072 A 
ENDBRANCH   6   9
ENDBRANCH   4   5
ENDBRANCH   2   4
BRANCH   2  17
HETATM   17  C   UNL     1      25.138  46.035  51.853  1.00  0.00     0.295 C 
BRANCH  17  18
HETATM   18  C   UNL     1      26.196  46.069  52.914  1.00  0.00     0.082 A 
HETATM   19  N   UNL     1      26.443  47.221  53.560  1.00  0.00    -0.177 NA
HETATM   20  N   UNL     1      27.449  46.897  54.405  1.00  0.00    -0.277 N 
HETATM   21  H   UNL     1      27.834  47.618  55.008  1.00  0.00     0.189 HD
HETATM   22  C   UNL     1      27.864  45.591  54.304  1.00  0.00     0.062 A 
HETATM   23  C   UNL     1      27.048  45.032  53.340  1.00  0.00     0.062 A 
BRANCH  22  24
HETATM   24  C   UNL     1      28.972  45.026  55.075  1.00  0.00    -0.008 A 
HETATM   25  C   UNL     1      29.471  45.666  56.219  1.00  0.00     0.014 A 
HETATM   26  C   UNL     1      30.537  45.116  56.936  1.00  0.00     0.001 A 
HETATM   27  C   UNL     1      31.116  43.919  56.522  1.00  0.00     0.000 A 
HETATM   28  C   UNL     1      30.628  43.268  55.393  1.00  0.00     0.001 A 
HETATM   29  C   UNL     1      29.562  43.817  54.675  1.00  0.00     0.014 A 
ENDBRANCH  22  24
ENDBRANCH  17  18
ENDBRANCH   2  17
TORSDOF 6
ENDMDL
MODEL 9
REMARK VINA RESULT:      -8.9     12.226     13.256
REMARK  6 active torsions:
REMARK  status: ('A' for Active; 'I' for Inactive)
REMARK    1  A    between atoms: N_2  and  C_4 
REMARK    2  A    between atoms: N_2  and  C_16 
REMARK    3  A    between atoms: C_4  and  C_5 
REMARK       I    between atoms: C_5  and  N_6 
REMARK    4  A    between atoms: N_6  and  C_7 
REMARK    5  A    between atoms: C_16  and  C_17 
REMARK    6  A    between atoms: C_21  and  C_22 
ROOT
HETATM    1  C   UNL     1      27.046  46.785  38.213  1.00  0.00     0.270 C 
HETATM    2  N   UNL     1      27.760  47.693  39.166  1.00  0.00    -0.061 N 
HETATM    3  H   UNL     1      28.405  48.263  38.588  1.00  0.00     0.280 HD
ENDROOT
BRANCH   2   4
HETATM    4  C   UNL     1      26.835  48.634  39.925  1.00  0.00     0.337 C 
BRANCH   4   5
HETATM    5  C   UNL     1      26.251  49.769  39.082  1.00  0.00     0.248 C 
HETATM    6  N   UNL     1      26.991  50.835  38.673  1.00  0.00    -0.326 N 
HETATM    7  H   UNL     1      26.445  51.429  38.049  1.00  0.00     0.169 HD
HETATM    8  O   UNL     1      25.069  49.723  38.722  1.00  0.00    -0.271 OA
BRANCH   6   9
HETATM    9  C   UNL     1      28.303  51.279  38.924  1.00  0.00     0.040 A 
HETATM   10  C   UNL     1      29.398  51.108  38.082  1.00  0.00     0.072 A 
HETATM   11  C   UNL     1      30.654  51.597  38.457  1.00  0.00     0.121 A 
HETATM   12  F   UNL     1      31.688  51.419  37.624  1.00  0.00    -0.206 F 
HETATM   13  C   UNL     1      30.853  52.250  39.662  1.00  0.00     0.084 A 
HETATM   14  C   UNL     1      29.769  52.405  40.505  1.00  0.00     0.121 A 
HETATM   15  F   UNL     1      29.928  53.025  41.681  1.00  0.00    -0.206 F 
HETATM   16  C   UNL     1      28.508  51.926  40.153  1.00  0.00     0.072 A 
ENDBRANCH   6   9
ENDBRANCH   4   5
ENDBRANCH   2   4
BRANCH   2  17
HETATM   17  C   UNL     1      28.737  46.934  40.058  1.00  0.00     0.295 C 
BRANCH  17  18
HETATM   18  C   UNL     1      29.945  47.780  40.327  1.00  0.00     0.082 A 
HETATM   19  N   UNL     1      30.966  47.764  39.453  1.00  0.00    -0.177 NA
HETATM   20  N   UNL     1      31.871  48.599  40.015  1.00  0.00    -0.277 N 
HETATM   21  H   UNL     1      32.757  48.749  39.543  1.00  0.00     0.189 HD
HETATM   22  C   UNL     1      31.472  49.126  41.219  1.00  0.00     0.062 A 
HETATM   23  C   UNL     1      30.211  48.607  41.435  1.00  0.00     0.062 A 
BRANCH  22  24
HETATM   24  C   UNL     1      32.305  50.008  42.038  1.00  0.00    -0.008 A 
HETATM   25  C   UNL     1      33.650  50.247  41.724  1.00  0.00     0.014 A 
HETATM   26  C   UNL     1      34.432  51.084  42.525  1.00  0.00     0.001 A 
HETATM   27  C   UNL     1      33.879  51.697  43.646  1.00  0.00     0.000 A 
HETATM   28  C   UNL     1      32.542  51.476  43.968  1.00  0.00     0.001 A 
HETATM   29  C   UNL     1      31.761  50.638  43.169  1.00  0.00     0.014 A 
ENDBRANCH  22  24
ENDBRANCH  17  18
ENDBRANCH   2  17
TORSDOF 6
ENDMDL
MODEL 10
REMARK VINA RESULT:      -8.8      1.623      2.428
REMARK  6 active torsions:
REMARK  status: ('A' for Active; 'I' for Inactive)
REMARK    1  A    between atoms: N_2  and  C_4 
REMARK    2  A    between atoms: N_2  and  C_16 
REMARK    3  A    between atoms: C_4  and  C_5 
REMARK       I    between atoms: C_5  and  N_6 
REMARK    4  A    between atoms: N_6  and  C_7 
REMARK    5  A    between atoms: C_16  and  C_17 
REMARK    6  A    between atoms: C_21  and  C_22 
ROOT
HETATM    1  C   UNL     1      24.205  43.993  49.269  1.00  0.00     0.270 C 
HETATM    2  N   UNL     1      25.641  44.393  49.131  1.00  0.00    -0.061 N 
HETATM    3  H   UNL     1      25.786  44.595  48.125  1.00  0.00     0.280 HD
ENDROOT
BRANCH   2   4
HETATM    4  C   UNL     1      26.010  45.635  49.931  1.00  0.00     0.337 C 
BRANCH   4   5
HETATM    5  C   UNL     1      24.933  46.102  50.912  1.00  0.00     0.248 C 
HETATM    6  N   UNL     1      24.142  47.183  50.675  1.00  0.00    -0.326 N 
HETATM    7  H   UNL     1      23.433  47.272  51.401  1.00  0.00     0.169 HD
HETATM    8  O   UNL     1      24.737  45.470  51.957  1.00  0.00    -0.271 OA
BRANCH   6   9
HETATM    9  C   UNL     1      24.101  48.174  49.675  1.00  0.00     0.040 A 
HETATM   10  C   UNL     1      25.200  48.854  49.155  1.00  0.00     0.072 A 
HETATM   11  C   UNL     1      25.018  49.823  48.162  1.00  0.00     0.121 A 
HETATM   12  F   UNL     1      26.094  50.458  47.680  1.00  0.00    -0.206 F 
HETATM   13  C   UNL     1      23.762  50.143  47.675  1.00  0.00     0.084 A 
HETATM   14  C   UNL     1      22.671  49.480  48.204  1.00  0.00     0.121 A 
HETATM   15  F   UNL     1      21.441  49.770  47.761  1.00  0.00    -0.206 F 
HETATM   16  C   UNL     1      22.826  48.511  49.194  1.00  0.00     0.072 A 
ENDBRANCH   6   9
ENDBRANCH   4   5
ENDBRANCH   2   4
BRANCH   2  17
HETATM   17  C   UNL     1      26.587  43.217  49.347  1.00  0.00     0.295 C 
BRANCH  17  18
HETATM   18  C   UNL     1      27.012  43.160  50.784  1.00  0.00     0.082 A 
HETATM   19  N   UNL     1      26.260  42.479  51.665  1.00  0.00    -0.177 NA
HETATM   20  N   UNL     1      26.911  42.660  52.837  1.00  0.00    -0.277 N 
HETATM   21  H   UNL     1      26.526  42.245  53.681  1.00  0.00     0.189 HD
HETATM   22  C   UNL     1      28.032  43.448  52.738  1.00  0.00     0.062 A 
HETATM   23  C   UNL     1      28.118  43.777  51.399  1.00  0.00     0.062 A 
BRANCH  22  24
HETATM   24  C   UNL     1      28.865  43.829  53.879  1.00  0.00    -0.008 A 
HETATM   25  C   UNL     1      29.951  43.043  54.289  1.00  0.00     0.014 A 
HETATM   26  C   UNL     1      30.728  43.418  55.389  1.00  0.00     0.001 A 
HETATM   27  C   UNL     1      30.432  44.584  56.090  1.00  0.00     0.000 A 
HETATM   28  C   UNL     1      29.361  45.379  55.691  1.00  0.00     0.001 A 
HETATM   29  C   UNL     1      28.584  45.005  54.593  1.00  0.00     0.014 A 
ENDBRANCH  22  24
ENDBRANCH  17  18
ENDBRANCH   2  17
TORSDOF 6
ENDMDL
