MODEL 1
REMARK VINA RESULT:      -9.0      0.000      0.000
REMARK  6 active torsions:
REMARK  status: ('A' for Active; 'I' for Inactive)
REMARK    1  A    between atoms: C_4  and  C_5 
REMARK    2  A    between atoms: C_5  and  N_6 
REMARK       I    between atoms: N_6  and  C_7 
REMARK    3  A    between atoms: C_7  and  C_8 
REMARK    4  A    between atoms: C_12  and  C_13 
REMARK    5  A    between atoms: C_13  and  O_14 
REMARK    6  A    between atoms: O_14  and  C_15 
ROOT
HETATM    1  C   UNL     1      26.538  47.436  49.491  1.00  0.00     0.146 A 
HETATM    2  N   UNL     1      27.541  48.098  48.880  1.00  0.00    -0.169 NA
HETATM    3  N   UNL     1      26.959  49.212  48.403  1.00  0.00    -0.279 N 
HETATM    4  H   UNL     1      27.540  49.895  47.927  1.00  0.00     0.189 HD
HETATM    5  C   UNL     1      25.612  49.270  48.625  1.00  0.00     0.054 A 
HETATM    6  C   UNL     1      25.314  48.142  49.357  1.00  0.00     0.068 A 
ENDROOT
BRANCH   1   7
HETATM    7  C   UNL     1      26.730  46.153  50.185  1.00  0.00     0.272 C 
HETATM    8  N   UNL     1      26.082  46.058  51.390  1.00  0.00    -0.350 N 
HETATM    9  H   UNL     1      25.514  46.841  51.703  1.00  0.00     0.163 HD
HETATM   10  O   UNL     1      27.419  45.247  49.723  1.00  0.00    -0.266 OA
BRANCH   8  11
HETATM   11  C   UNL     1      26.124  44.859  52.186  1.00  0.00     0.182 C 
BRANCH  11  12
HETATM   12  C   UNL     1      27.181  44.896  53.268  1.00  0.00     0.052 A 
HETATM   13  N   UNL     1      28.189  43.983  53.221  1.00  0.00    -0.257 NA
HETATM   14  C   UNL     1      29.131  44.025  54.194  1.00  0.00     0.031 A 
HETATM   15  C   UNL     1      30.225  43.002  54.136  1.00  0.00     0.070 C 
HETATM   16  C   UNL     1      29.106  44.962  55.221  1.00  0.00     0.027 A 
HETATM   17  C   UNL     1      28.077  45.895  55.254  1.00  0.00     0.004 A 
HETATM   18  C   UNL     1      27.101  45.865  54.265  1.00  0.00     0.029 A 
ENDBRANCH  11  12
ENDBRANCH   8  11
ENDBRANCH   1   7
BRANCH   5  19
HETATM   19  C   UNL     1      24.765  50.380  48.126  1.00  0.00     0.234 C 
BRANCH  19  20
HETATM   20  O   UNL     1      23.651  49.776  47.474  1.00  0.00    -0.345 OA
BRANCH  20  21
HETATM   21  C   UNL     1      22.435  49.916  48.089  1.00  0.00     0.072 A 
HETATM   22  C   UNL     1      21.785  48.710  48.378  1.00  0.00     0.076 A 
HETATM   23  C   UNL     1      20.552  48.766  48.991  1.00  0.00     0.107 A 
HETATM   24  C   UNL     1      19.965  49.963  49.327  1.00  0.00     0.105 A 
HETATM   25  O   UNL     1      19.781  47.698  49.332  1.00  0.00    -0.323 OA
HETATM   26  O   UNL     1      18.754  49.799  49.921  1.00  0.00    -0.323 OA
HETATM   27  C   UNL     1      20.582  51.166  49.070  1.00  0.00     0.042 A 
HETATM   28  C   UNL     1      18.639  48.361  49.913  1.00  0.00     0.352 A 
HETATM   29  C   UNL     1      21.835  51.140  48.445  1.00  0.00     0.039 A 
ENDBRANCH  20  21
ENDBRANCH  19  20
ENDBRANCH   5  19
TORSDOF 6
ENDMDL
MODEL 2
REMARK VINA RESULT:      -9.0      0.831      1.392
REMARK  6 active torsions:
REMARK  status: ('A' for Active; 'I' for Inactive)
REMARK    1  A    between atoms: C_4  and  C_5 
REMARK    2  A    between atoms: C_5  and  N_6 
REMARK       I    between atoms: N_6  and  C_7 
REMARK    3  A    between atoms: C_7  and  C_8 
REMARK    4  A    between atoms: C_12  and  C_13 
REMARK    5  A    between atoms: C_13  and  O_14 
REMARK    6  A    between atoms: O_14  and  C_15 
ROOT
HETATM    1  C   UNL     1      26.828  46.958  49.577  1.00  0.00     0.146 A 
HETATM    2  N   UNL     1      27.869  47.530  48.938  1.00  0.00    -0.169 NA
HETATM    3  N   UNL     1      27.401  48.731  48.553  1.00  0.00    -0.279 N 
HETATM    4  H   UNL     1      28.034  49.365  48.077  1.00  0.00     0.189 HD
HETATM    5  C   UNL     1      26.085  48.935  48.861  1.00  0.00     0.054 A 
HETATM    6  C   UNL     1      25.693  47.811  49.553  1.00  0.00     0.068 A 
ENDROOT
BRANCH   1   7
HETATM    7  C   UNL     1      26.900  45.625  50.193  1.00  0.00     0.272 C 
HETATM    8  N   UNL     1      26.525  45.588  51.511  1.00  0.00    -0.350 N 
HETATM    9  H   UNL     1      26.210  46.447  51.954  1.00  0.00     0.163 HD
HETATM   10  O   UNL     1      27.273  44.629  49.576  1.00  0.00    -0.266 OA
BRANCH   8  11
HETATM   11  C   UNL     1      26.494  44.360  52.262  1.00  0.00     0.182 C 
BRANCH  11  12
HETATM   12  C   UNL     1      27.709  44.167  53.143  1.00  0.00     0.052 A 
HETATM   13  N   UNL     1      27.908  45.034  54.172  1.00  0.00    -0.257 NA
HETATM   14  C   UNL     1      28.999  44.852  54.955  1.00  0.00     0.031 A 
HETATM   15  C   UNL     1      29.211  45.826  56.075  1.00  0.00     0.070 C 
HETATM   16  C   UNL     1      29.906  43.819  54.748  1.00  0.00     0.027 A 
HETATM   17  C   UNL     1      29.688  42.935  53.698  1.00  0.00     0.004 A 
HETATM   18  C   UNL     1      28.575  43.107  52.884  1.00  0.00     0.029 A 
ENDBRANCH  11  12
ENDBRANCH   8  11
ENDBRANCH   1   7
BRANCH   5  19
HETATM   19  C   UNL     1      25.353  50.164  48.471  1.00  0.00     0.234 C 
BRANCH  19  20
HETATM   20  O   UNL     1      24.296  49.748  47.612  1.00  0.00    -0.345 OA
BRANCH  20  21
HETATM   21  C   UNL     1      23.027  49.833  48.121  1.00  0.00     0.072 A 
HETATM   22  C   UNL     1      22.361  48.607  48.237  1.00  0.00     0.076 A 
HETATM   23  C   UNL     1      21.076  48.609  48.735  1.00  0.00     0.107 A 
HETATM   24  C   UNL     1      20.452  49.771  49.122  1.00  0.00     0.105 A 
HETATM   25  O   UNL     1      20.284  47.516  48.904  1.00  0.00    -0.323 OA
HETATM   26  O   UNL     1      19.191  49.556  49.582  1.00  0.00    -0.323 OA
HETATM   27  C   UNL     1      21.082  50.992  49.034  1.00  0.00     0.042 A 
HETATM   28  C   UNL     1      19.088  48.125  49.433  1.00  0.00     0.352 A 
HETATM   29  C   UNL     1      22.387  51.021  48.529  1.00  0.00     0.039 A 
ENDBRANCH  20  21
ENDBRANCH  19  20
ENDBRANCH   5  19
TORSDOF 6
ENDMDL
MODEL 3
REMARK VINA RESULT:      -9.0      3.336     10.248
REMARK  6 active torsions:
REMARK  status: ('A' for Active; 'I' for Inactive)
REMARK    1  A    between atoms: C_4  and  C_5 
REMARK    2  A    between atoms: C_5  and  N_6 
REMARK       I    between atoms: N_6  and  C_7 
REMARK    3  A    between atoms: C_7  and  C_8 
REMARK    4  A    between atoms: C_12  and  C_13 
REMARK    5  A    between atoms: C_13  and  O_14 
REMARK    6  A    between atoms: O_14  and  C_15 
ROOT
HETATM    1  C   UNL     1      25.130  46.410  51.361  1.00  0.00     0.146 A 
HETATM    2  N   UNL     1      25.698  47.536  51.838  1.00  0.00    -0.169 NA
HETATM    3  N   UNL     1      26.406  47.122  52.904  1.00  0.00    -0.279 N 
HETATM    4  H   UNL     1      26.959  47.805  53.411  1.00  0.00     0.189 HD
HETATM    5  C   UNL     1      26.271  45.789  53.173  1.00  0.00     0.054 A 
HETATM    6  C   UNL     1      25.470  45.293  52.169  1.00  0.00     0.068 A 
ENDROOT
BRANCH   1   7
HETATM    7  C   UNL     1      24.273  46.390  50.166  1.00  0.00     0.272 C 
HETATM    8  N   UNL     1      23.582  47.552  49.943  1.00  0.00    -0.350 N 
HETATM    9  H   UNL     1      23.719  48.332  50.582  1.00  0.00     0.163 HD
HETATM   10  O   UNL     1      24.183  45.407  49.432  1.00  0.00    -0.266 OA
BRANCH   8  11
HETATM   11  C   UNL     1      22.729  47.726  48.796  1.00  0.00     0.182 C 
BRANCH  11  12
HETATM   12  C   UNL     1      21.871  48.970  48.873  1.00  0.00     0.052 A 
HETATM   13  N   UNL     1      20.660  48.886  49.489  1.00  0.00    -0.257 NA
HETATM   14  C   UNL     1      19.900  50.006  49.552  1.00  0.00     0.031 A 
HETATM   15  C   UNL     1      18.562  49.892  50.220  1.00  0.00     0.070 C 
HETATM   16  C   UNL     1      20.312  51.223  49.022  1.00  0.00     0.027 A 
HETATM   17  C   UNL     1      21.554  51.299  48.403  1.00  0.00     0.004 A 
HETATM   18  C   UNL     1      22.347  50.160  48.327  1.00  0.00     0.029 A 
ENDBRANCH  11  12
ENDBRANCH   8  11
ENDBRANCH   1   7
BRANCH   5  19
HETATM   19  C   UNL     1      26.913  45.138  54.340  1.00  0.00     0.234 C 
BRANCH  19  20
HETATM   20  O   UNL     1      27.551  46.175  55.080  1.00  0.00    -0.345 OA
BRANCH  20  21
HETATM   21  C   UNL     1      28.539  45.788  55.947  1.00  0.00     0.072 A 
HETATM   22  C   UNL     1      29.395  44.798  55.451  1.00  0.00     0.076 A 
HETATM   23  C   UNL     1      30.412  44.349  56.266  1.00  0.00     0.107 A 
HETATM   24  C   UNL     1      30.602  44.855  57.530  1.00  0.00     0.105 A 
HETATM   25  O   UNL     1      31.324  43.390  55.950  1.00  0.00    -0.323 OA
HETATM   26  O   UNL     1      31.655  44.279  58.167  1.00  0.00    -0.323 OA
HETATM   27  C   UNL     1      29.787  45.838  58.044  1.00  0.00     0.042 A 
HETATM   28  C   UNL     1      32.103  43.345  57.163  1.00  0.00     0.352 A 
HETATM   29  C   UNL     1      28.743  46.311  57.239  1.00  0.00     0.039 A 
ENDBRANCH  20  21
ENDBRANCH  19  20
ENDBRANCH   5  19
TORSDOF 6
ENDMDL
MODEL 4
REMARK VINA RESULT:      -8.9      2.876      9.747
REMARK  6 active torsions:
REMARK  status: ('A' for Active; 'I' for Inactive)
REMARK    1  A    between atoms: C_4  and  C_5 
REMARK    2  A    between atoms: C_5  and  N_6 
REMARK       I    between atoms: N_6  and  C_7 
REMARK    3  A    between atoms: C_7  and  C_8 
REMARK    4  A    between atoms: C_12  and  C_13 
REMARK    5  A    between atoms: C_13  and  O_14 
REMARK    6  A    between atoms: O_14  and  C_15 
ROOT
HETATM    1  C   UNL     1      24.438  46.635  50.337  1.00  0.00     0.146 A 
HETATM    2  N   UNL     1      24.021  45.411  49.955  1.00  0.00    -0.169 NA
HETATM    3  N   UNL     1      24.442  44.597  50.939  1.00  0.00    -0.279 N 
HETATM    4  H   UNL     1      24.205  43.611  50.884  1.00  0.00     0.189 HD
HETATM    5  C   UNL     1      25.165  45.231  51.909  1.00  0.00     0.054 A 
HETATM    6  C   UNL     1      25.154  46.563  51.561  1.00  0.00     0.068 A 
ENDROOT
BRANCH   1   7
HETATM    7  C   UNL     1      24.170  47.853  49.557  1.00  0.00     0.272 C 
HETATM    8  N   UNL     1      23.008  47.817  48.831  1.00  0.00    -0.350 N 
HETATM    9  H   UNL     1      22.417  46.992  48.895  1.00  0.00     0.163 HD
HETATM   10  O   UNL     1      24.932  48.818  49.554  1.00  0.00    -0.266 OA
BRANCH   8  11
HETATM   11  C   UNL     1      22.565  48.938  48.042  1.00  0.00     0.182 C 
BRANCH  11  12
HETATM   12  C   UNL     1      21.396  49.676  48.655  1.00  0.00     0.052 A 
HETATM   13  N   UNL     1      20.592  49.008  49.526  1.00  0.00    -0.257 NA
HETATM   14  C   UNL     1      19.547  49.678  50.069  1.00  0.00     0.031 A 
HETATM   15  C   UNL     1      18.663  48.923  51.016  1.00  0.00     0.070 C 
HETATM   16  C   UNL     1      19.276  51.010  49.775  1.00  0.00     0.027 A 
HETATM   17  C   UNL     1      20.109  51.684  48.890  1.00  0.00     0.004 A 
HETATM   18  C   UNL     1      21.184  51.012  48.322  1.00  0.00     0.029 A 
ENDBRANCH  11  12
ENDBRANCH   8  11
ENDBRANCH   1   7
BRANCH   5  19
HETATM   19  C   UNL     1      25.777  44.511  53.052  1.00  0.00     0.234 C 
BRANCH  19  20
HETATM   20  O   UNL     1      27.037  44.029  52.596  1.00  0.00    -0.345 OA
BRANCH  20  21
HETATM   21  C   UNL     1      28.065  44.057  53.501  1.00  0.00     0.072 A 
HETATM   22  C   UNL     1      27.971  45.072  54.460  1.00  0.00     0.076 A 
HETATM   23  C   UNL     1      28.971  45.172  55.404  1.00  0.00     0.107 A 
HETATM   24  C   UNL     1      30.035  44.301  55.424  1.00  0.00     0.105 A 
HETATM   25  O   UNL     1      29.042  46.099  56.396  1.00  0.00    -0.323 OA
HETATM   26  O   UNL     1      30.908  44.571  56.429  1.00  0.00    -0.323 OA
HETATM   27  C   UNL     1      30.153  43.284  54.504  1.00  0.00     0.042 A 
HETATM   28  C   UNL     1      30.277  45.718  57.036  1.00  0.00     0.352 A 
HETATM   29  C   UNL     1      29.152  43.161  53.532  1.00  0.00     0.039 A 
ENDBRANCH  20  21
ENDBRANCH  19  20
ENDBRANCH   5  19
TORSDOF 6
ENDMDL
MODEL 5
REMARK VINA RESULT:      -8.8      2.448      9.345
REMARK  6 active torsions:
REMARK  status: ('A' for Active; 'I' for Inactive)
REMARK    1  A    between atoms: C_4  and  C_5 
REMARK    2  A    between atoms: C_5  and  N_6 
REMARK       I    between atoms: N_6  and  C_7 
REMARK    3  A    between atoms: C_7  and  C_8 
REMARK    4  A    between atoms: C_12  and  C_13 
REMARK    5  A    between atoms: C_13  and  O_14 
REMARK    6  A    between atoms: O_14  and  C_15 
ROOT
HETATM    1  C   UNL     1      24.709  48.619  49.175  1.00  0.00     0.146 A 
HETATM    2  N   UNL     1      26.027  48.723  49.442  1.00  0.00    -0.169 NA
HETATM    3  N   UNL     1      26.331  47.568  50.061  1.00  0.00    -0.279 N 
HETATM    4  H   UNL     1      27.297  47.403  50.328  1.00  0.00     0.189 HD
HETATM    5  C   UNL     1      25.256  46.750  50.261  1.00  0.00     0.054 A 
HETATM    6  C   UNL     1      24.192  47.393  49.669  1.00  0.00     0.068 A 
ENDROOT
BRANCH   1   7
HETATM    7  C   UNL     1      23.950  49.663  48.471  1.00  0.00     0.272 C 
HETATM    8  N   UNL     1      22.882  50.158  49.173  1.00  0.00    -0.350 N 
HETATM    9  H   UNL     1      22.704  49.801  50.109  1.00  0.00     0.163 HD
HETATM   10  O   UNL     1      24.247  50.052  47.343  1.00  0.00    -0.266 OA
BRANCH   8  11
HETATM   11  C   UNL     1      22.051  51.214  48.657  1.00  0.00     0.182 C 
BRANCH  11  12
HETATM   12  C   UNL     1      20.607  51.108  49.095  1.00  0.00     0.052 A 
HETATM   13  N   UNL     1      20.249  50.073  49.904  1.00  0.00    -0.257 NA
HETATM   14  C   UNL     1      18.954  49.988  50.291  1.00  0.00     0.031 A 
HETATM   15  C   UNL     1      18.574  48.833  51.169  1.00  0.00     0.070 C 
HETATM   16  C   UNL     1      17.991  50.912  49.900  1.00  0.00     0.027 A 
HETATM   17  C   UNL     1      18.370  51.969  49.081  1.00  0.00     0.004 A 
HETATM   18  C   UNL     1      19.695  52.072  48.673  1.00  0.00     0.029 A 
ENDBRANCH  11  12
ENDBRANCH   8  11
ENDBRANCH   1   7
BRANCH   5  19
HETATM   19  C   UNL     1      25.356  45.458  50.982  1.00  0.00     0.234 C 
BRANCH  19  20
HETATM   20  O   UNL     1      25.480  45.775  52.364  1.00  0.00    -0.345 OA
BRANCH  20  21
HETATM   21  C   UNL     1      26.602  45.311  52.999  1.00  0.00     0.072 A 
HETATM   22  C   UNL     1      27.308  44.330  52.294  1.00  0.00     0.076 A 
HETATM   23  C   UNL     1      28.446  43.806  52.869  1.00  0.00     0.107 A 
HETATM   24  C   UNL     1      28.896  44.231  54.096  1.00  0.00     0.105 A 
HETATM   25  O   UNL     1      29.242  42.844  52.331  1.00  0.00    -0.323 OA
HETATM   26  O   UNL     1      30.030  43.590  54.485  1.00  0.00    -0.323 OA
HETATM   27  C   UNL     1      28.234  45.203  54.812  1.00  0.00     0.042 A 
HETATM   28  C   UNL     1      30.239  42.706  53.364  1.00  0.00     0.352 A 
HETATM   29  C   UNL     1      27.072  45.751  54.252  1.00  0.00     0.039 A 
ENDBRANCH  20  21
ENDBRANCH  19  20
ENDBRANCH   5  19
TORSDOF 6
ENDMDL
MODEL 6
REMARK VINA RESULT:      -8.8      3.250      9.920
REMARK  6 active torsions:
REMARK  status: ('A' for Active; 'I' for Inactive)
REMARK    1  A    between atoms: C_4  and  C_5 
REMARK    2  A    between atoms: C_5  and  N_6 
REMARK       I    between atoms: N_6  and  C_7 
REMARK    3  A    between atoms: C_7  and  C_8 
REMARK    4  A    between atoms: C_12  and  C_13 
REMARK    5  A    between atoms: C_13  and  O_14 
REMARK    6  A    between atoms: O_14  and  C_15 
ROOT
HETATM    1  C   UNL     1      24.213  44.560  50.749  1.00  0.00     0.146 A 
HETATM    2  N   UNL     1      24.329  43.260  51.089  1.00  0.00    -0.169 NA
HETATM    3  N   UNL     1      25.078  43.277  52.206  1.00  0.00    -0.279 N 
HETATM    4  H   UNL     1      25.269  42.396  52.673  1.00  0.00     0.189 HD
HETATM    5  C   UNL     1      25.503  44.524  52.567  1.00  0.00     0.054 A 
HETATM    6  C   UNL     1      24.932  45.383  51.655  1.00  0.00     0.068 A 
ENDROOT
BRANCH   1   7
HETATM    7  C   UNL     1      23.442  45.017  49.583  1.00  0.00     0.272 C 
HETATM    8  N   UNL     1      23.151  46.356  49.585  1.00  0.00    -0.350 N 
HETATM    9  H   UNL     1      23.492  46.930  50.352  1.00  0.00     0.163 HD
HETATM   10  O   UNL     1      23.086  44.256  48.685  1.00  0.00    -0.266 OA
BRANCH   8  11
HETATM   11  C   UNL     1      22.440  46.985  48.502  1.00  0.00     0.182 C 
BRANCH  11  12
HETATM   12  C   UNL     1      22.609  48.488  48.469  1.00  0.00     0.052 A 
HETATM   13  N   UNL     1      21.494  49.267  48.497  1.00  0.00    -0.257 NA
HETATM   14  C   UNL     1      21.658  50.612  48.467  1.00  0.00     0.031 A 
HETATM   15  C   UNL     1      20.418  51.456  48.484  1.00  0.00     0.070 C 
HETATM   16  C   UNL     1      22.910  51.215  48.415  1.00  0.00     0.027 A 
HETATM   17  C   UNL     1      24.042  50.409  48.394  1.00  0.00     0.004 A 
HETATM   18  C   UNL     1      23.893  49.027  48.423  1.00  0.00     0.029 A 
ENDBRANCH  11  12
ENDBRANCH   8  11
ENDBRANCH   1   7
BRANCH   5  19
HETATM   19  C   UNL     1      26.393  44.762  53.729  1.00  0.00     0.234 C 
BRANCH  19  20
HETATM   20  O   UNL     1      27.721  44.511  53.279  1.00  0.00    -0.345 OA
BRANCH  20  21
HETATM   21  C   UNL     1      28.681  44.390  54.248  1.00  0.00     0.072 A 
HETATM   22  C   UNL     1      28.583  45.322  55.287  1.00  0.00     0.076 A 
HETATM   23  C   UNL     1      29.518  45.270  56.299  1.00  0.00     0.107 A 
HETATM   24  C   UNL     1      30.520  44.329  56.310  1.00  0.00     0.105 A 
HETATM   25  O   UNL     1      29.577  46.101  57.374  1.00  0.00    -0.323 OA
HETATM   26  O   UNL     1      31.335  44.450  57.390  1.00  0.00    -0.323 OA
HETATM   27  C   UNL     1      30.638  43.390  55.310  1.00  0.00     0.042 A 
HETATM   28  C   UNL     1      30.737  45.581  58.057  1.00  0.00     0.352 A 
HETATM   29  C   UNL     1      29.704  43.421  54.268  1.00  0.00     0.039 A 
ENDBRANCH  20  21
ENDBRANCH  19  20
ENDBRANCH   5  19
TORSDOF 6
ENDMDL
MODEL 7
REMARK VINA RESULT:      -8.6      1.974      2.289
REMARK  6 active torsions:
REMARK  status: ('A' for Active; 'I' for Inactive)
REMARK    1  A    between atoms: C_4  and  C_5 
REMARK    2  A    between atoms: C_5  and  N_6 
REMARK       I    between atoms: N_6  and  C_7 
REMARK    3  A    between atoms: C_7  and  C_8 
REMARK    4  A    between atoms: C_12  and  C_13 
REMARK    5  A    between atoms: C_13  and  O_14 
REMARK    6  A    between atoms: O_14  and  C_15 
ROOT
HETATM    1  C   UNL     1      25.630  46.120  50.245  1.00  0.00     0.146 A 
HETATM    2  N   UNL     1      24.309  45.853  50.269  1.00  0.00    -0.169 NA
HETATM    3  N   UNL     1      23.738  46.970  49.785  1.00  0.00    -0.279 N 
HETATM    4  H   UNL     1      22.729  46.987  49.673  1.00  0.00     0.189 HD
HETATM    5  C   UNL     1      24.627  47.969  49.506  1.00  0.00     0.054 A 
HETATM    6  C   UNL     1      25.869  47.435  49.768  1.00  0.00     0.068 A 
ENDROOT
BRANCH   1   7
HETATM    7  C   UNL     1      26.651  45.151  50.673  1.00  0.00     0.272 C 
HETATM    8  N   UNL     1      26.732  44.974  52.030  1.00  0.00    -0.350 N 
HETATM    9  H   UNL     1      26.091  45.488  52.629  1.00  0.00     0.163 HD
HETATM   10  O   UNL     1      27.374  44.555  49.876  1.00  0.00    -0.266 OA
BRANCH   8  11
HETATM   11  C   UNL     1      27.646  44.034  52.624  1.00  0.00     0.182 C 
BRANCH  11  12
HETATM   12  C   UNL     1      28.313  44.558  53.877  1.00  0.00     0.052 A 
HETATM   13  N   UNL     1      29.361  43.861  54.394  1.00  0.00    -0.257 NA
HETATM   14  C   UNL     1      29.951  44.340  55.516  1.00  0.00     0.031 A 
HETATM   15  C   UNL     1      31.095  43.551  56.081  1.00  0.00     0.070 C 
HETATM   16  C   UNL     1      29.532  45.507  56.145  1.00  0.00     0.027 A 
HETATM   17  C   UNL     1      28.465  46.215  55.603  1.00  0.00     0.004 A 
HETATM   18  C   UNL     1      27.847  45.737  54.453  1.00  0.00     0.029 A 
ENDBRANCH  11  12
ENDBRANCH   8  11
ENDBRANCH   1   7
BRANCH   5  19
HETATM   19  C   UNL     1      24.205  49.306  49.024  1.00  0.00     0.234 C 
BRANCH  19  20
HETATM   20  O   UNL     1      23.128  49.716  49.861  1.00  0.00    -0.345 OA
BRANCH  20  21
HETATM   21  C   UNL     1      22.002  50.171  49.228  1.00  0.00     0.072 A 
HETATM   22  C   UNL     1      21.113  50.872  50.051  1.00  0.00     0.076 A 
HETATM   23  C   UNL     1      19.952  51.358  49.490  1.00  0.00     0.107 A 
HETATM   24  C   UNL     1      19.661  51.178  48.159  1.00  0.00     0.105 A 
HETATM   25  O   UNL     1      18.978  52.049  50.143  1.00  0.00    -0.323 OA
HETATM   26  O   UNL     1      18.471  51.730  47.806  1.00  0.00    -0.323 OA
HETATM   27  C   UNL     1      20.519  50.504  47.318  1.00  0.00     0.042 A 
HETATM   28  C   UNL     1      18.039  52.274  49.071  1.00  0.00     0.352 A 
HETATM   29  C   UNL     1      21.706  49.997  47.862  1.00  0.00     0.039 A 
ENDBRANCH  20  21
ENDBRANCH  19  20
ENDBRANCH   5  19
TORSDOF 6
ENDMDL
MODEL 8
REMARK VINA RESULT:      -8.5      3.188     10.266
REMARK  6 active torsions:
REMARK  status: ('A' for Active; 'I' for Inactive)
REMARK    1  A    between atoms: C_4  and  C_5 
REMARK    2  A    between atoms: C_5  and  N_6 
REMARK       I    between atoms: N_6  and  C_7 
REMARK    3  A    between atoms: C_7  and  C_8 
REMARK    4  A    between atoms: C_12  and  C_13 
REMARK    5  A    between atoms: C_13  and  O_14 
REMARK    6  A    between atoms: O_14  and  C_15 
ROOT
HETATM    1  C   UNL     1      25.759  46.915  51.440  1.00  0.00     0.146 A 
HETATM    2  N   UNL     1      25.392  47.479  52.608  1.00  0.00    -0.169 NA
HETATM    3  N   UNL     1      25.878  46.645  53.545  1.00  0.00    -0.279 N 
HETATM    4  H   UNL     1      25.753  46.891  54.522  1.00  0.00     0.189 HD
HETATM    5  C   UNL     1      26.489  45.536  53.032  1.00  0.00     0.054 A 
HETATM    6  C   UNL     1      26.453  45.697  51.665  1.00  0.00     0.068 A 
ENDROOT
BRANCH   1   7
HETATM    7  C   UNL     1      25.453  47.511  50.131  1.00  0.00     0.272 C 
HETATM    8  N   UNL     1      24.219  48.104  50.052  1.00  0.00    -0.350 N 
HETATM    9  H   UNL     1      23.627  48.112  50.879  1.00  0.00     0.163 HD
HETATM   10  O   UNL     1      26.239  47.474  49.186  1.00  0.00    -0.266 OA
BRANCH   8  11
HETATM   11  C   UNL     1      23.769  48.775  48.860  1.00  0.00     0.182 C 
BRANCH  11  12
HETATM   12  C   UNL     1      22.269  48.966  48.813  1.00  0.00     0.052 A 
HETATM   13  N   UNL     1      21.778  50.234  48.753  1.00  0.00    -0.257 NA
HETATM   14  C   UNL     1      20.434  50.394  48.711  1.00  0.00     0.031 A 
HETATM   15  C   UNL     1      19.910  51.799  48.661  1.00  0.00     0.070 C 
HETATM   16  C   UNL     1      19.550  49.321  48.720  1.00  0.00     0.027 A 
HETATM   17  C   UNL     1      20.062  48.030  48.773  1.00  0.00     0.004 A 
HETATM   18  C   UNL     1      21.439  47.847  48.818  1.00  0.00     0.029 A 
ENDBRANCH  11  12
ENDBRANCH   8  11
ENDBRANCH   1   7
BRANCH   5  19
HETATM   19  C   UNL     1      27.037  44.456  53.888  1.00  0.00     0.234 C 
BRANCH  19  20
HETATM   20  O   UNL     1      28.429  44.377  53.596  1.00  0.00    -0.345 OA
BRANCH  20  21
HETATM   21  C   UNL     1      29.273  44.271  54.670  1.00  0.00     0.072 A 
HETATM   22  C   UNL     1      29.145  45.294  55.616  1.00  0.00     0.076 A 
HETATM   23  C   UNL     1      29.965  45.263  56.724  1.00  0.00     0.107 A 
HETATM   24  C   UNL     1      30.882  44.257  56.916  1.00  0.00     0.105 A 
HETATM   25  O   UNL     1      29.981  46.177  57.731  1.00  0.00    -0.323 OA
HETATM   26  O   UNL     1      31.590  44.411  58.066  1.00  0.00    -0.323 OA
HETATM   27  C   UNL     1      31.025  43.228  56.012  1.00  0.00     0.042 A 
HETATM   28  C   UNL     1      31.020  45.635  58.573  1.00  0.00     0.352 A 
HETATM   29  C   UNL     1      30.207  43.236  54.876  1.00  0.00     0.039 A 
ENDBRANCH  20  21
ENDBRANCH  19  20
ENDBRANCH   5  19
TORSDOF 6
ENDMDL
MODEL 9
REMARK VINA RESULT:      -8.1      3.189      9.756
REMARK  6 active torsions:
REMARK  status: ('A' for Active; 'I' for Inactive)
REMARK    1  A    between atoms: C_4  and  C_5 
REMARK    2  A    between atoms: C_5  and  N_6 
REMARK       I    between atoms: N_6  and  C_7 
REMARK    3  A    between atoms: C_7  and  C_8 
REMARK    4  A    between atoms: C_12  and  C_13 
REMARK    5  A    between atoms: C_13  and  O_14 
REMARK    6  A    between atoms: O_14  and  C_15 
ROOT
HETATM    1  C   UNL     1      25.888  44.299  51.314  1.00  0.00     0.146 A 
HETATM    2  N   UNL     1      27.058  44.630  50.732  1.00  0.00    -0.169 NA
HETATM    3  N   UNL     1      27.973  43.892  51.387  1.00  0.00    -0.279 N 
HETATM    4  H   UNL     1      28.942  43.950  51.090  1.00  0.00     0.189 HD
HETATM    5  C   UNL     1      27.452  43.146  52.406  1.00  0.00     0.054 A 
HETATM    6  C   UNL     1      26.094  43.367  52.365  1.00  0.00     0.068 A 
ENDROOT
BRANCH   1   7
HETATM    7  C   UNL     1      24.596  44.858  50.890  1.00  0.00     0.272 C 
HETATM    8  N   UNL     1      24.690  45.872  49.972  1.00  0.00    -0.350 N 
HETATM    9  H   UNL     1      25.612  46.146  49.639  1.00  0.00     0.163 HD
HETATM   10  O   UNL     1      23.521  44.452  51.329  1.00  0.00    -0.266 OA
BRANCH   8  11
HETATM   11  C   UNL     1      23.526  46.509  49.414  1.00  0.00     0.182 C 
BRANCH  11  12
HETATM   12  C   UNL     1      23.787  47.920  48.937  1.00  0.00     0.052 A 
HETATM   13  N   UNL     1      25.074  48.359  48.884  1.00  0.00    -0.257 NA
HETATM   14  C   UNL     1      25.297  49.625  48.456  1.00  0.00     0.031 A 
HETATM   15  C   UNL     1      26.720  50.098  48.418  1.00  0.00     0.070 C 
HETATM   16  C   UNL     1      24.269  50.478  48.067  1.00  0.00     0.027 A 
HETATM   17  C   UNL     1      22.959  50.016  48.118  1.00  0.00     0.004 A 
HETATM   18  C   UNL     1      22.712  48.720  48.557  1.00  0.00     0.029 A 
ENDBRANCH  11  12
ENDBRANCH   8  11
ENDBRANCH   1   7
BRANCH   5  19
HETATM   19  C   UNL     1      28.293  42.310  53.297  1.00  0.00     0.234 C 
BRANCH  19  20
HETATM   20  O   UNL     1      29.536  42.992  53.436  1.00  0.00    -0.345 OA
BRANCH  20  21
HETATM   21  C   UNL     1      29.671  43.796  54.537  1.00  0.00     0.072 A 
HETATM   22  C   UNL     1      30.654  43.383  55.444  1.00  0.00     0.076 A 
HETATM   23  C   UNL     1      30.847  44.135  56.583  1.00  0.00     0.107 A 
HETATM   24  C   UNL     1      30.111  45.269  56.833  1.00  0.00     0.105 A 
HETATM   25  O   UNL     1      31.747  43.875  57.569  1.00  0.00    -0.323 OA
HETATM   26  O   UNL     1      30.454  45.863  58.006  1.00  0.00    -0.323 OA
HETATM   27  C   UNL     1      29.145  45.711  55.957  1.00  0.00     0.042 A 
HETATM   28  C   UNL     1      31.486  44.969  58.472  1.00  0.00     0.352 A 
HETATM   29  C   UNL     1      28.926  44.964  54.793  1.00  0.00     0.039 A 
ENDBRANCH  20  21
ENDBRANCH  19  20
ENDBRANCH   5  19
TORSDOF 6
ENDMDL
MODEL 10
REMARK VINA RESULT:      -8.0      2.541      3.419
REMARK  6 active torsions:
REMARK  status: ('A' for Active; 'I' for Inactive)
REMARK    1  A    between atoms: C_4  and  C_5 
REMARK    2  A    between atoms: C_5  and  N_6 
REMARK       I    between atoms: N_6  and  C_7 
REMARK    3  A    between atoms: C_7  and  C_8 
REMARK    4  A    between atoms: C_12  and  C_13 
REMARK    5  A    between atoms: C_13  and  O_14 
REMARK    6  A    between atoms: O_14  and  C_15 
ROOT
HETATM    1  C   UNL     1      24.500  43.566  50.203  1.00  0.00     0.146 A 
HETATM    2  N   UNL     1      23.248  43.455  50.691  1.00  0.00    -0.169 NA
HETATM    3  N   UNL     1      22.573  44.457  50.099  1.00  0.00    -0.279 N 
HETATM    4  H   UNL     1      21.580  44.549  50.290  1.00  0.00     0.189 HD
HETATM    5  C   UNL     1      23.348  45.247  49.299  1.00  0.00     0.054 A 
HETATM    6  C   UNL     1      24.600  44.676  49.323  1.00  0.00     0.068 A 
ENDROOT
BRANCH   1   7
HETATM    7  C   UNL     1      25.586  42.645  50.568  1.00  0.00     0.272 C 
HETATM    8  N   UNL     1      26.741  43.262  50.976  1.00  0.00    -0.350 N 
HETATM    9  H   UNL     1      26.763  44.278  51.020  1.00  0.00     0.163 HD
HETATM   10  O   UNL     1      25.467  41.423  50.506  1.00  0.00    -0.266 OA
BRANCH   8  11
HETATM   11  C   UNL     1      27.893  42.516  51.410  1.00  0.00     0.182 C 
BRANCH  11  12
HETATM   12  C   UNL     1      28.551  43.096  52.643  1.00  0.00     0.052 A 
HETATM   13  N   UNL     1      27.945  44.141  53.270  1.00  0.00    -0.257 NA
HETATM   14  C   UNL     1      28.542  44.652  54.373  1.00  0.00     0.031 A 
HETATM   15  C   UNL     1      27.869  45.813  55.044  1.00  0.00     0.070 C 
HETATM   16  C   UNL     1      29.734  44.149  54.883  1.00  0.00     0.027 A 
HETATM   17  C   UNL     1      30.339  43.077  54.239  1.00  0.00     0.004 A 
HETATM   18  C   UNL     1      29.742  42.540  53.105  1.00  0.00     0.029 A 
ENDBRANCH  11  12
ENDBRANCH   8  11
ENDBRANCH   1   7
BRANCH   5  19
HETATM   19  C   UNL     1      22.819  46.445  48.603  1.00  0.00     0.234 C 
BRANCH  19  20
HETATM   20  O   UNL     1      23.283  47.575  49.334  1.00  0.00    -0.345 OA
BRANCH  20  21
HETATM   21  C   UNL     1      22.633  48.759  49.107  1.00  0.00     0.072 A 
HETATM   22  C   UNL     1      21.237  48.661  49.075  1.00  0.00     0.076 A 
HETATM   23  C   UNL     1      20.509  49.809  48.844  1.00  0.00     0.107 A 
HETATM   24  C   UNL     1      21.119  51.027  48.659  1.00  0.00     0.105 A 
HETATM   25  O   UNL     1      19.153  49.893  48.771  1.00  0.00    -0.323 OA
HETATM   26  O   UNL     1      20.226  52.028  48.445  1.00  0.00    -0.323 OA
HETATM   27  C   UNL     1      22.488  51.161  48.696  1.00  0.00     0.042 A 
HETATM   28  C   UNL     1      18.982  51.301  48.509  1.00  0.00     0.352 A 
HETATM   29  C   UNL     1      23.253  50.011  48.926  1.00  0.00     0.039 A 
ENDBRANCH  20  21
ENDBRANCH  19  20
ENDBRANCH   5  19
TORSDOF 6
ENDMDL
