MODEL 1
REMARK VINA RESULT:      -8.7      0.000      0.000
REMARK  6 active torsions:
REMARK  status: ('A' for Active; 'I' for Inactive)
REMARK    1  A    between atoms: O_2  and  C_3 
REMARK    2  A    between atoms: C_4  and  C_5 
REMARK    3  A    between atoms: C_5  and  N_6 
REMARK    4  A    between atoms: N_6  and  C_7 
REMARK    5  A    between atoms: C_9  and  N_10 
REMARK    6  A    between atoms: N_10  and  C_11 
ROOT
HETATM    1  C   UNL     1      27.474  42.723  53.135  1.00  0.00     0.135 A 
HETATM    2  N   UNL     1      27.707  41.489  52.655  1.00  0.00    -0.052 NA
HETATM    3  C   UNL     1      27.116  41.130  51.502  1.00  0.00     0.702 A 
HETATM    4  N   UNL     1      26.301  41.950  50.843  1.00  0.00    -0.189 N 
HETATM    5  H   UNL     1      25.916  41.622  49.969  1.00  0.00     0.184 HD
HETATM    6  C   UNL     1      26.039  43.187  51.279  1.00  0.00     0.062 A 
HETATM    7  C   UNL     1      26.644  43.643  52.465  1.00  0.00     0.032 A 
HETATM    8  C   UNL     1      25.189  44.021  50.533  1.00  0.00     0.031 A 
HETATM    9  C   UNL     1      24.941  45.326  50.951  1.00  0.00     0.002 A 
HETATM   10  C   UNL     1      25.553  45.811  52.102  1.00  0.00     0.001 A 
HETATM   11  C   UNL     1      26.402  44.987  52.845  1.00  0.00     0.017 A 
ENDROOT
BRANCH   1  12
HETATM   12  N   UNL     1      28.201  43.021  54.277  1.00  0.00    -0.272 NA
HETATM   13  H   UNL     1      27.692  43.756  54.770  1.00  0.00     0.129 HD
BRANCH  12  14
HETATM   14  C   UNL     1      29.605  43.428  54.134  1.00  0.00     0.135 C 
BRANCH  14  15
HETATM   15  C   UNL     1      30.183  43.924  55.447  1.00  0.00    -0.012 A 
HETATM   16  C   UNL     1      29.792  45.186  55.942  1.00  0.00     0.075 A 
HETATM   17  C   UNL     1      30.324  45.656  57.148  1.00  0.00     0.037 A 
HETATM   18  C   UNL     1      31.228  44.881  57.876  1.00  0.00     0.003 A 
HETATM   19  C   UNL     1      31.607  43.628  57.406  1.00  0.00     0.001 A 
HETATM   20  C   UNL     1      31.085  43.153  56.204  1.00  0.00     0.011 A 
BRANCH  16  21
HETATM   21  O   UNL     1      28.898  45.878  55.164  1.00  0.00    -0.355 OA
HETATM   22  C   UNL     1      27.985  46.739  55.840  1.00  0.00     0.210 C 
ENDBRANCH  16  21
ENDBRANCH  14  15
ENDBRANCH  12  14
ENDBRANCH   1  12
BRANCH   3  23
HETATM   23  N   UNL     1      27.370  39.905  50.925  1.00  0.00    -0.220 N 
HETATM   24  H   UNL     1      27.029  39.054  51.346  1.00  0.00     0.178 HD
BRANCH  23  25
HETATM   25  C   UNL     1      28.558  39.740  50.093  1.00  0.00     0.099 C 
HETATM   26  C   UNL     1      29.370  38.527  50.551  1.00  0.00     0.026 C 
HETATM   27  C   UNL     1      30.062  38.067  49.281  1.00  0.00     0.002 C 
HETATM   28  C   UNL     1      28.977  38.204  48.224  1.00  0.00     0.002 C 
HETATM   29  C   UNL     1      28.160  39.426  48.643  1.00  0.00     0.026 C 
ENDBRANCH  23  25
ENDBRANCH   3  23
TORSDOF 6
ENDMDL
MODEL 2
REMARK VINA RESULT:      -8.5      3.101      7.108
REMARK  6 active torsions:
REMARK  status: ('A' for Active; 'I' for Inactive)
REMARK    1  A    between atoms: O_2  and  C_3 
REMARK    2  A    between atoms: C_4  and  C_5 
REMARK    3  A    between atoms: C_5  and  N_6 
REMARK    4  A    between atoms: N_6  and  C_7 
REMARK    5  A    between atoms: C_9  and  N_10 
REMARK    6  A    between atoms: N_10  and  C_11 
ROOT
HETATM    1  C   UNL     1      26.278  44.237  50.868  1.00  0.00     0.135 A 
HETATM    2  N   UNL     1      26.741  44.441  52.114  1.00  0.00    -0.052 NA
HETATM    3  C   UNL     1      27.052  43.370  52.863  1.00  0.00     0.702 A 
HETATM    4  N   UNL     1      26.897  42.126  52.414  1.00  0.00    -0.189 N 
HETATM    5  H   UNL     1      27.178  41.372  53.022  1.00  0.00     0.184 HD
HETATM    6  C   UNL     1      26.440  41.872  51.182  1.00  0.00     0.062 A 
HETATM    7  C   UNL     1      26.120  42.945  50.330  1.00  0.00     0.032 A 
HETATM    8  C   UNL     1      26.316  40.542  50.749  1.00  0.00     0.031 A 
HETATM    9  C   UNL     1      25.885  40.261  49.455  1.00  0.00     0.002 A 
HETATM   10  C   UNL     1      25.593  41.305  48.583  1.00  0.00     0.001 A 
HETATM   11  C   UNL     1      25.719  42.629  49.008  1.00  0.00     0.017 A 
ENDROOT
BRANCH   1  12
HETATM   12  N   UNL     1      26.073  45.407  50.153  1.00  0.00    -0.272 NA
HETATM   13  H   UNL     1      26.791  45.442  49.429  1.00  0.00     0.129 HD
BRANCH  12  14
HETATM   14  C   UNL     1      26.066  46.685  50.878  1.00  0.00     0.135 C 
BRANCH  14  15
HETATM   15  C   UNL     1      26.091  47.870  49.930  1.00  0.00    -0.012 A 
HETATM   16  C   UNL     1      24.881  48.333  49.371  1.00  0.00     0.075 A 
HETATM   17  C   UNL     1      24.892  49.420  48.489  1.00  0.00     0.037 A 
HETATM   18  C   UNL     1      26.090  50.062  48.169  1.00  0.00     0.003 A 
HETATM   19  C   UNL     1      27.285  49.625  48.728  1.00  0.00     0.001 A 
HETATM   20  C   UNL     1      27.285  48.540  49.604  1.00  0.00     0.011 A 
BRANCH  16  21
HETATM   21  O   UNL     1      23.753  47.645  49.743  1.00  0.00    -0.355 OA
HETATM   22  C   UNL     1      22.551  47.946  49.039  1.00  0.00     0.210 C 
ENDBRANCH  16  21
ENDBRANCH  14  15
ENDBRANCH  12  14
ENDBRANCH   1  12
BRANCH   3  23
HETATM   23  N   UNL     1      27.597  43.516  54.120  1.00  0.00    -0.220 N 
HETATM   24  H   UNL     1      27.005  43.570  54.937  1.00  0.00     0.178 HD
BRANCH  23  25
HETATM   25  C   UNL     1      28.897  44.161  54.266  1.00  0.00     0.099 C 
HETATM   26  C   UNL     1      28.909  45.075  55.492  1.00  0.00     0.026 C 
HETATM   27  C   UNL     1      30.366  45.073  55.919  1.00  0.00     0.002 C 
HETATM   28  C   UNL     1      30.774  43.617  55.753  1.00  0.00     0.002 C 
HETATM   29  C   UNL     1      29.989  43.115  54.541  1.00  0.00     0.026 C 
ENDBRANCH  23  25
ENDBRANCH   3  23
TORSDOF 6
ENDMDL
MODEL 3
REMARK VINA RESULT:      -8.5      1.927      5.662
REMARK  6 active torsions:
REMARK  status: ('A' for Active; 'I' for Inactive)
REMARK    1  A    between atoms: O_2  and  C_3 
REMARK    2  A    between atoms: C_4  and  C_5 
REMARK    3  A    between atoms: C_5  and  N_6 
REMARK    4  A    between atoms: N_6  and  C_7 
REMARK    5  A    between atoms: C_9  and  N_10 
REMARK    6  A    between atoms: N_10  and  C_11 
ROOT
HETATM    1  C   UNL     1      27.340  44.245  54.272  1.00  0.00     0.135 A 
HETATM    2  N   UNL     1      26.975  43.174  53.546  1.00  0.00    -0.052 NA
HETATM    3  C   UNL     1      27.844  42.156  53.427  1.00  0.00     0.702 A 
HETATM    4  N   UNL     1      29.051  42.190  53.989  1.00  0.00    -0.189 N 
HETATM    5  H   UNL     1      29.639  41.377  53.881  1.00  0.00     0.184 HD
HETATM    6  C   UNL     1      29.459  43.232  54.722  1.00  0.00     0.062 A 
HETATM    7  C   UNL     1      28.592  44.323  54.914  1.00  0.00     0.032 A 
HETATM    8  C   UNL     1      30.734  43.208  55.313  1.00  0.00     0.031 A 
HETATM    9  C   UNL     1      31.157  44.265  56.115  1.00  0.00     0.002 A 
HETATM   10  C   UNL     1      30.305  45.340  56.346  1.00  0.00     0.001 A 
HETATM   11  C   UNL     1      29.036  45.367  55.764  1.00  0.00     0.017 A 
ENDROOT
BRANCH   1  12
HETATM   12  N   UNL     1      26.339  45.194  54.403  1.00  0.00    -0.272 NA
HETATM   13  H   UNL     1      26.061  45.200  55.385  1.00  0.00     0.129 HD
BRANCH  12  14
HETATM   14  C   UNL     1      25.136  45.070  53.569  1.00  0.00     0.135 C 
BRANCH  14  15
HETATM   15  C   UNL     1      25.303  45.772  52.233  1.00  0.00    -0.012 A 
HETATM   16  C   UNL     1      24.670  45.239  51.090  1.00  0.00     0.075 A 
HETATM   17  C   UNL     1      24.823  45.874  49.851  1.00  0.00     0.037 A 
HETATM   18  C   UNL     1      25.584  47.038  49.740  1.00  0.00     0.003 A 
HETATM   19  C   UNL     1      26.197  47.581  50.863  1.00  0.00     0.001 A 
HETATM   20  C   UNL     1      26.054  46.954  52.100  1.00  0.00     0.011 A 
BRANCH  16  21
HETATM   21  O   UNL     1      23.940  44.095  51.292  1.00  0.00    -0.355 OA
HETATM   22  C   UNL     1      23.042  43.710  50.256  1.00  0.00     0.210 C 
ENDBRANCH  16  21
ENDBRANCH  14  15
ENDBRANCH  12  14
ENDBRANCH   1  12
BRANCH   3  23
HETATM   23  N   UNL     1      27.502  41.003  52.754  1.00  0.00    -0.220 N 
HETATM   24  H   UNL     1      27.582  40.101  53.199  1.00  0.00     0.178 HD
BRANCH  23  25
HETATM   25  C   UNL     1      27.588  40.974  51.297  1.00  0.00     0.099 C 
HETATM   26  C   UNL     1      28.611  39.934  50.840  1.00  0.00     0.026 C 
HETATM   27  C   UNL     1      28.097  39.510  49.476  1.00  0.00     0.002 C 
HETATM   28  C   UNL     1      26.595  39.409  49.687  1.00  0.00     0.002 C 
HETATM   29  C   UNL     1      26.254  40.512  50.689  1.00  0.00     0.026 C 
ENDBRANCH  23  25
ENDBRANCH   3  23
TORSDOF 6
ENDMDL
MODEL 4
REMARK VINA RESULT:      -8.4      3.447      6.535
REMARK  6 active torsions:
REMARK  status: ('A' for Active; 'I' for Inactive)
REMARK    1  A    between atoms: O_2  and  C_3 
REMARK    2  A    between atoms: C_4  and  C_5 
REMARK    3  A    between atoms: C_5  and  N_6 
REMARK    4  A    between atoms: N_6  and  C_7 
REMARK    5  A    between atoms: C_9  and  N_10 
REMARK    6  A    between atoms: N_10  and  C_11 
ROOT
HETATM    1  C   UNL     1      25.792  45.993  52.415  1.00  0.00     0.135 A 
HETATM    2  N   UNL     1      25.528  44.794  51.865  1.00  0.00    -0.052 NA
HETATM    3  C   UNL     1      26.148  43.712  52.366  1.00  0.00     0.702 A 
HETATM    4  N   UNL     1      27.019  43.799  53.368  1.00  0.00    -0.189 N 
HETATM    5  H   UNL     1      27.424  42.940  53.711  1.00  0.00     0.184 HD
HETATM    6  C   UNL     1      27.313  44.968  53.949  1.00  0.00     0.062 A 
HETATM    7  C   UNL     1      26.682  46.141  53.497  1.00  0.00     0.032 A 
HETATM    8  C   UNL     1      28.223  45.001  55.019  1.00  0.00     0.031 A 
HETATM    9  C   UNL     1      28.506  46.204  55.664  1.00  0.00     0.002 A 
HETATM   10  C   UNL     1      27.870  47.372  55.256  1.00  0.00     0.001 A 
HETATM   11  C   UNL     1      26.963  47.342  54.195  1.00  0.00     0.017 A 
ENDROOT
BRANCH   1  12
HETATM   12  N   UNL     1      25.035  47.026  51.884  1.00  0.00    -0.272 NA
HETATM   13  H   UNL     1      24.176  47.077  52.433  1.00  0.00     0.129 HD
BRANCH  12  14
HETATM   14  C   UNL     1      24.686  46.983  50.458  1.00  0.00     0.135 C 
BRANCH  14  15
HETATM   15  C   UNL     1      25.398  48.069  49.672  1.00  0.00    -0.012 A 
HETATM   16  C   UNL     1      24.641  48.959  48.881  1.00  0.00     0.075 A 
HETATM   17  C   UNL     1      25.288  49.960  48.147  1.00  0.00     0.037 A 
HETATM   18  C   UNL     1      26.675  50.097  48.202  1.00  0.00     0.003 A 
HETATM   19  C   UNL     1      27.430  49.236  48.992  1.00  0.00     0.001 A 
HETATM   20  C   UNL     1      26.795  48.233  49.723  1.00  0.00     0.011 A 
BRANCH  16  21
HETATM   21  O   UNL     1      23.284  48.755  48.889  1.00  0.00    -0.355 OA
HETATM   22  C   UNL     1      22.471  49.789  48.343  1.00  0.00     0.210 C 
ENDBRANCH  16  21
ENDBRANCH  14  15
ENDBRANCH  12  14
ENDBRANCH   1  12
BRANCH   3  23
HETATM   23  N   UNL     1      25.868  42.449  51.891  1.00  0.00    -0.220 N 
HETATM   24  H   UNL     1      25.470  41.746  52.495  1.00  0.00     0.178 HD
BRANCH  23  25
HETATM   25  C   UNL     1      26.633  41.923  50.765  1.00  0.00     0.099 C 
HETATM   26  C   UNL     1      27.771  41.029  51.259  1.00  0.00     0.026 C 
HETATM   27  C   UNL     1      27.972  40.050  50.117  1.00  0.00     0.002 C 
HETATM   28  C   UNL     1      26.551  39.717  49.692  1.00  0.00     0.002 C 
HETATM   29  C   UNL     1      25.755  41.005  49.900  1.00  0.00     0.026 C 
ENDBRANCH  23  25
ENDBRANCH   3  23
TORSDOF 6
ENDMDL
MODEL 5
REMARK VINA RESULT:      -8.4      3.383      6.947
REMARK  6 active torsions:
REMARK  status: ('A' for Active; 'I' for Inactive)
REMARK    1  A    between atoms: O_2  and  C_3 
REMARK    2  A    between atoms: C_4  and  C_5 
REMARK    3  A    between atoms: C_5  and  N_6 
REMARK    4  A    between atoms: N_6  and  C_7 
REMARK    5  A    between atoms: C_9  and  N_10 
REMARK    6  A    between atoms: N_10  and  C_11 
ROOT
HETATM    1  C   UNL     1      25.655  46.125  52.063  1.00  0.00     0.135 A 
HETATM    2  N   UNL     1      25.379  44.918  51.539  1.00  0.00    -0.052 NA
HETATM    3  C   UNL     1      25.915  43.831  52.119  1.00  0.00     0.702 A 
HETATM    4  N   UNL     1      26.719  43.921  53.177  1.00  0.00    -0.189 N 
HETATM    5  H   UNL     1      27.062  43.060  53.577  1.00  0.00     0.184 HD
HETATM    6  C   UNL     1      27.022  45.098  53.735  1.00  0.00     0.062 A 
HETATM    7  C   UNL     1      26.475  46.278  53.199  1.00  0.00     0.032 A 
HETATM    8  C   UNL     1      27.857  45.136  54.864  1.00  0.00     0.031 A 
HETATM    9  C   UNL     1      28.147  46.349  55.484  1.00  0.00     0.002 A 
HETATM   10  C   UNL     1      27.592  47.525  54.992  1.00  0.00     0.001 A 
HETATM   11  C   UNL     1      26.758  47.492  53.872  1.00  0.00     0.017 A 
ENDROOT
BRANCH   1  12
HETATM   12  N   UNL     1      24.981  47.166  51.445  1.00  0.00    -0.272 NA
HETATM   13  H   UNL     1      24.295  47.515  52.114  1.00  0.00     0.129 HD
BRANCH  12  14
HETATM   14  C   UNL     1      24.309  46.909  50.164  1.00  0.00     0.135 C 
BRANCH  14  15
HETATM   15  C   UNL     1      24.124  48.184  49.360  1.00  0.00    -0.012 A 
HETATM   16  C   UNL     1      25.260  48.927  48.974  1.00  0.00     0.075 A 
HETATM   17  C   UNL     1      25.102  50.108  48.239  1.00  0.00     0.037 A 
HETATM   18  C   UNL     1      23.830  50.550  47.870  1.00  0.00     0.003 A 
HETATM   19  C   UNL     1      22.706  49.815  48.230  1.00  0.00     0.001 A 
HETATM   20  C   UNL     1      22.853  48.640  48.966  1.00  0.00     0.011 A 
BRANCH  16  21
HETATM   21  O   UNL     1      26.469  48.418  49.377  1.00  0.00    -0.355 OA
HETATM   22  C   UNL     1      27.631  49.173  49.044  1.00  0.00     0.210 C 
ENDBRANCH  16  21
ENDBRANCH  14  15
ENDBRANCH  12  14
ENDBRANCH   1  12
BRANCH   3  23
HETATM   23  N   UNL     1      25.614  42.563  51.670  1.00  0.00    -0.220 N 
HETATM   24  H   UNL     1      24.871  42.028  52.094  1.00  0.00     0.178 HD
BRANCH  23  25
HETATM   25  C   UNL     1      26.657  41.763  51.036  1.00  0.00     0.099 C 
HETATM   26  C   UNL     1      26.107  40.400  50.615  1.00  0.00     0.026 C 
HETATM   27  C   UNL     1      26.968  40.025  49.423  1.00  0.00     0.002 C 
HETATM   28  C   UNL     1      27.091  41.333  48.658  1.00  0.00     0.002 C 
HETATM   29  C   UNL     1      27.121  42.424  49.728  1.00  0.00     0.026 C 
ENDBRANCH  23  25
ENDBRANCH   3  23
TORSDOF 6
ENDMDL
MODEL 6
REMARK VINA RESULT:      -8.3      1.986      7.034
REMARK  6 active torsions:
REMARK  status: ('A' for Active; 'I' for Inactive)
REMARK    1  A    between atoms: O_2  and  C_3 
REMARK    2  A    between atoms: C_4  and  C_5 
REMARK    3  A    between atoms: C_5  and  N_6 
REMARK    4  A    between atoms: N_6  and  C_7 
REMARK    5  A    between atoms: C_9  and  N_10 
REMARK    6  A    between atoms: N_10  and  C_11 
ROOT
HETATM    1  C   UNL     1      28.794  43.197  53.195  1.00  0.00     0.135 A 
HETATM    2  N   UNL     1      27.681  43.760  52.694  1.00  0.00    -0.052 NA
HETATM    3  C   UNL     1      27.177  44.842  53.312  1.00  0.00     0.702 A 
HETATM    4  N   UNL     1      27.737  45.353  54.406  1.00  0.00    -0.189 N 
HETATM    5  H   UNL     1      27.320  46.184  54.799  1.00  0.00     0.184 HD
HETATM    6  C   UNL     1      28.847  44.830  54.941  1.00  0.00     0.062 A 
HETATM    7  C   UNL     1      29.446  43.713  54.333  1.00  0.00     0.032 A 
HETATM    8  C   UNL     1      29.410  45.421  56.084  1.00  0.00     0.031 A 
HETATM    9  C   UNL     1      30.589  44.916  56.629  1.00  0.00     0.002 A 
HETATM   10  C   UNL     1      31.218  43.832  56.026  1.00  0.00     0.001 A 
HETATM   11  C   UNL     1      30.663  43.243  54.888  1.00  0.00     0.017 A 
ENDROOT
BRANCH   1  12
HETATM   12  N   UNL     1      29.277  42.145  52.433  1.00  0.00    -0.272 NA
HETATM   13  H   UNL     1      29.236  42.442  51.457  1.00  0.00     0.129 HD
BRANCH  12  14
HETATM   14  C   UNL     1      28.633  40.830  52.558  1.00  0.00     0.135 C 
BRANCH  14  15
HETATM   15  C   UNL     1      28.732  40.031  51.270  1.00  0.00    -0.012 A 
HETATM   16  C   UNL     1      27.990  40.443  50.143  1.00  0.00     0.075 A 
HETATM   17  C   UNL     1      28.068  39.710  48.953  1.00  0.00     0.037 A 
HETATM   18  C   UNL     1      28.887  38.583  48.866  1.00  0.00     0.003 A 
HETATM   19  C   UNL     1      29.636  38.179  49.965  1.00  0.00     0.001 A 
HETATM   20  C   UNL     1      29.562  38.900  51.156  1.00  0.00     0.011 A 
BRANCH  16  21
HETATM   21  O   UNL     1      27.216  41.562  50.317  1.00  0.00    -0.355 OA
HETATM   22  C   UNL     1      26.937  42.342  49.158  1.00  0.00     0.210 C 
ENDBRANCH  16  21
ENDBRANCH  14  15
ENDBRANCH  12  14
ENDBRANCH   1  12
BRANCH   3  23
HETATM   23  N   UNL     1      26.079  45.503  52.806  1.00  0.00    -0.220 N 
HETATM   24  H   UNL     1      25.203  45.509  53.307  1.00  0.00     0.178 HD
BRANCH  23  25
HETATM   25  C   UNL     1      25.958  45.687  51.363  1.00  0.00     0.099 C 
HETATM   26  C   UNL     1      24.600  45.184  50.870  1.00  0.00     0.026 C 
HETATM   27  C   UNL     1      24.330  46.042  49.647  1.00  0.00     0.002 C 
HETATM   28  C   UNL     1      24.785  47.424  50.085  1.00  0.00     0.002 C 
HETATM   29  C   UNL     1      25.979  47.182  51.008  1.00  0.00     0.026 C 
ENDBRANCH  23  25
ENDBRANCH   3  23
TORSDOF 6
ENDMDL
MODEL 7
REMARK VINA RESULT:      -8.3      5.469      9.282
REMARK  6 active torsions:
REMARK  status: ('A' for Active; 'I' for Inactive)
REMARK    1  A    between atoms: O_2  and  C_3 
REMARK    2  A    between atoms: C_4  and  C_5 
REMARK    3  A    between atoms: C_5  and  N_6 
REMARK    4  A    between atoms: N_6  and  C_7 
REMARK    5  A    between atoms: C_9  and  N_10 
REMARK    6  A    between atoms: N_10  and  C_11 
ROOT
HETATM    1  C   UNL     1      24.122  47.559  49.783  1.00  0.00     0.135 A 
HETATM    2  N   UNL     1      22.909  47.886  49.304  1.00  0.00    -0.052 NA
HETATM    3  C   UNL     1      22.810  48.945  48.482  1.00  0.00     0.702 A 
HETATM    4  N   UNL     1      23.869  49.680  48.149  1.00  0.00    -0.189 N 
HETATM    5  H   UNL     1      23.724  50.443  47.505  1.00  0.00     0.184 HD
HETATM    6  C   UNL     1      25.097  49.394  48.599  1.00  0.00     0.062 A 
HETATM    7  C   UNL     1      25.282  48.283  49.441  1.00  0.00     0.032 A 
HETATM    8  C   UNL     1      26.184  50.189  48.199  1.00  0.00     0.031 A 
HETATM    9  C   UNL     1      27.475  49.878  48.622  1.00  0.00     0.002 A 
HETATM   10  C   UNL     1      27.687  48.765  49.429  1.00  0.00     0.001 A 
HETATM   11  C   UNL     1      26.610  47.971  49.826  1.00  0.00     0.017 A 
ENDROOT
BRANCH   1  12
HETATM   12  N   UNL     1      24.124  46.402  50.546  1.00  0.00    -0.272 NA
HETATM   13  H   UNL     1      24.436  46.664  51.481  1.00  0.00     0.129 HD
BRANCH  12  14
HETATM   14  C   UNL     1      24.917  45.255  50.085  1.00  0.00     0.135 C 
BRANCH  14  15
HETATM   15  C   UNL     1      25.962  44.846  51.107  1.00  0.00    -0.012 A 
HETATM   16  C   UNL     1      27.024  44.005  50.712  1.00  0.00     0.075 A 
HETATM   17  C   UNL     1      27.989  43.616  51.648  1.00  0.00     0.037 A 
HETATM   18  C   UNL     1      27.921  44.066  52.967  1.00  0.00     0.003 A 
HETATM   19  C   UNL     1      26.889  44.910  53.363  1.00  0.00     0.001 A 
HETATM   20  C   UNL     1      25.920  45.299  52.439  1.00  0.00     0.011 A 
BRANCH  16  21
HETATM   21  O   UNL     1      27.014  43.614  49.397  1.00  0.00    -0.355 OA
HETATM   22  C   UNL     1      26.925  42.215  49.139  1.00  0.00     0.210 C 
ENDBRANCH  16  21
ENDBRANCH  14  15
ENDBRANCH  12  14
ENDBRANCH   1  12
BRANCH   3  23
HETATM   23  N   UNL     1      21.607  49.288  47.905  1.00  0.00    -0.220 N 
HETATM   24  H   UNL     1      21.260  48.790  47.099  1.00  0.00     0.178 HD
BRANCH  23  25
HETATM   25  C   UNL     1      21.116  50.656  48.034  1.00  0.00     0.099 C 
HETATM   26  C   UNL     1      19.734  50.794  47.394  1.00  0.00     0.026 C 
HETATM   27  C   UNL     1      19.089  51.917  48.187  1.00  0.00     0.002 C 
HETATM   28  C   UNL     1      19.503  51.613  49.618  1.00  0.00     0.002 C 
HETATM   29  C   UNL     1      20.905  51.015  49.514  1.00  0.00     0.026 C 
ENDBRANCH  23  25
ENDBRANCH   3  23
TORSDOF 6
ENDMDL
MODEL 8
REMARK VINA RESULT:      -8.3      1.700      5.212
REMARK  6 active torsions:
REMARK  status: ('A' for Active; 'I' for Inactive)
REMARK    1  A    between atoms: O_2  and  C_3 
REMARK    2  A    between atoms: C_4  and  C_5 
REMARK    3  A    between atoms: C_5  and  N_6 
REMARK    4  A    between atoms: N_6  and  C_7 
REMARK    5  A    between atoms: C_9  and  N_10 
REMARK    6  A    between atoms: N_10  and  C_11 
ROOT
HETATM    1  C   UNL     1      27.181  42.446  51.489  1.00  0.00     0.135 A 
HETATM    2  N   UNL     1      26.507  43.509  51.016  1.00  0.00    -0.052 NA
HETATM    3  C   UNL     1      26.320  43.609  49.689  1.00  0.00     0.702 A 
HETATM    4  N   UNL     1      26.797  42.701  48.840  1.00  0.00    -0.189 N 
HETATM    5  H   UNL     1      26.593  42.826  47.859  1.00  0.00     0.184 HD
HETATM    6  C   UNL     1      27.473  41.625  49.262  1.00  0.00     0.062 A 
HETATM    7  C   UNL     1      27.683  41.440  50.640  1.00  0.00     0.032 A 
HETATM    8  C   UNL     1      27.935  40.686  48.326  1.00  0.00     0.031 A 
HETATM    9  C   UNL     1      28.601  39.539  48.751  1.00  0.00     0.002 A 
HETATM   10  C   UNL     1      28.793  39.317  50.111  1.00  0.00     0.001 A 
HETATM   11  C   UNL     1      28.332  40.247  51.045  1.00  0.00     0.017 A 
ENDROOT
BRANCH   1  12
HETATM   12  N   UNL     1      27.240  42.396  52.873  1.00  0.00    -0.272 NA
HETATM   13  H   UNL     1      26.478  41.791  53.181  1.00  0.00     0.129 HD
BRANCH  12  14
HETATM   14  C   UNL     1      27.180  43.656  53.627  1.00  0.00     0.135 C 
BRANCH  14  15
HETATM   15  C   UNL     1      28.451  43.895  54.423  1.00  0.00    -0.012 A 
HETATM   16  C   UNL     1      28.569  45.066  55.201  1.00  0.00     0.075 A 
HETATM   17  C   UNL     1      29.739  45.300  55.934  1.00  0.00     0.037 A 
HETATM   18  C   UNL     1      30.785  44.377  55.913  1.00  0.00     0.003 A 
HETATM   19  C   UNL     1      30.673  43.212  55.163  1.00  0.00     0.001 A 
HETATM   20  C   UNL     1      29.513  42.972  54.428  1.00  0.00     0.011 A 
BRANCH  16  21
HETATM   21  O   UNL     1      27.491  45.915  55.165  1.00  0.00    -0.355 OA
HETATM   22  C   UNL     1      27.750  47.274  54.824  1.00  0.00     0.210 C 
ENDBRANCH  16  21
ENDBRANCH  14  15
ENDBRANCH  12  14
ENDBRANCH   1  12
BRANCH   3  23
HETATM   23  N   UNL     1      25.579  44.637  49.150  1.00  0.00    -0.220 N 
HETATM   24  H   UNL     1      25.535  44.776  48.152  1.00  0.00     0.178 HD
BRANCH  23  25
HETATM   25  C   UNL     1      25.343  45.840  49.943  1.00  0.00     0.099 C 
HETATM   26  C   UNL     1      26.421  46.888  49.663  1.00  0.00     0.026 C 
HETATM   27  C   UNL     1      25.709  48.203  49.923  1.00  0.00     0.002 C 
HETATM   28  C   UNL     1      24.339  47.986  49.299  1.00  0.00     0.002 C 
HETATM   29  C   UNL     1      24.023  46.508  49.528  1.00  0.00     0.026 C 
ENDBRANCH  23  25
ENDBRANCH   3  23
TORSDOF 6
ENDMDL
MODEL 9
REMARK VINA RESULT:      -8.2      2.200      5.881
REMARK  6 active torsions:
REMARK  status: ('A' for Active; 'I' for Inactive)
REMARK    1  A    between atoms: O_2  and  C_3 
REMARK    2  A    between atoms: C_4  and  C_5 
REMARK    3  A    between atoms: C_5  and  N_6 
REMARK    4  A    between atoms: N_6  and  C_7 
REMARK    5  A    between atoms: C_9  and  N_10 
REMARK    6  A    between atoms: N_10  and  C_11 
ROOT
HETATM    1  C   UNL     1      27.243  44.171  53.883  1.00  0.00     0.135 A 
HETATM    2  N   UNL     1      26.946  43.046  53.210  1.00  0.00    -0.052 NA
HETATM    3  C   UNL     1      27.830  42.034  53.233  1.00  0.00     0.702 A 
HETATM    4  N   UNL     1      28.987  42.124  53.884  1.00  0.00    -0.189 N 
HETATM    5  H   UNL     1      29.589  41.314  53.881  1.00  0.00     0.184 HD
HETATM    6  C   UNL     1      29.328  43.222  54.570  1.00  0.00     0.062 A 
HETATM    7  C   UNL     1      28.440  44.311  54.614  1.00  0.00     0.032 A 
HETATM    8  C   UNL     1      30.552  43.257  55.259  1.00  0.00     0.031 A 
HETATM    9  C   UNL     1      30.902  44.374  56.014  1.00  0.00     0.002 A 
HETATM   10  C   UNL     1      30.026  45.451  56.099  1.00  0.00     0.001 A 
HETATM   11  C   UNL     1      28.807  45.419  55.419  1.00  0.00     0.017 A 
ENDROOT
BRANCH   1  12
HETATM   12  N   UNL     1      26.228  45.113  53.867  1.00  0.00    -0.272 NA
HETATM   13  H   UNL     1      25.348  44.602  53.789  1.00  0.00     0.129 HD
BRANCH  12  14
HETATM   14  C   UNL     1      26.258  46.165  52.841  1.00  0.00     0.135 C 
BRANCH  14  15
HETATM   15  C   UNL     1      25.319  45.854  51.689  1.00  0.00    -0.012 A 
HETATM   16  C   UNL     1      25.180  46.787  50.640  1.00  0.00     0.075 A 
HETATM   17  C   UNL     1      24.313  46.513  49.576  1.00  0.00     0.037 A 
HETATM   18  C   UNL     1      23.594  45.318  49.535  1.00  0.00     0.003 A 
HETATM   19  C   UNL     1      23.737  44.384  50.555  1.00  0.00     0.001 A 
HETATM   20  C   UNL     1      24.596  44.649  51.621  1.00  0.00     0.011 A 
BRANCH  16  21
HETATM   21  O   UNL     1      25.926  47.932  50.760  1.00  0.00    -0.355 OA
HETATM   22  C   UNL     1      26.745  48.290  49.650  1.00  0.00     0.210 C 
ENDBRANCH  16  21
ENDBRANCH  14  15
ENDBRANCH  12  14
ENDBRANCH   1  12
BRANCH   3  23
HETATM   23  N   UNL     1      27.551  40.832  52.620  1.00  0.00    -0.220 N 
HETATM   24  H   UNL     1      27.798  39.958  53.059  1.00  0.00     0.178 HD
BRANCH  23  25
HETATM   25  C   UNL     1      27.455  40.777  51.165  1.00  0.00     0.099 C 
HETATM   26  C   UNL     1      25.994  40.654  50.727  1.00  0.00     0.026 C 
HETATM   27  C   UNL     1      25.980  41.314  49.360  1.00  0.00     0.002 C 
HETATM   28  C   UNL     1      26.866  42.534  49.553  1.00  0.00     0.002 C 
HETATM   29  C   UNL     1      27.944  42.095  50.543  1.00  0.00     0.026 C 
ENDBRANCH  23  25
ENDBRANCH   3  23
TORSDOF 6
ENDMDL
MODEL 10
REMARK VINA RESULT:      -8.2      1.302      4.817
REMARK  6 active torsions:
REMARK  status: ('A' for Active; 'I' for Inactive)
REMARK    1  A    between atoms: O_2  and  C_3 
REMARK    2  A    between atoms: C_4  and  C_5 
REMARK    3  A    between atoms: C_5  and  N_6 
REMARK    4  A    between atoms: N_6  and  C_7 
REMARK    5  A    between atoms: C_9  and  N_10 
REMARK    6  A    between atoms: N_10  and  C_11 
ROOT
HETATM    1  C   UNL     1      27.970  42.631  53.127  1.00  0.00     0.135 A 
HETATM    2  N   UNL     1      27.067  43.620  53.007  1.00  0.00    -0.052 NA
HETATM    3  C   UNL     1      26.264  43.625  51.929  1.00  0.00     0.702 A 
HETATM    4  N   UNL     1      26.353  42.697  50.980  1.00  0.00    -0.189 N 
HETATM    5  H   UNL     1      25.699  42.748  50.213  1.00  0.00     0.184 HD
HETATM    6  C   UNL     1      27.234  41.692  51.055  1.00  0.00     0.062 A 
HETATM    7  C   UNL     1      28.089  41.606  52.169  1.00  0.00     0.032 A 
HETATM    8  C   UNL     1      27.272  40.725  50.036  1.00  0.00     0.031 A 
HETATM    9  C   UNL     1      28.152  39.649  50.121  1.00  0.00     0.002 A 
HETATM   10  C   UNL     1      28.985  39.524  51.228  1.00  0.00     0.001 A 
HETATM   11  C   UNL     1      28.948  40.481  52.245  1.00  0.00     0.017 A 
ENDROOT
BRANCH   1  12
HETATM   12  N   UNL     1      28.683  42.671  54.315  1.00  0.00    -0.272 NA
HETATM   13  H   UNL     1      28.094  43.146  54.999  1.00  0.00     0.129 HD
BRANCH  12  14
HETATM   14  C   UNL     1      30.013  43.294  54.319  1.00  0.00     0.135 C 
BRANCH  14  15
HETATM   15  C   UNL     1      30.316  43.965  55.647  1.00  0.00    -0.012 A 
HETATM   16  C   UNL     1      29.618  45.138  56.004  1.00  0.00     0.075 A 
HETATM   17  C   UNL     1      29.894  45.769  57.222  1.00  0.00     0.037 A 
HETATM   18  C   UNL     1      30.844  45.239  58.096  1.00  0.00     0.003 A 
HETATM   19  C   UNL     1      31.525  44.074  57.763  1.00  0.00     0.001 A 
HETATM   20  C   UNL     1      31.260  43.441  56.550  1.00  0.00     0.011 A 
BRANCH  16  21
HETATM   21  O   UNL     1      28.700  45.586  55.087  1.00  0.00    -0.355 OA
HETATM   22  C   UNL     1      28.388  46.976  55.110  1.00  0.00     0.210 C 
ENDBRANCH  16  21
ENDBRANCH  14  15
ENDBRANCH  12  14
ENDBRANCH   1  12
BRANCH   3  23
HETATM   23  N   UNL     1      25.274  44.572  51.785  1.00  0.00    -0.220 N 
HETATM   24  H   UNL     1      24.404  44.491  52.288  1.00  0.00     0.178 HD
BRANCH  23  25
HETATM   25  C   UNL     1      25.192  45.337  50.544  1.00  0.00     0.099 C 
HETATM   26  C   UNL     1      23.799  45.210  49.926  1.00  0.00     0.026 C 
HETATM   27  C   UNL     1      23.632  46.512  49.163  1.00  0.00     0.002 C 
HETATM   28  C   UNL     1      24.214  47.547  50.112  1.00  0.00     0.002 C 
HETATM   29  C   UNL     1      25.365  46.838  50.824  1.00  0.00     0.026 C 
ENDBRANCH  23  25
ENDBRANCH   3  23
TORSDOF 6
ENDMDL
