MODEL 1
REMARK VINA RESULT:      -8.4      0.000      0.000
REMARK  6 active torsions:
REMARK  status: ('A' for Active; 'I' for Inactive)
REMARK    1  A    between atoms: C_2  and  C_3 
REMARK    2  A    between atoms: C_3  and  O_4 
REMARK    3  A    between atoms: O_4  and  C_5 
REMARK    4  A    between atoms: C_8  and  C_9 
REMARK    5  A    between atoms: C_9  and  N_10 
REMARK       I    between atoms: N_10  and  C_11 
REMARK       I    between atoms: C_11  and  N_12 
REMARK    6  A    between atoms: N_12  and  C_13 
ROOT
HETATM    1  N   UNL     1      23.228  47.152  49.569  1.00  0.00    -0.339 N 
HETATM    2  C   UNL     1      23.230  48.517  49.494  1.00  0.00     0.316 C 
HETATM    3  N   UNL     1      21.964  49.042  49.555  1.00  0.00    -0.338 N 
HETATM    4  O   UNL     1      24.241  49.189  49.344  1.00  0.00    -0.247 OA
HETATM    5  H   UNL     1      22.363  46.674  49.766  1.00  0.00     0.164 HD
HETATM    6  H   UNL     1      21.300  48.523  50.111  1.00  0.00     0.164 HD
ENDROOT
BRANCH   1   7
HETATM    7  C   UNL     1      24.464  46.406  49.593  1.00  0.00     0.164 C 
BRANCH   7   8
HETATM    8  C   UNL     1      24.825  45.968  50.982  1.00  0.00    -0.021 A 
HETATM    9  C   UNL     1      24.641  44.647  51.381  1.00  0.00     0.128 A 
HETATM   10  N   UNL     1      24.980  44.165  52.600  1.00  0.00    -0.235 NA
HETATM   11  C   UNL     1      25.540  45.038  53.472  1.00  0.00     0.186 A 
HETATM   12  C   UNL     1      25.752  46.382  53.174  1.00  0.00     0.087 A 
HETATM   13  C   UNL     1      25.387  46.849  51.911  1.00  0.00     0.038 A 
HETATM   14 CL   UNL     1      26.460  47.481  54.297  1.00  0.00    -0.080 Cl
BRANCH  11  15
HETATM   15  O   UNL     1      25.931  44.583  54.716  1.00  0.00    -0.333 OA
BRANCH  15  16
HETATM   16  C   UNL     1      26.838  43.479  54.676  1.00  0.00     0.181 C 
BRANCH  16  17
HETATM   17  C   UNL     1      28.214  43.987  54.212  1.00  0.00     0.002 C 
HETATM   18  C   UNL     1      29.163  42.816  53.972  1.00  0.00     0.011 C 
HETATM   19  C   UNL     1      28.821  44.966  55.221  1.00  0.00     0.011 C 
ENDBRANCH  16  17
ENDBRANCH  15  16
ENDBRANCH  11  15
ENDBRANCH   7   8
ENDBRANCH   1   7
BRANCH   3  20
HETATM   20  C   UNL     1      21.771  50.495  49.498  1.00  0.00     0.090 C 
HETATM   21  C   UNL     1      20.553  50.955  50.351  1.00  0.00     0.067 C 
HETATM   22  C   UNL     1      19.285  50.850  49.579  1.00  0.00    -0.013 A 
HETATM   23  C   UNL     1      19.239  50.681  48.215  1.00  0.00     0.035 A 
HETATM   24  C   UNL     1      17.938  50.933  49.968  1.00  0.00     0.148 A 
HETATM   25  N   UNL     1      17.922  50.678  47.868  1.00  0.00    -0.282 N 
HETATM   26  C   UNL     1      20.394  50.529  47.301  1.00  0.00     0.061 C 
HETATM   27  H   UNL     1      17.506  50.589  46.946  1.00  0.00     0.189 HD
HETATM   28  N   UNL     1      17.106  50.818  48.927  1.00  0.00    -0.187 NA
HETATM   29  C   UNL     1      21.680  50.973  48.025  1.00  0.00     0.031 C 
ENDBRANCH   3  20
TORSDOF 6
ENDMDL
MODEL 2
REMARK VINA RESULT:      -8.1      1.308      1.763
REMARK  6 active torsions:
REMARK  status: ('A' for Active; 'I' for Inactive)
REMARK    1  A    between atoms: C_2  and  C_3 
REMARK    2  A    between atoms: C_3  and  O_4 
REMARK    3  A    between atoms: O_4  and  C_5 
REMARK    4  A    between atoms: C_8  and  C_9 
REMARK    5  A    between atoms: C_9  and  N_10 
REMARK       I    between atoms: N_10  and  C_11 
REMARK       I    between atoms: C_11  and  N_12 
REMARK    6  A    between atoms: N_12  and  C_13 
ROOT
HETATM    1  N   UNL     1      23.375  47.651  50.008  1.00  0.00    -0.339 N 
HETATM    2  C   UNL     1      22.549  47.735  48.922  1.00  0.00     0.316 C 
HETATM    3  N   UNL     1      21.345  48.318  49.228  1.00  0.00    -0.338 N 
HETATM    4  O   UNL     1      22.835  47.301  47.815  1.00  0.00    -0.247 OA
HETATM    5  H   UNL     1      23.099  48.097  50.869  1.00  0.00     0.164 HD
HETATM    6  H   UNL     1      21.369  49.017  49.956  1.00  0.00     0.164 HD
ENDROOT
BRANCH   1   7
HETATM    7  C   UNL     1      24.717  47.133  49.885  1.00  0.00     0.164 C 
BRANCH   7   8
HETATM    8  C   UNL     1      25.193  46.509  51.164  1.00  0.00    -0.021 A 
HETATM    9  C   UNL     1      25.018  45.148  51.399  1.00  0.00     0.128 A 
HETATM   10  N   UNL     1      25.455  44.502  52.505  1.00  0.00    -0.235 NA
HETATM   11  C   UNL     1      26.112  45.245  53.430  1.00  0.00     0.186 A 
HETATM   12  C   UNL     1      26.325  46.615  53.295  1.00  0.00     0.087 A 
HETATM   13  C   UNL     1      25.857  47.251  52.145  1.00  0.00     0.038 A 
HETATM   14 CL   UNL     1      27.157  47.546  54.483  1.00  0.00    -0.080 Cl
BRANCH  11  15
HETATM   15  O   UNL     1      26.604  44.623  54.561  1.00  0.00    -0.333 OA
BRANCH  15  16
HETATM   16  C   UNL     1      27.490  43.534  54.289  1.00  0.00     0.181 C 
BRANCH  16  17
HETATM   17  C   UNL     1      28.920  44.082  54.150  1.00  0.00     0.002 C 
HETATM   18  C   UNL     1      29.902  42.948  53.871  1.00  0.00     0.011 C 
HETATM   19  C   UNL     1      29.347  44.861  55.397  1.00  0.00     0.011 C 
ENDBRANCH  16  17
ENDBRANCH  15  16
ENDBRANCH  11  15
ENDBRANCH   7   8
ENDBRANCH   1   7
BRANCH   3  20
HETATM   20  C   UNL     1      20.334  48.501  48.183  1.00  0.00     0.090 C 
HETATM   21  C   UNL     1      20.273  49.972  47.681  1.00  0.00     0.067 C 
HETATM   22  C   UNL     1      19.391  50.800  48.548  1.00  0.00    -0.013 A 
HETATM   23  C   UNL     1      18.509  50.269  49.460  1.00  0.00     0.035 A 
HETATM   24  C   UNL     1      19.195  52.188  48.637  1.00  0.00     0.148 A 
HETATM   25  N   UNL     1      17.851  51.320  50.022  1.00  0.00    -0.282 N 
HETATM   26  C   UNL     1      18.314  48.835  49.773  1.00  0.00     0.061 C 
HETATM   27  H   UNL     1      17.119  51.312  50.725  1.00  0.00     0.189 HD
HETATM   28  N   UNL     1      18.263  52.508  49.543  1.00  0.00    -0.187 NA
HETATM   29  C   UNL     1      18.955  47.978  48.663  1.00  0.00     0.031 C 
ENDBRANCH   3  20
TORSDOF 6
ENDMDL
MODEL 3
REMARK VINA RESULT:      -8.0      3.017      9.673
REMARK  6 active torsions:
REMARK  status: ('A' for Active; 'I' for Inactive)
REMARK    1  A    between atoms: C_2  and  C_3 
REMARK    2  A    between atoms: C_3  and  O_4 
REMARK    3  A    between atoms: O_4  and  C_5 
REMARK    4  A    between atoms: C_8  and  C_9 
REMARK    5  A    between atoms: C_9  and  N_10 
REMARK       I    between atoms: N_10  and  C_11 
REMARK       I    between atoms: C_11  and  N_12 
REMARK    6  A    between atoms: N_12  and  C_13 
ROOT
HETATM    1  N   UNL     1      25.578  45.059  50.469  1.00  0.00    -0.339 N 
HETATM    2  C   UNL     1      25.425  44.298  51.595  1.00  0.00     0.316 C 
HETATM    3  N   UNL     1      26.463  44.461  52.477  1.00  0.00    -0.338 N 
HETATM    4  O   UNL     1      24.492  43.528  51.774  1.00  0.00    -0.247 OA
HETATM    5  H   UNL     1      26.334  45.723  50.427  1.00  0.00     0.164 HD
HETATM    6  H   UNL     1      26.892  45.374  52.485  1.00  0.00     0.164 HD
ENDROOT
BRANCH   1   7
HETATM    7  C   UNL     1      24.560  45.086  49.445  1.00  0.00     0.164 C 
BRANCH   7   8
HETATM    8  C   UNL     1      23.911  46.435  49.341  1.00  0.00    -0.021 A 
HETATM    9  C   UNL     1      24.465  47.542  49.979  1.00  0.00     0.128 A 
HETATM   10  N   UNL     1      23.965  48.797  49.900  1.00  0.00    -0.235 NA
HETATM   11  C   UNL     1      22.857  48.970  49.139  1.00  0.00     0.186 A 
HETATM   12  C   UNL     1      22.219  47.925  48.473  1.00  0.00     0.087 A 
HETATM   13  C   UNL     1      22.757  46.643  48.580  1.00  0.00     0.038 A 
HETATM   14 CL   UNL     1      20.807  48.161  47.514  1.00  0.00    -0.080 Cl
BRANCH  11  15
HETATM   15  O   UNL     1      22.330  50.240  49.002  1.00  0.00    -0.333 OA
BRANCH  15  16
HETATM   16  C   UNL     1      21.807  50.788  50.214  1.00  0.00     0.181 C 
BRANCH  16  17
HETATM   17  C   UNL     1      20.339  51.184  49.986  1.00  0.00     0.002 C 
HETATM   18  C   UNL     1      19.413  50.017  50.319  1.00  0.00     0.011 C 
HETATM   19  C   UNL     1      20.102  51.658  48.549  1.00  0.00     0.011 C 
ENDBRANCH  16  17
ENDBRANCH  15  16
ENDBRANCH  11  15
ENDBRANCH   7   8
ENDBRANCH   1   7
BRANCH   3  20
HETATM   20  C   UNL     1      26.466  43.728  53.747  1.00  0.00     0.090 C 
HETATM   21  C   UNL     1      26.518  44.686  54.972  1.00  0.00     0.067 C 
HETATM   22  C   UNL     1      27.919  45.068  55.297  1.00  0.00    -0.013 A 
HETATM   23  C   UNL     1      29.020  44.414  54.794  1.00  0.00     0.035 A 
HETATM   24  C   UNL     1      28.453  46.053  56.145  1.00  0.00     0.148 A 
HETATM   25  N   UNL     1      30.112  45.010  55.348  1.00  0.00    -0.282 N 
HETATM   26  C   UNL     1      29.018  43.286  53.835  1.00  0.00     0.061 C 
HETATM   27  H   UNL     1      31.094  44.785  55.219  1.00  0.00     0.189 HD
HETATM   28  N   UNL     1      29.790  46.025  56.169  1.00  0.00    -0.187 NA
HETATM   29  C   UNL     1      27.604  42.676  53.766  1.00  0.00     0.031 C 
ENDBRANCH   3  20
TORSDOF 6
ENDMDL
MODEL 4
REMARK VINA RESULT:      -7.6      3.085      9.788
REMARK  6 active torsions:
REMARK  status: ('A' for Active; 'I' for Inactive)
REMARK    1  A    between atoms: C_2  and  C_3 
REMARK    2  A    between atoms: C_3  and  O_4 
REMARK    3  A    between atoms: O_4  and  C_5 
REMARK    4  A    between atoms: C_8  and  C_9 
REMARK    5  A    between atoms: C_9  and  N_10 
REMARK       I    between atoms: N_10  and  C_11 
REMARK       I    between atoms: C_11  and  N_12 
REMARK    6  A    between atoms: N_12  and  C_13 
ROOT
HETATM    1  N   UNL     1      23.282  47.858  49.734  1.00  0.00    -0.339 N 
HETATM    2  C   UNL     1      24.599  47.653  50.040  1.00  0.00     0.316 C 
HETATM    3  N   UNL     1      24.798  46.477  50.718  1.00  0.00    -0.338 N 
HETATM    4  O   UNL     1      25.490  48.449  49.779  1.00  0.00    -0.247 OA
HETATM    5  H   UNL     1      22.617  47.123  49.917  1.00  0.00     0.164 HD
HETATM    6  H   UNL     1      24.164  45.726  50.489  1.00  0.00     0.164 HD
ENDROOT
BRANCH   1   7
HETATM    7  C   UNL     1      22.867  49.004  48.961  1.00  0.00     0.164 C 
BRANCH   7   8
HETATM    8  C   UNL     1      21.493  49.468  49.345  1.00  0.00    -0.021 A 
HETATM    9  C   UNL     1      21.275  50.780  49.755  1.00  0.00     0.128 A 
HETATM   10  N   UNL     1      20.062  51.287  50.077  1.00  0.00    -0.235 NA
HETATM   11  C   UNL     1      19.000  50.449  49.980  1.00  0.00     0.186 A 
HETATM   12  C   UNL     1      19.116  49.115  49.593  1.00  0.00     0.087 A 
HETATM   13  C   UNL     1      20.381  48.623  49.273  1.00  0.00     0.038 A 
HETATM   14 CL   UNL     1      17.757  48.061  49.479  1.00  0.00    -0.080 Cl
BRANCH  11  15
HETATM   15  O   UNL     1      17.738  50.931  50.268  1.00  0.00    -0.333 OA
BRANCH  15  16
HETATM   16  C   UNL     1      17.484  52.242  49.759  1.00  0.00     0.181 C 
BRANCH  16  17
HETATM   17  C   UNL     1      16.710  52.119  48.436  1.00  0.00     0.002 C 
HETATM   18  C   UNL     1      15.753  50.930  48.486  1.00  0.00     0.011 C 
HETATM   19  C   UNL     1      17.657  51.989  47.240  1.00  0.00     0.011 C 
ENDBRANCH  16  17
ENDBRANCH  15  16
ENDBRANCH  11  15
ENDBRANCH   7   8
ENDBRANCH   1   7
BRANCH   3  20
HETATM   20  C   UNL     1      26.152  46.086  51.123  1.00  0.00     0.090 C 
HETATM   21  C   UNL     1      26.839  45.179  50.061  1.00  0.00     0.067 C 
HETATM   22  C   UNL     1      26.469  43.750  50.254  1.00  0.00    -0.013 A 
HETATM   23  C   UNL     1      25.872  43.269  51.396  1.00  0.00     0.035 A 
HETATM   24  C   UNL     1      26.647  42.615  49.446  1.00  0.00     0.148 A 
HETATM   25  N   UNL     1      25.734  41.925  51.226  1.00  0.00    -0.282 N 
HETATM   26  C   UNL     1      25.457  44.057  52.579  1.00  0.00     0.061 C 
HETATM   27  H   UNL     1      25.347  41.238  51.865  1.00  0.00     0.189 HD
HETATM   28  N   UNL     1      26.190  41.503  50.033  1.00  0.00    -0.187 NA
HETATM   29  C   UNL     1      26.133  45.441  52.533  1.00  0.00     0.031 C 
ENDBRANCH   3  20
TORSDOF 6
ENDMDL
MODEL 5
REMARK VINA RESULT:      -7.6      2.440      3.181
REMARK  6 active torsions:
REMARK  status: ('A' for Active; 'I' for Inactive)
REMARK    1  A    between atoms: C_2  and  C_3 
REMARK    2  A    between atoms: C_3  and  O_4 
REMARK    3  A    between atoms: O_4  and  C_5 
REMARK    4  A    between atoms: C_8  and  C_9 
REMARK    5  A    between atoms: C_9  and  N_10 
REMARK       I    between atoms: N_10  and  C_11 
REMARK       I    between atoms: C_11  and  N_12 
REMARK    6  A    between atoms: N_12  and  C_13 
ROOT
HETATM    1  N   UNL     1      22.207  44.106  49.933  1.00  0.00    -0.339 N 
HETATM    2  C   UNL     1      21.854  44.873  48.857  1.00  0.00     0.316 C 
HETATM    3  N   UNL     1      20.943  45.844  49.187  1.00  0.00    -0.338 N 
HETATM    4  O   UNL     1      22.270  44.684  47.722  1.00  0.00    -0.247 OA
HETATM    5  H   UNL     1      21.879  44.369  50.849  1.00  0.00     0.164 HD
HETATM    6  H   UNL     1      21.015  46.212  50.124  1.00  0.00     0.164 HD
ENDROOT
BRANCH   1   7
HETATM    7  C   UNL     1      23.207  43.072  49.814  1.00  0.00     0.164 C 
BRANCH   7   8
HETATM    8  C   UNL     1      24.395  43.342  50.690  1.00  0.00    -0.021 A 
HETATM    9  C   UNL     1      25.454  42.441  50.749  1.00  0.00     0.128 A 
HETATM   10  N   UNL     1      26.578  42.631  51.480  1.00  0.00    -0.235 NA
HETATM   11  C   UNL     1      26.662  43.784  52.188  1.00  0.00     0.186 A 
HETATM   12  C   UNL     1      25.650  44.742  52.206  1.00  0.00     0.087 A 
HETATM   13  C   UNL     1      24.504  44.513  51.446  1.00  0.00     0.038 A 
HETATM   14 CL   UNL     1      25.771  46.201  53.116  1.00  0.00    -0.080 Cl
BRANCH  11  15
HETATM   15  O   UNL     1      27.804  44.036  52.923  1.00  0.00    -0.333 OA
BRANCH  15  16
HETATM   16  C   UNL     1      27.913  43.258  54.117  1.00  0.00     0.181 C 
BRANCH  16  17
HETATM   17  C   UNL     1      29.391  42.893  54.336  1.00  0.00     0.002 C 
HETATM   18  C   UNL     1      30.059  43.904  55.265  1.00  0.00     0.011 C 
HETATM   19  C   UNL     1      30.151  42.807  53.010  1.00  0.00     0.011 C 
ENDBRANCH  16  17
ENDBRANCH  15  16
ENDBRANCH  11  15
ENDBRANCH   7   8
ENDBRANCH   1   7
BRANCH   3  20
HETATM   20  C   UNL     1      20.455  46.769  48.159  1.00  0.00     0.090 C 
HETATM   21  C   UNL     1      21.377  48.014  48.009  1.00  0.00     0.067 C 
HETATM   22  C   UNL     1      21.020  49.069  48.996  1.00  0.00    -0.013 A 
HETATM   23  C   UNL     1      19.845  49.073  49.711  1.00  0.00     0.035 A 
HETATM   24  C   UNL     1      21.678  50.245  49.394  1.00  0.00     0.148 A 
HETATM   25  N   UNL     1      19.853  50.207  50.465  1.00  0.00    -0.282 N 
HETATM   26  C   UNL     1      18.781  48.045  49.673  1.00  0.00     0.061 C 
HETATM   27  H   UNL     1      19.146  50.551  51.107  1.00  0.00     0.189 HD
HETATM   28  N   UNL     1      20.972  50.935  50.297  1.00  0.00    -0.187 NA
HETATM   29  C   UNL     1      18.978  47.153  48.431  1.00  0.00     0.031 C 
ENDBRANCH   3  20
TORSDOF 6
ENDMDL
MODEL 6
REMARK VINA RESULT:      -7.5      1.877      2.128
REMARK  6 active torsions:
REMARK  status: ('A' for Active; 'I' for Inactive)
REMARK    1  A    between atoms: C_2  and  C_3 
REMARK    2  A    between atoms: C_3  and  O_4 
REMARK    3  A    between atoms: O_4  and  C_5 
REMARK    4  A    between atoms: C_8  and  C_9 
REMARK    5  A    between atoms: C_9  and  N_10 
REMARK       I    between atoms: N_10  and  C_11 
REMARK       I    between atoms: C_11  and  N_12 
REMARK    6  A    between atoms: N_12  and  C_13 
ROOT
HETATM    1  N   UNL     1      23.711  48.132  49.410  1.00  0.00    -0.339 N 
HETATM    2  C   UNL     1      23.012  49.302  49.516  1.00  0.00     0.316 C 
HETATM    3  N   UNL     1      21.655  49.099  49.518  1.00  0.00    -0.338 N 
HETATM    4  O   UNL     1      23.537  50.406  49.557  1.00  0.00    -0.247 OA
HETATM    5  H   UNL     1      23.211  47.258  49.455  1.00  0.00     0.164 HD
HETATM    6  H   UNL     1      21.343  48.233  49.932  1.00  0.00     0.164 HD
ENDROOT
BRANCH   1   7
HETATM    7  C   UNL     1      25.154  48.119  49.459  1.00  0.00     0.164 C 
BRANCH   7   8
HETATM    8  C   UNL     1      25.670  47.054  50.381  1.00  0.00    -0.021 A 
HETATM    9  C   UNL     1      25.618  47.222  51.762  1.00  0.00     0.128 A 
HETATM   10  N   UNL     1      26.024  46.294  52.659  1.00  0.00    -0.235 NA
HETATM   11  C   UNL     1      26.502  45.126  52.162  1.00  0.00     0.186 A 
HETATM   12  C   UNL     1      26.607  44.867  50.798  1.00  0.00     0.087 A 
HETATM   13  C   UNL     1      26.186  45.847  49.899  1.00  0.00     0.038 A 
HETATM   14 CL   UNL     1      27.223  43.379  50.182  1.00  0.00    -0.080 Cl
BRANCH  11  15
HETATM   15  O   UNL     1      26.897  44.137  53.041  1.00  0.00    -0.333 OA
BRANCH  15  16
HETATM   16  C   UNL     1      28.134  44.405  53.705  1.00  0.00     0.181 C 
BRANCH  16  17
HETATM   17  C   UNL     1      29.055  43.184  53.547  1.00  0.00     0.002 C 
HETATM   18  C   UNL     1      28.238  41.894  53.547  1.00  0.00     0.011 C 
HETATM   19  C   UNL     1      30.121  43.139  54.645  1.00  0.00     0.011 C 
ENDBRANCH  16  17
ENDBRANCH  15  16
ENDBRANCH  11  15
ENDBRANCH   7   8
ENDBRANCH   1   7
BRANCH   3  20
HETATM   20  C   UNL     1      20.744  50.242  49.633  1.00  0.00     0.090 C 
HETATM   21  C   UNL     1      19.324  49.812  50.101  1.00  0.00     0.067 C 
HETATM   22  C   UNL     1      18.487  49.379  48.949  1.00  0.00    -0.013 A 
HETATM   23  C   UNL     1      18.812  49.632  47.637  1.00  0.00     0.035 A 
HETATM   24  C   UNL     1      17.251  48.714  48.883  1.00  0.00     0.148 A 
HETATM   25  N   UNL     1      17.795  49.134  46.881  1.00  0.00    -0.282 N 
HETATM   26  C   UNL     1      20.031  50.310  47.141  1.00  0.00     0.061 C 
HETATM   27  H   UNL     1      17.684  49.149  45.872  1.00  0.00     0.189 HD
HETATM   28  N   UNL     1      16.833  48.555  47.622  1.00  0.00    -0.187 NA
HETATM   29  C   UNL     1      20.715  51.049  48.309  1.00  0.00     0.031 C 
ENDBRANCH   3  20
TORSDOF 6
ENDMDL
MODEL 7
REMARK VINA RESULT:      -7.3      3.568     10.183
REMARK  6 active torsions:
REMARK  status: ('A' for Active; 'I' for Inactive)
REMARK    1  A    between atoms: C_2  and  C_3 
REMARK    2  A    between atoms: C_3  and  O_4 
REMARK    3  A    between atoms: O_4  and  C_5 
REMARK    4  A    between atoms: C_8  and  C_9 
REMARK    5  A    between atoms: C_9  and  N_10 
REMARK       I    between atoms: N_10  and  C_11 
REMARK       I    between atoms: C_11  and  N_12 
REMARK    6  A    between atoms: N_12  and  C_13 
ROOT
HETATM    1  N   UNL     1      22.329  49.742  49.745  1.00  0.00    -0.339 N 
HETATM    2  C   UNL     1      23.429  49.069  49.291  1.00  0.00     0.316 C 
HETATM    3  N   UNL     1      23.658  47.914  49.996  1.00  0.00    -0.338 N 
HETATM    4  O   UNL     1      24.151  49.473  48.391  1.00  0.00    -0.247 OA
HETATM    5  H   UNL     1      21.742  49.309  50.441  1.00  0.00     0.164 HD
HETATM    6  H   UNL     1      22.837  47.448  50.353  1.00  0.00     0.164 HD
ENDROOT
BRANCH   1   7
HETATM    7  C   UNL     1      21.873  50.947  49.093  1.00  0.00     0.164 C 
BRANCH   7   8
HETATM    8  C   UNL     1      20.375  51.039  49.076  1.00  0.00    -0.021 A 
HETATM    9  C   UNL     1      19.630  50.718  50.207  1.00  0.00     0.128 A 
HETATM   10  N   UNL     1      18.282  50.815  50.286  1.00  0.00    -0.235 NA
HETATM   11  C   UNL     1      17.633  51.263  49.183  1.00  0.00     0.186 A 
HETATM   12  C   UNL     1      18.286  51.596  47.998  1.00  0.00     0.087 A 
HETATM   13  C   UNL     1      19.675  51.480  47.949  1.00  0.00     0.038 A 
HETATM   14 CL   UNL     1      17.446  52.159  46.603  1.00  0.00    -0.080 Cl
BRANCH  11  15
HETATM   15  O   UNL     1      16.260  51.409  49.228  1.00  0.00    -0.333 OA
BRANCH  15  16
HETATM   16  C   UNL     1      15.803  52.330  50.220  1.00  0.00     0.181 C 
BRANCH  16  17
HETATM   17  C   UNL     1      15.580  53.700  49.557  1.00  0.00     0.002 C 
HETATM   18  C   UNL     1      15.115  54.724  50.589  1.00  0.00     0.011 C 
HETATM   19  C   UNL     1      14.574  53.610  48.406  1.00  0.00     0.011 C 
ENDBRANCH  16  17
ENDBRANCH  15  16
ENDBRANCH  11  15
ENDBRANCH   7   8
ENDBRANCH   1   7
BRANCH   3  20
HETATM   20  C   UNL     1      24.794  47.056  49.644  1.00  0.00     0.090 C 
HETATM   21  C   UNL     1      24.491  45.552  49.908  1.00  0.00     0.067 C 
HETATM   22  C   UNL     1      24.773  45.187  51.323  1.00  0.00    -0.013 A 
HETATM   23  C   UNL     1      25.500  45.979  52.181  1.00  0.00     0.035 A 
HETATM   24  C   UNL     1      24.460  44.045  52.079  1.00  0.00     0.148 A 
HETATM   25  N   UNL     1      25.588  45.299  53.357  1.00  0.00    -0.282 N 
HETATM   26  C   UNL     1      26.071  47.312  51.885  1.00  0.00     0.061 C 
HETATM   27  H   UNL     1      26.060  45.568  54.215  1.00  0.00     0.189 HD
HETATM   28  N   UNL     1      24.947  44.117  53.323  1.00  0.00    -0.187 NA
HETATM   29  C   UNL     1      26.082  47.537  50.361  1.00  0.00     0.031 C 
ENDBRANCH   3  20
TORSDOF 6
ENDMDL
MODEL 8
REMARK VINA RESULT:      -7.3      3.390      9.839
REMARK  6 active torsions:
REMARK  status: ('A' for Active; 'I' for Inactive)
REMARK    1  A    between atoms: C_2  and  C_3 
REMARK    2  A    between atoms: C_3  and  O_4 
REMARK    3  A    between atoms: O_4  and  C_5 
REMARK    4  A    between atoms: C_8  and  C_9 
REMARK    5  A    between atoms: C_9  and  N_10 
REMARK       I    between atoms: N_10  and  C_11 
REMARK       I    between atoms: C_11  and  N_12 
REMARK    6  A    between atoms: N_12  and  C_13 
ROOT
HETATM    1  N   UNL     1      23.377  48.350  49.729  1.00  0.00    -0.339 N 
HETATM    2  C   UNL     1      24.685  47.994  49.907  1.00  0.00     0.316 C 
HETATM    3  N   UNL     1      24.813  46.801  50.573  1.00  0.00    -0.338 N 
HETATM    4  O   UNL     1      25.632  48.682  49.554  1.00  0.00    -0.247 OA
HETATM    5  H   UNL     1      22.653  47.696  49.982  1.00  0.00     0.164 HD
HETATM    6  H   UNL     1      24.077  46.129  50.413  1.00  0.00     0.164 HD
ENDROOT
BRANCH   1   7
HETATM    7  C   UNL     1      23.023  49.538  48.989  1.00  0.00     0.164 C 
BRANCH   7   8
HETATM    8  C   UNL     1      21.537  49.724  48.912  1.00  0.00    -0.021 A 
HETATM    9  C   UNL     1      20.674  48.650  49.111  1.00  0.00     0.128 A 
HETATM   10  N   UNL     1      19.324  48.743  49.100  1.00  0.00    -0.235 NA
HETATM   11  C   UNL     1      18.795  49.973  48.889  1.00  0.00     0.186 A 
HETATM   12  C   UNL     1      19.572  51.108  48.665  1.00  0.00     0.087 A 
HETATM   13  C   UNL     1      20.961  50.976  48.677  1.00  0.00     0.038 A 
HETATM   14 CL   UNL     1      18.884  52.664  48.392  1.00  0.00    -0.080 Cl
BRANCH  11  15
HETATM   15  O   UNL     1      17.422  50.122  48.901  1.00  0.00    -0.333 OA
BRANCH  15  16
HETATM   16  C   UNL     1      16.714  49.071  48.240  1.00  0.00     0.181 C 
BRANCH  16  17
HETATM   17  C   UNL     1      16.000  49.654  47.009  1.00  0.00     0.002 C 
HETATM   18  C   UNL     1      15.645  51.120  47.241  1.00  0.00     0.011 C 
HETATM   19  C   UNL     1      14.745  48.852  46.655  1.00  0.00     0.011 C 
ENDBRANCH  16  17
ENDBRANCH  15  16
ENDBRANCH  11  15
ENDBRANCH   7   8
ENDBRANCH   1   7
BRANCH   3  20
HETATM   20  C   UNL     1      26.146  46.255  50.848  1.00  0.00     0.090 C 
HETATM   21  C   UNL     1      26.593  45.235  49.762  1.00  0.00     0.067 C 
HETATM   22  C   UNL     1      26.076  43.871  50.059  1.00  0.00    -0.013 A 
HETATM   23  C   UNL     1      25.557  43.506  51.279  1.00  0.00     0.035 A 
HETATM   24  C   UNL     1      26.023  42.697  49.289  1.00  0.00     0.148 A 
HETATM   25  N   UNL     1      25.238  42.186  51.186  1.00  0.00    -0.282 N 
HETATM   26  C   UNL     1      25.376  44.378  52.462  1.00  0.00     0.061 C 
HETATM   27  H   UNL     1      24.844  41.574  51.895  1.00  0.00     0.189 HD
HETATM   28  N   UNL     1      25.502  41.671  49.972  1.00  0.00    -0.187 NA
HETATM   29  C   UNL     1      26.207  45.664  52.280  1.00  0.00     0.031 C 
ENDBRANCH   3  20
TORSDOF 6
ENDMDL
MODEL 9
REMARK VINA RESULT:      -7.3      4.771     10.552
REMARK  6 active torsions:
REMARK  status: ('A' for Active; 'I' for Inactive)
REMARK    1  A    between atoms: C_2  and  C_3 
REMARK    2  A    between atoms: C_3  and  O_4 
REMARK    3  A    between atoms: O_4  and  C_5 
REMARK    4  A    between atoms: C_8  and  C_9 
REMARK    5  A    between atoms: C_9  and  N_10 
REMARK       I    between atoms: N_10  and  C_11 
REMARK       I    between atoms: C_11  and  N_12 
REMARK    6  A    between atoms: N_12  and  C_13 
ROOT
HETATM    1  N   UNL     1      24.758  42.100  50.234  1.00  0.00    -0.339 N 
HETATM    2  C   UNL     1      24.916  41.142  49.271  1.00  0.00     0.316 C 
HETATM    3  N   UNL     1      26.095  40.455  49.410  1.00  0.00    -0.338 N 
HETATM    4  O   UNL     1      24.117  40.951  48.365  1.00  0.00    -0.247 OA
HETATM    5  H   UNL     1      25.423  42.148  50.990  1.00  0.00     0.164 HD
HETATM    6  H   UNL     1      26.428  40.343  50.356  1.00  0.00     0.164 HD
ENDROOT
BRANCH   1   7
HETATM    7  C   UNL     1      23.552  42.890  50.309  1.00  0.00     0.164 C 
BRANCH   7   8
HETATM    8  C   UNL     1      23.838  44.358  50.193  1.00  0.00    -0.021 A 
HETATM    9  C   UNL     1      23.237  45.123  49.197  1.00  0.00     0.128 A 
HETATM   10  N   UNL     1      23.410  46.457  49.052  1.00  0.00    -0.235 NA
HETATM   11  C   UNL     1      24.218  47.073  49.949  1.00  0.00     0.186 A 
HETATM   12  C   UNL     1      24.877  46.395  50.972  1.00  0.00     0.087 A 
HETATM   13  C   UNL     1      24.681  45.019  51.091  1.00  0.00     0.038 A 
HETATM   14 CL   UNL     1      25.906  47.192  52.101  1.00  0.00    -0.080 Cl
BRANCH  11  15
HETATM   15  O   UNL     1      24.399  48.440  49.859  1.00  0.00    -0.333 OA
BRANCH  15  16
HETATM   16  C   UNL     1      23.258  49.149  49.370  1.00  0.00     0.181 C 
BRANCH  16  17
HETATM   17  C   UNL     1      23.665  49.932  48.111  1.00  0.00     0.002 C 
HETATM   18  C   UNL     1      25.184  50.049  48.022  1.00  0.00     0.011 C 
HETATM   19  C   UNL     1      23.021  51.321  48.080  1.00  0.00     0.011 C 
ENDBRANCH  16  17
ENDBRANCH  15  16
ENDBRANCH  11  15
ENDBRANCH   7   8
ENDBRANCH   1   7
BRANCH   3  20
HETATM   20  C   UNL     1      26.431  39.381  48.470  1.00  0.00     0.090 C 
HETATM   21  C   UNL     1      26.877  38.083  49.202  1.00  0.00     0.067 C 
HETATM   22  C   UNL     1      28.328  38.123  49.531  1.00  0.00    -0.013 A 
HETATM   23  C   UNL     1      29.207  39.027  48.979  1.00  0.00     0.035 A 
HETATM   24  C   UNL     1      29.128  37.316  50.357  1.00  0.00     0.148 A 
HETATM   25  N   UNL     1      30.438  38.725  49.477  1.00  0.00    -0.282 N 
HETATM   26  C   UNL     1      28.878  40.117  48.033  1.00  0.00     0.061 C 
HETATM   27  H   UNL     1      31.330  39.170  49.283  1.00  0.00     0.189 HD
HETATM   28  N   UNL     1      30.413  37.688  50.333  1.00  0.00    -0.187 NA
HETATM   29  C   UNL     1      27.478  39.871  47.437  1.00  0.00     0.031 C 
ENDBRANCH   3  20
TORSDOF 6
ENDMDL
MODEL 10
REMARK VINA RESULT:      -7.2      2.751      9.830
REMARK  6 active torsions:
REMARK  status: ('A' for Active; 'I' for Inactive)
REMARK    1  A    between atoms: C_2  and  C_3 
REMARK    2  A    between atoms: C_3  and  O_4 
REMARK    3  A    between atoms: O_4  and  C_5 
REMARK    4  A    between atoms: C_8  and  C_9 
REMARK    5  A    between atoms: C_9  and  N_10 
REMARK       I    between atoms: N_10  and  C_11 
REMARK       I    between atoms: C_11  and  N_12 
REMARK    6  A    between atoms: N_12  and  C_13 
ROOT
HETATM    1  N   UNL     1      26.122  46.745  50.641  1.00  0.00    -0.339 N 
HETATM    2  C   UNL     1      25.920  46.773  51.992  1.00  0.00     0.316 C 
HETATM    3  N   UNL     1      26.271  45.591  52.594  1.00  0.00    -0.338 N 
HETATM    4  O   UNL     1      25.439  47.726  52.589  1.00  0.00    -0.247 OA
HETATM    5  H   UNL     1      26.591  45.952  50.232  1.00  0.00     0.164 HD
HETATM    6  H   UNL     1      27.032  45.088  52.163  1.00  0.00     0.164 HD
ENDROOT
BRANCH   1   7
HETATM    7  C   UNL     1      25.882  47.914  49.828  1.00  0.00     0.164 C 
BRANCH   7   8
HETATM    8  C   UNL     1      24.430  48.061  49.478  1.00  0.00    -0.021 A 
HETATM    9  C   UNL     1      23.843  49.320  49.399  1.00  0.00     0.128 A 
HETATM   10  N   UNL     1      22.554  49.540  49.049  1.00  0.00    -0.235 NA
HETATM   11  C   UNL     1      21.803  48.450  48.754  1.00  0.00     0.186 A 
HETATM   12  C   UNL     1      22.294  47.148  48.818  1.00  0.00     0.087 A 
HETATM   13  C   UNL     1      23.625  46.956  49.186  1.00  0.00     0.038 A 
HETATM   14 CL   UNL     1      21.325  45.772  48.444  1.00  0.00    -0.080 Cl
BRANCH  11  15
HETATM   15  O   UNL     1      20.491  48.628  48.361  1.00  0.00    -0.333 OA
BRANCH  15  16
HETATM   16  C   UNL     1      20.295  49.715  47.454  1.00  0.00     0.181 C 
BRANCH  16  17
HETATM   17  C   UNL     1      19.191  50.630  48.010  1.00  0.00     0.002 C 
HETATM   18  C   UNL     1      19.798  51.901  48.599  1.00  0.00     0.011 C 
HETATM   19  C   UNL     1      18.340  49.911  49.059  1.00  0.00     0.011 C 
ENDBRANCH  16  17
ENDBRANCH  15  16
ENDBRANCH  11  15
ENDBRANCH   7   8
ENDBRANCH   1   7
BRANCH   3  20
HETATM   20  C   UNL     1      26.129  45.439  54.046  1.00  0.00     0.090 C 
HETATM   21  C   UNL     1      27.362  45.996  54.814  1.00  0.00     0.067 C 
HETATM   22  C   UNL     1      28.444  44.978  54.906  1.00  0.00    -0.013 A 
HETATM   23  C   UNL     1      28.253  43.642  54.639  1.00  0.00     0.035 A 
HETATM   24  C   UNL     1      29.791  45.070  55.294  1.00  0.00     0.148 A 
HETATM   25  N   UNL     1      29.443  43.025  54.876  1.00  0.00    -0.282 N 
HETATM   26  C   UNL     1      27.000  43.001  54.180  1.00  0.00     0.061 C 
HETATM   27  H   UNL     1      29.677  42.040  54.798  1.00  0.00     0.189 HD
HETATM   28  N   UNL     1      30.405  43.881  55.266  1.00  0.00    -0.187 NA
HETATM   29  C   UNL     1      25.819  43.964  54.410  1.00  0.00     0.031 C 
ENDBRANCH   3  20
TORSDOF 6
ENDMDL
