MODEL 1
REMARK VINA RESULT:      -9.9      0.000      0.000
REMARK  6 active torsions:
REMARK  status: ('A' for Active; 'I' for Inactive)
REMARK    1  A    between atoms: C_5  and  N_6 
REMARK       I    between atoms: N_6  and  C_7 
REMARK    2  A    between atoms: C_7  and  C_8 
REMARK    3  A    between atoms: C_8  and  N_9 
REMARK    4  A    between atoms: C_8  and  C_17 
REMARK       I    between atoms: N_9  and  C_10 
REMARK    5  A    between atoms: C_10  and  C_11 
REMARK    6  A    between atoms: C_17  and  C_18 
ROOT
HETATM    1  C   UNL     1      27.521  44.323  51.701  1.00  0.00     0.181 C 
ENDROOT
BRANCH   1   2
HETATM    2  C   UNL     1      26.953  45.185  50.540  1.00  0.00     0.245 C 
HETATM    3  N   UNL     1      26.292  46.325  50.982  1.00  0.00    -0.325 N 
HETATM    4  H   UNL     1      26.230  46.471  51.980  1.00  0.00     0.169 HD
HETATM    5  O   UNL     1      27.166  44.902  49.363  1.00  0.00    -0.271 OA
BRANCH   3   6
HETATM    6  C   UNL     1      25.734  47.358  50.198  1.00  0.00     0.034 A 
HETATM    7  C   UNL     1      26.480  48.325  49.524  1.00  0.00     0.030 A 
HETATM    8  C   UNL     1      25.842  49.333  48.790  1.00  0.00     0.009 A 
HETATM    9  C   UNL     1      24.447  49.390  48.717  1.00  0.00    -0.062 A 
HETATM   10  C   UNL     1      23.758  50.463  47.928  1.00  0.00     0.048 C 
HETATM   11  C   UNL     1      23.698  48.411  49.375  1.00  0.00     0.009 A 
HETATM   12  C   UNL     1      24.336  47.406  50.109  1.00  0.00     0.030 A 
ENDBRANCH   3   6
ENDBRANCH   1   2
BRANCH   1  13
HETATM   13  N   UNL     1      27.657  42.927  51.288  1.00  0.00    -0.342 N 
HETATM   14  C   UNL     1      26.601  42.104  50.963  1.00  0.00     0.276 C 
HETATM   15  O   UNL     1      25.426  42.431  51.096  1.00  0.00    -0.265 OA
HETATM   16  H   UNL     1      28.567  42.601  50.989  1.00  0.00     0.163 HD
BRANCH  14  17
HETATM   17  C   UNL     1      27.015  40.809  50.463  1.00  0.00     0.142 A 
HETATM   18  O   UNL     1      28.338  40.446  50.535  1.00  0.00    -0.317 OA
HETATM   19  C   UNL     1      28.442  39.200  50.009  1.00  0.00     0.143 A 
HETATM   20  C   UNL     1      27.211  38.744  49.600  1.00  0.00     0.027 A 
HETATM   21  C   UNL     1      26.291  39.779  49.890  1.00  0.00     0.045 A 
ENDBRANCH  14  17
ENDBRANCH   1  13
BRANCH   1  22
HETATM   22  C   UNL     1      26.774  44.539  53.031  1.00  0.00     0.075 C 
BRANCH  22  23
HETATM   23  C   UNL     1      27.620  45.193  54.086  1.00  0.00    -0.028 A 
HETATM   24  C   UNL     1      28.795  44.661  54.714  1.00  0.00    -0.002 A 
HETATM   25  C   UNL     1      29.228  45.600  55.651  1.00  0.00     0.042 A 
HETATM   26  C   UNL     1      29.524  43.460  54.583  1.00  0.00     0.014 A 
HETATM   27  C   UNL     1      30.346  45.396  56.468  1.00  0.00     0.030 A 
HETATM   28  N   UNL     1      28.366  46.669  55.582  1.00  0.00    -0.365 N 
HETATM   29  C   UNL     1      31.046  44.196  56.323  1.00  0.00     0.002 A 
HETATM   30  C   UNL     1      30.644  43.240  55.394  1.00  0.00     0.001 A 
HETATM   31  H   UNL     1      28.437  47.502  56.151  1.00  0.00     0.165 HD
HETATM   32  C   UNL     1      27.400  46.438  54.643  1.00  0.00     0.096 A 
ENDBRANCH  22  23
ENDBRANCH   1  22
TORSDOF 6
ENDMDL
MODEL 2
REMARK VINA RESULT:      -9.8      1.924      7.062
REMARK  6 active torsions:
REMARK  status: ('A' for Active; 'I' for Inactive)
REMARK    1  A    between atoms: C_5  and  N_6 
REMARK       I    between atoms: N_6  and  C_7 
REMARK    2  A    between atoms: C_7  and  C_8 
REMARK    3  A    between atoms: C_8  and  N_9 
REMARK    4  A    between atoms: C_8  and  C_17 
REMARK       I    between atoms: N_9  and  C_10 
REMARK    5  A    between atoms: C_10  and  C_11 
REMARK    6  A    between atoms: C_17  and  C_18 
ROOT
HETATM    1  C   UNL     1      25.999  44.641  51.850  1.00  0.00     0.181 C 
ENDROOT
BRANCH   1   2
HETATM    2  C   UNL     1      26.684  44.267  53.194  1.00  0.00     0.245 C 
HETATM    3  N   UNL     1      28.053  44.505  53.192  1.00  0.00    -0.325 N 
HETATM    4  H   UNL     1      28.462  44.870  52.342  1.00  0.00     0.169 HD
HETATM    5  O   UNL     1      26.032  43.887  54.165  1.00  0.00    -0.271 OA
BRANCH   3   6
HETATM    6  C   UNL     1      28.957  44.356  54.266  1.00  0.00     0.034 A 
HETATM    7  C   UNL     1      29.123  45.288  55.291  1.00  0.00     0.030 A 
HETATM    8  C   UNL     1      30.064  45.072  56.305  1.00  0.00     0.009 A 
HETATM    9  C   UNL     1      30.855  43.920  56.312  1.00  0.00    -0.062 A 
HETATM   10  C   UNL     1      31.861  43.679  57.397  1.00  0.00     0.048 C 
HETATM   11  C   UNL     1      30.677  42.976  55.297  1.00  0.00     0.009 A 
HETATM   12  C   UNL     1      29.738  43.193  54.284  1.00  0.00     0.030 A 
ENDBRANCH   3   6
ENDBRANCH   1   2
BRANCH   1  13
HETATM   13  N   UNL     1      25.940  43.482  50.960  1.00  0.00    -0.342 N 
HETATM   14  C   UNL     1      24.792  42.775  50.678  1.00  0.00     0.276 C 
HETATM   15  O   UNL     1      23.719  42.980  51.236  1.00  0.00    -0.265 OA
HETATM   16  H   UNL     1      26.713  43.323  50.327  1.00  0.00     0.163 HD
BRANCH  14  17
HETATM   17  C   UNL     1      24.981  41.754  49.667  1.00  0.00     0.142 A 
HETATM   18  O   UNL     1      24.016  41.566  48.707  1.00  0.00    -0.317 OA
HETATM   19  C   UNL     1      24.446  40.565  47.897  1.00  0.00     0.143 A 
HETATM   20  C   UNL     1      25.673  40.104  48.310  1.00  0.00     0.027 A 
HETATM   21  C   UNL     1      26.018  40.866  49.451  1.00  0.00     0.045 A 
ENDBRANCH  14  17
ENDBRANCH   1  13
BRANCH   1  22
HETATM   22  C   UNL     1      26.580  45.920  51.216  1.00  0.00     0.075 C 
BRANCH  22  23
HETATM   23  C   UNL     1      25.557  46.729  50.472  1.00  0.00    -0.028 A 
HETATM   24  C   UNL     1      25.783  47.897  49.672  1.00  0.00    -0.002 A 
HETATM   25  C   UNL     1      24.542  48.329  49.204  1.00  0.00     0.042 A 
HETATM   26  C   UNL     1      26.929  48.637  49.311  1.00  0.00     0.014 A 
HETATM   27  C   UNL     1      24.386  49.465  48.401  1.00  0.00     0.030 A 
HETATM   28  N   UNL     1      23.600  47.449  49.682  1.00  0.00    -0.365 N 
HETATM   29  C   UNL     1      25.536  50.184  48.065  1.00  0.00     0.002 A 
HETATM   30  C   UNL     1      26.791  49.777  48.511  1.00  0.00     0.001 A 
HETATM   31  H   UNL     1      22.607  47.515  49.501  1.00  0.00     0.165 HD
HETATM   32  C   UNL     1      24.197  46.482  50.441  1.00  0.00     0.096 A 
ENDBRANCH  22  23
ENDBRANCH   1  22
TORSDOF 6
ENDMDL
MODEL 3
REMARK VINA RESULT:      -9.7      1.493      2.068
REMARK  6 active torsions:
REMARK  status: ('A' for Active; 'I' for Inactive)
REMARK    1  A    between atoms: C_5  and  N_6 
REMARK       I    between atoms: N_6  and  C_7 
REMARK    2  A    between atoms: C_7  and  C_8 
REMARK    3  A    between atoms: C_8  and  N_9 
REMARK    4  A    between atoms: C_8  and  C_17 
REMARK       I    between atoms: N_9  and  C_10 
REMARK    5  A    between atoms: C_10  and  C_11 
REMARK    6  A    between atoms: C_17  and  C_18 
ROOT
HETATM    1  C   UNL     1      26.455  45.363  52.306  1.00  0.00     0.181 C 
ENDROOT
BRANCH   1   2
HETATM    2  C   UNL     1      25.707  46.650  51.862  1.00  0.00     0.245 C 
HETATM    3  N   UNL     1      25.517  46.722  50.487  1.00  0.00    -0.325 N 
HETATM    4  H   UNL     1      25.885  45.967  49.925  1.00  0.00     0.169 HD
HETATM    5  O   UNL     1      25.264  47.453  52.681  1.00  0.00    -0.271 OA
BRANCH   3   6
HETATM    6  C   UNL     1      24.808  47.707  49.764  1.00  0.00     0.034 A 
HETATM    7  C   UNL     1      23.435  47.671  49.523  1.00  0.00     0.030 A 
HETATM    8  C   UNL     1      22.818  48.677  48.771  1.00  0.00     0.009 A 
HETATM    9  C   UNL     1      23.563  49.737  48.247  1.00  0.00    -0.062 A 
HETATM   10  C   UNL     1      22.907  50.821  47.445  1.00  0.00     0.048 C 
HETATM   11  C   UNL     1      24.935  49.785  48.503  1.00  0.00     0.009 A 
HETATM   12  C   UNL     1      25.551  48.779  49.253  1.00  0.00     0.030 A 
ENDBRANCH   3   6
ENDBRANCH   1   2
BRANCH   1  13
HETATM   13  N   UNL     1      26.174  44.260  51.389  1.00  0.00    -0.342 N 
HETATM   14  C   UNL     1      26.836  44.048  50.200  1.00  0.00     0.276 C 
HETATM   15  O   UNL     1      27.655  44.834  49.735  1.00  0.00    -0.265 OA
HETATM   16  H   UNL     1      25.644  43.471  51.736  1.00  0.00     0.163 HD
BRANCH  14  17
HETATM   17  C   UNL     1      26.456  42.813  49.544  1.00  0.00     0.142 A 
HETATM   18  O   UNL     1      27.320  42.229  48.649  1.00  0.00    -0.317 OA
HETATM   19  C   UNL     1      26.723  41.097  48.195  1.00  0.00     0.143 A 
HETATM   20  C   UNL     1      25.491  40.934  48.781  1.00  0.00     0.027 A 
HETATM   21  C   UNL     1      25.315  42.038  49.648  1.00  0.00     0.045 A 
ENDBRANCH  14  17
ENDBRANCH   1  13
BRANCH   1  22
HETATM   22  C   UNL     1      26.254  45.037  53.799  1.00  0.00     0.075 C 
BRANCH  22  23
HETATM   23  C   UNL     1      27.440  45.396  54.648  1.00  0.00    -0.028 A 
HETATM   24  C   UNL     1      28.614  44.607  54.883  1.00  0.00    -0.002 A 
HETATM   25  C   UNL     1      29.430  45.325  55.758  1.00  0.00     0.042 A 
HETATM   26  C   UNL     1      29.055  43.341  54.443  1.00  0.00     0.014 A 
HETATM   27  C   UNL     1      30.658  44.839  56.222  1.00  0.00     0.030 A 
HETATM   28  N   UNL     1      28.790  46.511  56.029  1.00  0.00    -0.365 N 
HETATM   29  C   UNL     1      31.067  43.580  55.777  1.00  0.00     0.002 A 
HETATM   30  C   UNL     1      30.280  42.839  54.899  1.00  0.00     0.001 A 
HETATM   31  H   UNL     1      29.151  47.233  56.638  1.00  0.00     0.165 HD
HETATM   32  C   UNL     1      27.596  46.567  55.365  1.00  0.00     0.096 A 
ENDBRANCH  22  23
ENDBRANCH   1  22
TORSDOF 6
ENDMDL
MODEL 4
REMARK VINA RESULT:      -9.7      1.724      6.745
REMARK  6 active torsions:
REMARK  status: ('A' for Active; 'I' for Inactive)
REMARK    1  A    between atoms: C_5  and  N_6 
REMARK       I    between atoms: N_6  and  C_7 
REMARK    2  A    between atoms: C_7  and  C_8 
REMARK    3  A    between atoms: C_8  and  N_9 
REMARK    4  A    between atoms: C_8  and  C_17 
REMARK       I    between atoms: N_9  and  C_10 
REMARK    5  A    between atoms: C_10  and  C_11 
REMARK    6  A    between atoms: C_17  and  C_18 
ROOT
HETATM    1  C   UNL     1      27.219  42.977  51.500  1.00  0.00     0.181 C 
ENDROOT
BRANCH   1   2
HETATM    2  C   UNL     1      27.492  43.299  52.995  1.00  0.00     0.245 C 
HETATM    3  N   UNL     1      28.835  43.538  53.264  1.00  0.00    -0.325 N 
HETATM    4  H   UNL     1      29.485  43.465  52.493  1.00  0.00     0.169 HD
HETATM    5  O   UNL     1      26.577  43.411  53.808  1.00  0.00    -0.271 OA
BRANCH   3   6
HETATM    6  C   UNL     1      29.413  43.936  54.489  1.00  0.00     0.034 A 
HETATM    7  C   UNL     1      29.090  45.112  55.166  1.00  0.00     0.030 A 
HETATM    8  C   UNL     1      29.734  45.442  56.365  1.00  0.00     0.009 A 
HETATM    9  C   UNL     1      30.711  44.602  56.907  1.00  0.00    -0.062 A 
HETATM   10  C   UNL     1      31.400  44.947  58.193  1.00  0.00     0.048 C 
HETATM   11  C   UNL     1      31.021  43.414  56.240  1.00  0.00     0.009 A 
HETATM   12  C   UNL     1      30.379  43.086  55.043  1.00  0.00     0.030 A 
ENDBRANCH   3   6
ENDBRANCH   1   2
BRANCH   1  13
HETATM   13  N   UNL     1      27.983  41.805  51.076  1.00  0.00    -0.342 N 
HETATM   14  C   UNL     1      27.423  40.606  50.694  1.00  0.00     0.276 C 
HETATM   15  O   UNL     1      26.223  40.364  50.780  1.00  0.00    -0.265 OA
HETATM   16  H   UNL     1      28.952  41.933  50.813  1.00  0.00     0.163 HD
BRANCH  14  17
HETATM   17  C   UNL     1      28.393  39.651  50.196  1.00  0.00     0.142 A 
HETATM   18  O   UNL     1      29.174  38.954  51.085  1.00  0.00    -0.317 OA
HETATM   19  C   UNL     1      29.978  38.137  50.358  1.00  0.00     0.143 A 
HETATM   20  C   UNL     1      29.731  38.288  49.015  1.00  0.00     0.027 A 
HETATM   21  C   UNL     1      28.713  39.264  48.908  1.00  0.00     0.045 A 
ENDBRANCH  14  17
ENDBRANCH   1  13
BRANCH   1  22
HETATM   22  C   UNL     1      27.355  44.210  50.585  1.00  0.00     0.075 C 
BRANCH  22  23
HETATM   23  C   UNL     1      26.065  44.954  50.398  1.00  0.00    -0.028 A 
HETATM   24  C   UNL     1      25.896  46.310  49.964  1.00  0.00    -0.002 A 
HETATM   25  C   UNL     1      24.527  46.582  49.969  1.00  0.00     0.042 A 
HETATM   26  C   UNL     1      26.782  47.339  49.579  1.00  0.00     0.014 A 
HETATM   27  C   UNL     1      24.000  47.830  49.617  1.00  0.00     0.030 A 
HETATM   28  N   UNL     1      23.887  45.433  50.369  1.00  0.00    -0.365 N 
HETATM   29  C   UNL     1      24.899  48.834  49.248  1.00  0.00     0.002 A 
HETATM   30  C   UNL     1      26.271  48.594  49.227  1.00  0.00     0.001 A 
HETATM   31  H   UNL     1      22.885  45.337  50.465  1.00  0.00     0.165 HD
HETATM   32  C   UNL     1      24.799  44.448  50.626  1.00  0.00     0.096 A 
ENDBRANCH  22  23
ENDBRANCH   1  22
TORSDOF 6
ENDMDL
MODEL 5
REMARK VINA RESULT:      -9.5      1.805      6.232
REMARK  6 active torsions:
REMARK  status: ('A' for Active; 'I' for Inactive)
REMARK    1  A    between atoms: C_5  and  N_6 
REMARK       I    between atoms: N_6  and  C_7 
REMARK    2  A    between atoms: C_7  and  C_8 
REMARK    3  A    between atoms: C_8  and  N_9 
REMARK    4  A    between atoms: C_8  and  C_17 
REMARK       I    between atoms: N_9  and  C_10 
REMARK    5  A    between atoms: C_10  and  C_11 
REMARK    6  A    between atoms: C_17  and  C_18 
ROOT
HETATM    1  C   UNL     1      27.649  43.319  52.966  1.00  0.00     0.181 C 
ENDROOT
BRANCH   1   2
HETATM    2  C   UNL     1      27.695  41.870  52.407  1.00  0.00     0.245 C 
HETATM    3  N   UNL     1      27.389  41.799  51.053  1.00  0.00    -0.325 N 
HETATM    4  H   UNL     1      27.156  42.662  50.582  1.00  0.00     0.169 HD
HETATM    5  O   UNL     1      28.059  40.923  53.102  1.00  0.00    -0.271 OA
BRANCH   3   6
HETATM    6  C   UNL     1      27.419  40.659  50.220  1.00  0.00     0.034 A 
HETATM    7  C   UNL     1      26.375  39.741  50.104  1.00  0.00     0.030 A 
HETATM    8  C   UNL     1      26.502  38.621  49.273  1.00  0.00     0.009 A 
HETATM    9  C   UNL     1      27.673  38.400  48.544  1.00  0.00    -0.062 A 
HETATM   10  C   UNL     1      27.812  37.206  47.648  1.00  0.00     0.048 C 
HETATM   11  C   UNL     1      28.712  39.329  48.643  1.00  0.00     0.009 A 
HETATM   12  C   UNL     1      28.586  40.446  49.474  1.00  0.00     0.030 A 
ENDBRANCH   3   6
ENDBRANCH   1   2
BRANCH   1  13
HETATM   13  N   UNL     1      26.848  44.181  52.099  1.00  0.00    -0.342 N 
HETATM   14  C   UNL     1      25.571  44.608  52.390  1.00  0.00     0.276 C 
HETATM   15  O   UNL     1      24.932  44.212  53.360  1.00  0.00    -0.265 OA
HETATM   16  H   UNL     1      27.319  44.695  51.365  1.00  0.00     0.163 HD
BRANCH  14  17
HETATM   17  C   UNL     1      25.049  45.558  51.428  1.00  0.00     0.142 A 
HETATM   18  O   UNL     1      24.298  45.107  50.370  1.00  0.00    -0.317 OA
HETATM   19  C   UNL     1      23.939  46.194  49.641  1.00  0.00     0.143 A 
HETATM   20  C   UNL     1      24.439  47.342  50.207  1.00  0.00     0.027 A 
HETATM   21  C   UNL     1      25.157  46.935  51.357  1.00  0.00     0.045 A 
ENDBRANCH  14  17
ENDBRANCH   1  13
BRANCH   1  22
HETATM   22  C   UNL     1      29.043  43.869  53.324  1.00  0.00     0.075 C 
BRANCH  22  23
HETATM   23  C   UNL     1      29.050  44.692  54.580  1.00  0.00    -0.028 A 
HETATM   24  C   UNL     1      29.910  44.540  55.717  1.00  0.00    -0.002 A 
HETATM   25  C   UNL     1      29.535  45.502  56.655  1.00  0.00     0.042 A 
HETATM   26  C   UNL     1      30.967  43.663  56.043  1.00  0.00     0.014 A 
HETATM   27  C   UNL     1      30.156  45.627  57.904  1.00  0.00     0.030 A 
HETATM   28  N   UNL     1      28.503  46.225  56.105  1.00  0.00    -0.365 N 
HETATM   29  C   UNL     1      31.193  44.741  58.204  1.00  0.00     0.002 A 
HETATM   30  C   UNL     1      31.597  43.773  57.288  1.00  0.00     0.001 A 
HETATM   31  H   UNL     1      28.030  46.992  56.564  1.00  0.00     0.165 HD
HETATM   32  C   UNL     1      28.206  45.751  54.858  1.00  0.00     0.096 A 
ENDBRANCH  22  23
ENDBRANCH   1  22
TORSDOF 6
ENDMDL
MODEL 6
REMARK VINA RESULT:      -9.5      0.968      1.399
REMARK  6 active torsions:
REMARK  status: ('A' for Active; 'I' for Inactive)
REMARK    1  A    between atoms: C_5  and  N_6 
REMARK       I    between atoms: N_6  and  C_7 
REMARK    2  A    between atoms: C_7  and  C_8 
REMARK    3  A    between atoms: C_8  and  N_9 
REMARK    4  A    between atoms: C_8  and  C_17 
REMARK       I    between atoms: N_9  and  C_10 
REMARK    5  A    between atoms: C_10  and  C_11 
REMARK    6  A    between atoms: C_17  and  C_18 
ROOT
HETATM    1  C   UNL     1      27.477  43.940  51.706  1.00  0.00     0.181 C 
ENDROOT
BRANCH   1   2
HETATM    2  C   UNL     1      26.758  44.743  50.588  1.00  0.00     0.245 C 
HETATM    3  N   UNL     1      25.457  45.099  50.923  1.00  0.00    -0.325 N 
HETATM    4  H   UNL     1      25.109  44.797  51.823  1.00  0.00     0.169 HD
HETATM    5  O   UNL     1      27.345  45.088  49.563  1.00  0.00    -0.271 OA
BRANCH   3   6
HETATM    6  C   UNL     1      24.560  45.895  50.178  1.00  0.00     0.034 A 
HETATM    7  C   UNL     1      23.610  45.389  49.291  1.00  0.00     0.030 A 
HETATM    8  C   UNL     1      22.778  46.255  48.570  1.00  0.00     0.009 A 
HETATM    9  C   UNL     1      22.881  47.640  48.725  1.00  0.00    -0.062 A 
HETATM   10  C   UNL     1      21.990  48.573  47.960  1.00  0.00     0.048 C 
HETATM   11  C   UNL     1      23.820  48.148  49.627  1.00  0.00     0.009 A 
HETATM   12  C   UNL     1      24.651  47.283  50.345  1.00  0.00     0.030 A 
ENDBRANCH   3   6
ENDBRANCH   1   2
BRANCH   1  13
HETATM   13  N   UNL     1      27.701  42.557  51.286  1.00  0.00    -0.342 N 
HETATM   14  C   UNL     1      26.711  41.705  50.850  1.00  0.00     0.276 C 
HETATM   15  O   UNL     1      25.517  41.989  50.878  1.00  0.00    -0.265 OA
HETATM   16  H   UNL     1      28.647  42.268  51.069  1.00  0.00     0.163 HD
BRANCH  14  17
HETATM   17  C   UNL     1      27.215  40.434  50.371  1.00  0.00     0.142 A 
HETATM   18  O   UNL     1      28.541  40.122  50.549  1.00  0.00    -0.317 OA
HETATM   19  C   UNL     1      28.738  38.888  50.018  1.00  0.00     0.143 A 
HETATM   20  C   UNL     1      27.565  38.392  49.503  1.00  0.00     0.027 A 
HETATM   21  C   UNL     1      26.583  39.387  49.727  1.00  0.00     0.045 A 
ENDBRANCH  14  17
ENDBRANCH   1  13
BRANCH   1  22
HETATM   22  C   UNL     1      26.810  44.102  53.086  1.00  0.00     0.075 C 
BRANCH  22  23
HETATM   23  C   UNL     1      27.639  44.893  54.055  1.00  0.00    -0.028 A 
HETATM   24  C   UNL     1      28.835  44.472  54.725  1.00  0.00    -0.002 A 
HETATM   25  C   UNL     1      29.241  45.521  55.551  1.00  0.00     0.042 A 
HETATM   26  C   UNL     1      29.606  43.290  54.716  1.00  0.00     0.014 A 
HETATM   27  C   UNL     1      30.371  45.445  56.374  1.00  0.00     0.030 A 
HETATM   28  N   UNL     1      28.342  46.546  55.377  1.00  0.00    -0.365 N 
HETATM   29  C   UNL     1      31.112  44.261  56.352  1.00  0.00     0.002 A 
HETATM   30  C   UNL     1      30.738  43.197  55.535  1.00  0.00     0.001 A 
HETATM   31  H   UNL     1      28.387  47.437  55.852  1.00  0.00     0.165 HD
HETATM   32  C   UNL     1      27.378  46.183  54.478  1.00  0.00     0.096 A 
ENDBRANCH  22  23
ENDBRANCH   1  22
TORSDOF 6
ENDMDL
MODEL 7
REMARK VINA RESULT:      -9.4      1.811      7.720
REMARK  6 active torsions:
REMARK  status: ('A' for Active; 'I' for Inactive)
REMARK    1  A    between atoms: C_5  and  N_6 
REMARK       I    between atoms: N_6  and  C_7 
REMARK    2  A    between atoms: C_7  and  C_8 
REMARK    3  A    between atoms: C_8  and  N_9 
REMARK    4  A    between atoms: C_8  and  C_17 
REMARK       I    between atoms: N_9  and  C_10 
REMARK    5  A    between atoms: C_10  and  C_11 
REMARK    6  A    between atoms: C_17  and  C_18 
ROOT
HETATM    1  C   UNL     1      26.166  44.782  51.593  1.00  0.00     0.181 C 
ENDROOT
BRANCH   1   2
HETATM    2  C   UNL     1      26.848  44.934  52.981  1.00  0.00     0.245 C 
HETATM    3  N   UNL     1      28.029  44.209  53.090  1.00  0.00    -0.325 N 
HETATM    4  H   UNL     1      28.313  43.658  52.293  1.00  0.00     0.169 HD
HETATM    5  O   UNL     1      26.404  45.698  53.836  1.00  0.00    -0.271 OA
BRANCH   3   6
HETATM    6  C   UNL     1      28.932  44.190  54.175  1.00  0.00     0.034 A 
HETATM    7  C   UNL     1      29.091  45.234  55.086  1.00  0.00     0.030 A 
HETATM    8  C   UNL     1      30.033  45.141  56.118  1.00  0.00     0.009 A 
HETATM    9  C   UNL     1      30.831  44.003  56.258  1.00  0.00    -0.062 A 
HETATM   10  C   UNL     1      31.838  43.894  57.364  1.00  0.00     0.048 C 
HETATM   11  C   UNL     1      30.660  42.947  55.358  1.00  0.00     0.009 A 
HETATM   12  C   UNL     1      29.721  43.042  54.326  1.00  0.00     0.030 A 
ENDBRANCH   3   6
ENDBRANCH   1   2
BRANCH   1  13
HETATM   13  N   UNL     1      25.996  46.086  50.955  1.00  0.00    -0.342 N 
HETATM   14  C   UNL     1      26.661  46.491  49.819  1.00  0.00     0.276 C 
HETATM   15  O   UNL     1      27.553  45.835  49.290  1.00  0.00    -0.265 OA
HETATM   16  H   UNL     1      25.184  46.638  51.201  1.00  0.00     0.163 HD
BRANCH  14  17
HETATM   17  C   UNL     1      26.216  47.776  49.320  1.00  0.00     0.142 A 
HETATM   18  O   UNL     1      27.104  48.591  48.660  1.00  0.00    -0.317 OA
HETATM   19  C   UNL     1      26.429  49.712  48.301  1.00  0.00     0.143 A 
HETATM   20  C   UNL     1      25.120  49.640  48.711  1.00  0.00     0.027 A 
HETATM   21  C   UNL     1      24.980  48.395  49.369  1.00  0.00     0.045 A 
ENDBRANCH  14  17
ENDBRANCH   1  13
BRANCH   1  22
HETATM   22  C   UNL     1      24.897  43.909  51.640  1.00  0.00     0.075 C 
BRANCH  22  23
HETATM   23  C   UNL     1      24.914  42.786  50.642  1.00  0.00    -0.028 A 
HETATM   24  C   UNL     1      25.911  41.766  50.495  1.00  0.00    -0.002 A 
HETATM   25  C   UNL     1      25.527  40.961  49.422  1.00  0.00     0.042 A 
HETATM   26  C   UNL     1      27.112  41.458  51.168  1.00  0.00     0.014 A 
HETATM   27  C   UNL     1      26.287  39.870  48.982  1.00  0.00     0.030 A 
HETATM   28  N   UNL     1      24.336  41.457  48.948  1.00  0.00    -0.365 N 
HETATM   29  C   UNL     1      27.477  39.592  49.660  1.00  0.00     0.002 A 
HETATM   30  C   UNL     1      27.886  40.373  50.739  1.00  0.00     0.001 A 
HETATM   31  H   UNL     1      23.822  41.069  48.168  1.00  0.00     0.165 HD
HETATM   32  C   UNL     1      23.956  42.550  49.675  1.00  0.00     0.096 A 
ENDBRANCH  22  23
ENDBRANCH   1  22
TORSDOF 6
ENDMDL
MODEL 8
REMARK VINA RESULT:      -9.3      1.779      7.721
REMARK  6 active torsions:
REMARK  status: ('A' for Active; 'I' for Inactive)
REMARK    1  A    between atoms: C_5  and  N_6 
REMARK       I    between atoms: N_6  and  C_7 
REMARK    2  A    between atoms: C_7  and  C_8 
REMARK    3  A    between atoms: C_8  and  N_9 
REMARK    4  A    between atoms: C_8  and  C_17 
REMARK       I    between atoms: N_9  and  C_10 
REMARK    5  A    between atoms: C_10  and  C_11 
REMARK    6  A    between atoms: C_17  and  C_18 
ROOT
HETATM    1  C   UNL     1      27.175  43.259  51.607  1.00  0.00     0.181 C 
ENDROOT
BRANCH   1   2
HETATM    2  C   UNL     1      27.566  43.340  53.108  1.00  0.00     0.245 C 
HETATM    3  N   UNL     1      28.848  43.839  53.311  1.00  0.00    -0.325 N 
HETATM    4  H   UNL     1      29.391  44.076  52.492  1.00  0.00     0.169 HD
HETATM    5  O   UNL     1      26.763  43.068  53.999  1.00  0.00    -0.271 OA
BRANCH   3   6
HETATM    6  C   UNL     1      29.481  44.118  54.542  1.00  0.00     0.034 A 
HETATM    7  C   UNL     1      30.456  43.310  55.126  1.00  0.00     0.030 A 
HETATM    8  C   UNL     1      31.012  43.649  56.366  1.00  0.00     0.009 A 
HETATM    9  C   UNL     1      30.602  44.801  57.042  1.00  0.00    -0.062 A 
HETATM   10  C   UNL     1      31.197  45.173  58.368  1.00  0.00     0.048 C 
HETATM   11  C   UNL     1      29.639  45.622  56.450  1.00  0.00     0.009 A 
HETATM   12  C   UNL     1      29.083  45.282  55.212  1.00  0.00     0.030 A 
ENDBRANCH   3   6
ENDBRANCH   1   2
BRANCH   1  13
HETATM   13  N   UNL     1      26.366  44.414  51.220  1.00  0.00    -0.342 N 
HETATM   14  C   UNL     1      26.659  45.253  50.168  1.00  0.00     0.276 C 
HETATM   15  O   UNL     1      27.696  45.180  49.515  1.00  0.00    -0.265 OA
HETATM   16  H   UNL     1      25.420  44.478  51.574  1.00  0.00     0.163 HD
BRANCH  14  17
HETATM   17  C   UNL     1      25.630  46.242  49.918  1.00  0.00     0.142 A 
HETATM   18  O   UNL     1      25.985  47.555  49.724  1.00  0.00    -0.317 OA
HETATM   19  C   UNL     1      24.841  48.252  49.508  1.00  0.00     0.143 A 
HETATM   20  C   UNL     1      23.750  47.417  49.553  1.00  0.00     0.027 A 
HETATM   21  C   UNL     1      24.255  46.122  49.819  1.00  0.00     0.045 A 
ENDBRANCH  14  17
ENDBRANCH   1  13
BRANCH   1  22
HETATM   22  C   UNL     1      26.586  41.890  51.213  1.00  0.00     0.075 C 
BRANCH  22  23
HETATM   23  C   UNL     1      27.632  40.832  51.011  1.00  0.00    -0.028 A 
HETATM   24  C   UNL     1      27.839  40.022  49.846  1.00  0.00    -0.002 A 
HETATM   25  C   UNL     1      28.899  39.158  50.122  1.00  0.00     0.042 A 
HETATM   26  C   UNL     1      27.213  39.934  48.584  1.00  0.00     0.014 A 
HETATM   27  C   UNL     1      29.360  38.206  49.205  1.00  0.00     0.030 A 
HETATM   28  N   UNL     1      29.335  39.444  51.394  1.00  0.00    -0.365 N 
HETATM   29  C   UNL     1      28.718  38.133  47.966  1.00  0.00     0.002 A 
HETATM   30  C   UNL     1      27.660  38.985  47.657  1.00  0.00     0.001 A 
HETATM   31  H   UNL     1      30.097  38.970  51.860  1.00  0.00     0.165 HD
HETATM   32  C   UNL     1      28.585  40.449  51.937  1.00  0.00     0.096 A 
ENDBRANCH  22  23
ENDBRANCH   1  22
TORSDOF 6
ENDMDL
MODEL 9
REMARK VINA RESULT:      -9.2      2.367      2.788
REMARK  6 active torsions:
REMARK  status: ('A' for Active; 'I' for Inactive)
REMARK    1  A    between atoms: C_5  and  N_6 
REMARK       I    between atoms: N_6  and  C_7 
REMARK    2  A    between atoms: C_7  and  C_8 
REMARK    3  A    between atoms: C_8  and  N_9 
REMARK    4  A    between atoms: C_8  and  C_17 
REMARK       I    between atoms: N_9  and  C_10 
REMARK    5  A    between atoms: C_10  and  C_11 
REMARK    6  A    between atoms: C_17  and  C_18 
ROOT
HETATM    1  C   UNL     1      26.439  44.733  51.832  1.00  0.00     0.181 C 
ENDROOT
BRANCH   1   2
HETATM    2  C   UNL     1      25.891  46.160  51.557  1.00  0.00     0.245 C 
HETATM    3  N   UNL     1      25.686  46.414  50.206  1.00  0.00    -0.325 N 
HETATM    4  H   UNL     1      25.922  45.679  49.553  1.00  0.00     0.169 HD
HETATM    5  O   UNL     1      25.594  46.924  52.474  1.00  0.00    -0.271 OA
BRANCH   3   6
HETATM    6  C   UNL     1      25.124  47.569  49.619  1.00  0.00     0.034 A 
HETATM    7  C   UNL     1      25.864  48.663  49.172  1.00  0.00     0.030 A 
HETATM    8  C   UNL     1      25.221  49.782  48.627  1.00  0.00     0.009 A 
HETATM    9  C   UNL     1      23.828  49.825  48.520  1.00  0.00    -0.062 A 
HETATM   10  C   UNL     1      23.134  51.017  47.933  1.00  0.00     0.048 C 
HETATM   11  C   UNL     1      23.087  48.721  48.951  1.00  0.00     0.009 A 
HETATM   12  C   UNL     1      23.729  47.605  49.496  1.00  0.00     0.030 A 
ENDBRANCH   3   6
ENDBRANCH   1   2
BRANCH   1  13
HETATM   13  N   UNL     1      25.838  43.763  50.919  1.00  0.00    -0.342 N 
HETATM   14  C   UNL     1      24.482  43.570  50.770  1.00  0.00     0.276 C 
HETATM   15  O   UNL     1      23.641  44.118  51.476  1.00  0.00    -0.265 OA
HETATM   16  H   UNL     1      26.413  43.377  50.181  1.00  0.00     0.163 HD
BRANCH  14  17
HETATM   17  C   UNL     1      24.147  42.643  49.708  1.00  0.00     0.142 A 
HETATM   18  O   UNL     1      22.828  42.352  49.454  1.00  0.00    -0.317 OA
HETATM   19  C   UNL     1      22.803  41.474  48.420  1.00  0.00     0.143 A 
HETATM   20  C   UNL     1      24.079  41.192  47.994  1.00  0.00     0.027 A 
HETATM   21  C   UNL     1      24.946  41.942  48.824  1.00  0.00     0.045 A 
ENDBRANCH  14  17
ENDBRANCH   1  13
BRANCH   1  22
HETATM   22  C   UNL     1      26.384  44.346  53.323  1.00  0.00     0.075 C 
BRANCH  22  23
HETATM   23  C   UNL     1      27.616  43.629  53.794  1.00  0.00    -0.028 A 
HETATM   24  C   UNL     1      28.643  44.137  54.658  1.00  0.00    -0.002 A 
HETATM   25  C   UNL     1      29.604  43.135  54.795  1.00  0.00     0.042 A 
HETATM   26  C   UNL     1      28.851  45.362  55.326  1.00  0.00     0.014 A 
HETATM   27  C   UNL     1      30.766  43.298  55.560  1.00  0.00     0.030 A 
HETATM   28  N   UNL     1      29.172  42.054  54.064  1.00  0.00    -0.365 N 
HETATM   29  C   UNL     1      30.952  44.523  56.204  1.00  0.00     0.002 A 
HETATM   30  C   UNL     1      30.009  45.542  56.092  1.00  0.00     0.001 A 
HETATM   31  H   UNL     1      29.672  41.179  53.981  1.00  0.00     0.165 HD
HETATM   32  C   UNL     1      27.978  42.337  53.462  1.00  0.00     0.096 A 
ENDBRANCH  22  23
ENDBRANCH   1  22
TORSDOF 6
ENDMDL
MODEL 10
REMARK VINA RESULT:      -9.0      2.360      5.921
REMARK  6 active torsions:
REMARK  status: ('A' for Active; 'I' for Inactive)
REMARK    1  A    between atoms: C_5  and  N_6 
REMARK       I    between atoms: N_6  and  C_7 
REMARK    2  A    between atoms: C_7  and  C_8 
REMARK    3  A    between atoms: C_8  and  N_9 
REMARK    4  A    between atoms: C_8  and  C_17 
REMARK       I    between atoms: N_9  and  C_10 
REMARK    5  A    between atoms: C_10  and  C_11 
REMARK    6  A    between atoms: C_17  and  C_18 
ROOT
HETATM    1  C   UNL     1      25.933  44.725  51.592  1.00  0.00     0.181 C 
ENDROOT
BRANCH   1   2
HETATM    2  C   UNL     1      24.988  43.650  50.989  1.00  0.00     0.245 C 
HETATM    3  N   UNL     1      25.341  43.276  49.697  1.00  0.00    -0.325 N 
HETATM    4  H   UNL     1      26.139  43.736  49.281  1.00  0.00     0.169 HD
HETATM    5  O   UNL     1      24.086  43.140  51.651  1.00  0.00    -0.271 OA
BRANCH   3   6
HETATM    6  C   UNL     1      24.751  42.274  48.896  1.00  0.00     0.034 A 
HETATM    7  C   UNL     1      25.427  41.155  48.410  1.00  0.00     0.030 A 
HETATM    8  C   UNL     1      24.770  40.223  47.598  1.00  0.00     0.009 A 
HETATM    9  C   UNL     1      23.425  40.394  47.258  1.00  0.00    -0.062 A 
HETATM   10  C   UNL     1      22.713  39.397  46.393  1.00  0.00     0.048 C 
HETATM   11  C   UNL     1      22.740  41.504  47.760  1.00  0.00     0.009 A 
HETATM   12  C   UNL     1      23.398  42.435  48.570  1.00  0.00     0.030 A 
ENDBRANCH   3   6
ENDBRANCH   1   2
BRANCH   1  13
HETATM   13  N   UNL     1      26.060  45.867  50.687  1.00  0.00    -0.342 N 
HETATM   14  C   UNL     1      25.625  47.141  50.975  1.00  0.00     0.276 C 
HETATM   15  O   UNL     1      24.982  47.423  51.981  1.00  0.00    -0.265 OA
HETATM   16  H   UNL     1      26.706  45.795  49.911  1.00  0.00     0.163 HD
BRANCH  14  17
HETATM   17  C   UNL     1      25.987  48.114  49.964  1.00  0.00     0.142 A 
HETATM   18  O   UNL     1      25.006  48.874  49.373  1.00  0.00    -0.317 OA
HETATM   19  C   UNL     1      25.617  49.694  48.481  1.00  0.00     0.143 A 
HETATM   20  C   UNL     1      26.975  49.486  48.484  1.00  0.00     0.027 A 
HETATM   21  C   UNL     1      27.216  48.467  49.437  1.00  0.00     0.045 A 
ENDBRANCH  14  17
ENDBRANCH   1  13
BRANCH   1  22
HETATM   22  C   UNL     1      27.267  44.139  52.092  1.00  0.00     0.075 C 
BRANCH  22  23
HETATM   23  C   UNL     1      27.741  44.758  53.376  1.00  0.00    -0.028 A 
HETATM   24  C   UNL     1      28.866  44.361  54.171  1.00  0.00    -0.002 A 
HETATM   25  C   UNL     1      28.903  45.198  55.288  1.00  0.00     0.042 A 
HETATM   26  C   UNL     1      29.852  43.359  54.053  1.00  0.00     0.014 A 
HETATM   27  C   UNL     1      29.868  45.078  56.294  1.00  0.00     0.030 A 
HETATM   28  N   UNL     1      27.856  46.081  55.167  1.00  0.00    -0.365 N 
HETATM   29  C   UNL     1      30.827  44.072  56.157  1.00  0.00     0.002 A 
HETATM   30  C   UNL     1      30.823  43.223  55.052  1.00  0.00     0.001 A 
HETATM   31  H   UNL     1      27.637  46.807  55.836  1.00  0.00     0.165 HD
HETATM   32  C   UNL     1      27.154  45.830  54.022  1.00  0.00     0.096 A 
ENDBRANCH  22  23
ENDBRANCH   1  22
TORSDOF 6
ENDMDL
