MODEL 1
REMARK VINA RESULT:      -9.7      0.000      0.000
REMARK  5 active torsions:
REMARK  status: ('A' for Active; 'I' for Inactive)
REMARK    1  A    between atoms: C_2  and  C_3 
REMARK    2  A    between atoms: C_4  and  N_5 
REMARK    3  A    between atoms: N_5  and  C_6 
REMARK    4  A    between atoms: C_7  and  C_8 
REMARK    5  A    between atoms: C_11  and  C_12 
ROOT
HETATM    1  C   UNL     1      24.916  44.598  51.192  1.00  0.00     0.113 C 
HETATM    2  C   UNL     1      25.670  43.491  51.045  1.00  0.00     0.082 C 
HETATM    3  C   UNL     1      25.219  42.383  50.107  1.00  0.00     0.024 C 
HETATM    4  N   UNL     1      24.846  41.463  49.329  1.00  0.00    -0.096 N 
ENDROOT
BRANCH   2   5
HETATM    5  C   UNL     1      26.845  43.310  51.820  1.00  0.00     0.119 A 
HETATM    6  S   UNL     1      27.973  42.065  51.403  1.00  0.00    -0.078 SA
HETATM    7  C   UNL     1      28.966  42.521  52.722  1.00  0.00     0.084 A 
HETATM    8  C   UNL     1      28.397  43.578  53.402  1.00  0.00     0.075 A 
HETATM    9  N   UNL     1      27.195  44.022  52.874  1.00  0.00    -0.239 NA
BRANCH   8  10
HETATM   10  C   UNL     1      28.983  44.228  54.571  1.00  0.00    -0.005 A 
HETATM   11  C   UNL     1      30.082  43.632  55.208  1.00  0.00     0.039 A 
HETATM   12  C   UNL     1      30.671  44.225  56.330  1.00  0.00     0.056 A 
HETATM   13 CL   UNL     1      32.016  43.417  57.056  1.00  0.00    -0.083 Cl
HETATM   14  C   UNL     1      30.167  45.431  56.825  1.00  0.00     0.055 A 
HETATM   15 CL   UNL     1      30.841  46.224  58.204  1.00  0.00    -0.083 Cl
HETATM   16  C   UNL     1      29.079  46.037  56.194  1.00  0.00     0.026 A 
HETATM   17  C   UNL     1      28.490  45.439  55.073  1.00  0.00     0.015 A 
ENDBRANCH   8  10
ENDBRANCH   2   5
BRANCH   1  18
HETATM   18  N   UNL     1      23.756  44.938  50.535  1.00  0.00    -0.364 N 
HETATM   19  H   UNL     1      22.885  44.494  50.852  1.00  0.00     0.165 HD
BRANCH  18  20
HETATM   20  C   UNL     1      23.512  46.104  49.769  1.00  0.00     0.048 A 
HETATM   21  C   UNL     1      22.572  46.068  48.697  1.00  0.00     0.039 A 
HETATM   22  C   UNL     1      22.345  47.190  47.885  1.00  0.00     0.057 A 
HETATM   23  C   UNL     1      23.071  48.328  48.154  1.00  0.00     0.106 A 
HETATM   24  C   UNL     1      23.993  48.375  49.171  1.00  0.00     0.107 A 
HETATM   25  O   UNL     1      22.978  49.507  47.484  1.00  0.00    -0.323 OA
HETATM   26  C   UNL     1      24.242  47.288  49.982  1.00  0.00     0.070 A 
HETATM   27  O   UNL     1      24.593  49.591  49.271  1.00  0.00    -0.323 OA
HETATM   28  C   UNL     1      23.950  50.303  48.194  1.00  0.00     0.352 A 
BRANCH  21  29
HETATM   29  C   UNL     1      21.818  44.815  48.429  1.00  0.00     0.158 C 
HETATM   30  C   UNL     1      22.210  43.983  47.236  1.00  0.00     0.097 C 
HETATM   31  O   UNL     1      20.896  44.492  49.179  1.00  0.00    -0.293 OA
ENDBRANCH  21  29
ENDBRANCH  18  20
ENDBRANCH   1  18
TORSDOF 5
ENDMDL
MODEL 2
REMARK VINA RESULT:      -9.6      2.609      4.243
REMARK  5 active torsions:
REMARK  status: ('A' for Active; 'I' for Inactive)
REMARK    1  A    between atoms: C_2  and  C_3 
REMARK    2  A    between atoms: C_4  and  N_5 
REMARK    3  A    between atoms: N_5  and  C_6 
REMARK    4  A    between atoms: C_7  and  C_8 
REMARK    5  A    between atoms: C_11  and  C_12 
ROOT
HETATM    1  C   UNL     1      23.618  46.629  49.436  1.00  0.00     0.113 C 
HETATM    2  C   UNL     1      24.790  46.885  50.049  1.00  0.00     0.082 C 
HETATM    3  C   UNL     1      25.678  48.014  49.552  1.00  0.00     0.024 C 
HETATM    4  N   UNL     1      26.416  48.950  49.138  1.00  0.00    -0.096 N 
ENDROOT
BRANCH   2   5
HETATM    5  C   UNL     1      25.245  46.060  51.110  1.00  0.00     0.119 A 
HETATM    6  S   UNL     1      24.603  44.463  51.300  1.00  0.00    -0.078 SA
HETATM    7  C   UNL     1      25.601  44.222  52.671  1.00  0.00     0.084 A 
HETATM    8  C   UNL     1      26.357  45.351  52.912  1.00  0.00     0.075 A 
HETATM    9  N   UNL     1      26.151  46.386  52.012  1.00  0.00    -0.239 NA
BRANCH   8  10
HETATM   10  C   UNL     1      27.327  45.489  53.995  1.00  0.00    -0.005 A 
HETATM   11  C   UNL     1      28.332  44.520  54.142  1.00  0.00     0.039 A 
HETATM   12  C   UNL     1      29.280  44.618  55.166  1.00  0.00     0.056 A 
HETATM   13 CL   UNL     1      30.476  43.375  55.277  1.00  0.00    -0.083 Cl
HETATM   14  C   UNL     1      29.236  45.695  56.055  1.00  0.00     0.055 A 
HETATM   15 CL   UNL     1      30.371  45.886  57.342  1.00  0.00    -0.083 Cl
HETATM   16  C   UNL     1      28.245  46.669  55.913  1.00  0.00     0.026 A 
HETATM   17  C   UNL     1      27.296  46.567  54.888  1.00  0.00     0.015 A 
ENDBRANCH   8  10
ENDBRANCH   2   5
BRANCH   1  18
HETATM   18  N   UNL     1      23.026  47.312  48.400  1.00  0.00    -0.364 N 
HETATM   19  H   UNL     1      23.366  47.118  47.449  1.00  0.00     0.165 HD
BRANCH  18  20
HETATM   20  C   UNL     1      21.751  47.931  48.395  1.00  0.00     0.048 A 
HETATM   21  C   UNL     1      21.649  49.349  48.295  1.00  0.00     0.039 A 
HETATM   22  C   UNL     1      20.405  49.998  48.340  1.00  0.00     0.057 A 
HETATM   23  C   UNL     1      19.284  49.215  48.494  1.00  0.00     0.106 A 
HETATM   24  C   UNL     1      19.365  47.848  48.609  1.00  0.00     0.107 A 
HETATM   25  O   UNL     1      18.002  49.664  48.548  1.00  0.00    -0.323 OA
HETATM   26  C   UNL     1      20.573  47.184  48.574  1.00  0.00     0.070 A 
HETATM   27  O   UNL     1      18.144  47.266  48.746  1.00  0.00    -0.323 OA
HETATM   28  C   UNL     1      17.283  48.423  48.713  1.00  0.00     0.352 A 
BRANCH  21  29
HETATM   29  C   UNL     1      22.884  50.162  48.144  1.00  0.00     0.158 C 
HETATM   30  C   UNL     1      23.153  51.252  49.148  1.00  0.00     0.097 C 
HETATM   31  O   UNL     1      23.651  49.930  47.208  1.00  0.00    -0.293 OA
ENDBRANCH  21  29
ENDBRANCH  18  20
ENDBRANCH   1  18
TORSDOF 5
ENDMDL
MODEL 3
REMARK VINA RESULT:      -9.4      5.403      9.517
REMARK  5 active torsions:
REMARK  status: ('A' for Active; 'I' for Inactive)
REMARK    1  A    between atoms: C_2  and  C_3 
REMARK    2  A    between atoms: C_4  and  N_5 
REMARK    3  A    between atoms: N_5  and  C_6 
REMARK    4  A    between atoms: C_7  and  C_8 
REMARK    5  A    between atoms: C_11  and  C_12 
ROOT
HETATM    1  C   UNL     1      26.416  45.649  52.402  1.00  0.00     0.113 C 
HETATM    2  C   UNL     1      25.545  45.598  51.375  1.00  0.00     0.082 C 
HETATM    3  C   UNL     1      24.876  44.282  51.010  1.00  0.00     0.024 C 
HETATM    4  N   UNL     1      24.321  43.191  50.707  1.00  0.00    -0.096 N 
ENDROOT
BRANCH   2   5
HETATM    5  C   UNL     1      25.304  46.745  50.576  1.00  0.00     0.119 A 
HETATM    6  S   UNL     1      26.625  47.556  49.805  1.00  0.00    -0.078 SA
HETATM    7  C   UNL     1      25.536  48.694  49.132  1.00  0.00     0.084 A 
HETATM    8  C   UNL     1      24.244  48.405  49.523  1.00  0.00     0.075 A 
HETATM    9  N   UNL     1      24.126  47.289  50.338  1.00  0.00    -0.239 NA
BRANCH   8  10
HETATM   10  C   UNL     1      23.063  49.163  49.122  1.00  0.00    -0.005 A 
HETATM   11  C   UNL     1      21.831  48.501  49.007  1.00  0.00     0.039 A 
HETATM   12  C   UNL     1      20.676  49.193  48.626  1.00  0.00     0.056 A 
HETATM   13 CL   UNL     1      19.204  48.296  48.501  1.00  0.00    -0.083 Cl
HETATM   14  C   UNL     1      20.742  50.564  48.361  1.00  0.00     0.055 A 
HETATM   15 CL   UNL     1      19.360  51.486  47.887  1.00  0.00    -0.083 Cl
HETATM   16  C   UNL     1      21.961  51.234  48.480  1.00  0.00     0.026 A 
HETATM   17  C   UNL     1      23.115  50.538  48.859  1.00  0.00     0.015 A 
ENDBRANCH   8  10
ENDBRANCH   2   5
BRANCH   1  18
HETATM   18  N   UNL     1      26.775  44.647  53.273  1.00  0.00    -0.364 N 
HETATM   19  H   UNL     1      26.389  43.709  53.100  1.00  0.00     0.165 HD
BRANCH  18  20
HETATM   20  C   UNL     1      27.908  44.610  54.122  1.00  0.00     0.048 A 
HETATM   21  C   UNL     1      28.876  43.574  53.971  1.00  0.00     0.039 A 
HETATM   22  C   UNL     1      29.984  43.478  54.829  1.00  0.00     0.057 A 
HETATM   23  C   UNL     1      30.097  44.416  55.830  1.00  0.00     0.106 A 
HETATM   24  C   UNL     1      29.164  45.410  56.000  1.00  0.00     0.107 A 
HETATM   25  O   UNL     1      31.102  44.487  56.743  1.00  0.00    -0.323 OA
HETATM   26  C   UNL     1      28.064  45.527  55.177  1.00  0.00     0.070 A 
HETATM   27  O   UNL     1      29.467  46.233  57.039  1.00  0.00    -0.323 OA
HETATM   28  C   UNL     1      30.694  45.639  57.511  1.00  0.00     0.352 A 
BRANCH  21  29
HETATM   29  C   UNL     1      28.712  42.571  52.887  1.00  0.00     0.158 C 
HETATM   30  C   UNL     1      28.519  41.127  53.269  1.00  0.00     0.097 C 
HETATM   31  O   UNL     1      28.739  42.940  51.713  1.00  0.00    -0.293 OA
ENDBRANCH  21  29
ENDBRANCH  18  20
ENDBRANCH   1  18
TORSDOF 5
ENDMDL
MODEL 4
REMARK VINA RESULT:      -9.3      2.763      3.800
REMARK  5 active torsions:
REMARK  status: ('A' for Active; 'I' for Inactive)
REMARK    1  A    between atoms: C_2  and  C_3 
REMARK    2  A    between atoms: C_4  and  N_5 
REMARK    3  A    between atoms: N_5  and  C_6 
REMARK    4  A    between atoms: C_7  and  C_8 
REMARK    5  A    between atoms: C_11  and  C_12 
ROOT
HETATM    1  C   UNL     1      23.924  47.336  49.814  1.00  0.00     0.113 C 
HETATM    2  C   UNL     1      25.202  47.146  50.194  1.00  0.00     0.082 C 
HETATM    3  C   UNL     1      26.297  48.062  49.671  1.00  0.00     0.024 C 
HETATM    4  N   UNL     1      27.205  48.822  49.236  1.00  0.00    -0.096 N 
ENDROOT
BRANCH   2   5
HETATM    5  C   UNL     1      25.553  46.045  51.018  1.00  0.00     0.119 A 
HETATM    6  S   UNL     1      24.525  44.653  51.086  1.00  0.00    -0.078 SA
HETATM    7  C   UNL     1      25.598  43.913  52.198  1.00  0.00     0.084 A 
HETATM    8  C   UNL     1      26.665  44.749  52.458  1.00  0.00     0.075 A 
HETATM    9  N   UNL     1      26.630  45.955  51.774  1.00  0.00    -0.239 NA
BRANCH   8  10
HETATM   10  C   UNL     1      27.776  44.430  53.349  1.00  0.00    -0.005 A 
HETATM   11  C   UNL     1      28.034  45.264  54.448  1.00  0.00     0.039 A 
HETATM   12  C   UNL     1      29.088  44.991  55.326  1.00  0.00     0.056 A 
HETATM   13 CL   UNL     1      29.338  46.077  56.648  1.00  0.00    -0.083 Cl
HETATM   14  C   UNL     1      29.896  43.870  55.116  1.00  0.00     0.055 A 
HETATM   15 CL   UNL     1      31.215  43.466  56.156  1.00  0.00    -0.083 Cl
HETATM   16  C   UNL     1      29.643  43.029  54.030  1.00  0.00     0.026 A 
HETATM   17  C   UNL     1      28.589  43.307  53.152  1.00  0.00     0.015 A 
ENDBRANCH   8  10
ENDBRANCH   2   5
BRANCH   1  18
HETATM   18  N   UNL     1      23.405  48.335  49.023  1.00  0.00    -0.364 N 
HETATM   19  H   UNL     1      23.903  48.556  48.150  1.00  0.00     0.165 HD
BRANCH  18  20
HETATM   20  C   UNL     1      22.075  48.824  49.017  1.00  0.00     0.048 A 
HETATM   21  C   UNL     1      21.057  48.105  48.325  1.00  0.00     0.039 A 
HETATM   22  C   UNL     1      19.740  48.588  48.255  1.00  0.00     0.057 A 
HETATM   23  C   UNL     1      19.469  49.788  48.872  1.00  0.00     0.106 A 
HETATM   24  C   UNL     1      20.442  50.502  49.528  1.00  0.00     0.107 A 
HETATM   25  O   UNL     1      18.256  50.401  48.917  1.00  0.00    -0.323 OA
HETATM   26  C   UNL     1      21.744  50.056  49.609  1.00  0.00     0.070 A 
HETATM   27  O   UNL     1      19.963  51.652  50.072  1.00  0.00    -0.323 OA
HETATM   28  C   UNL     1      18.577  51.587  49.676  1.00  0.00     0.352 A 
BRANCH  21  29
HETATM   29  C   UNL     1      21.393  46.820  47.659  1.00  0.00     0.158 C 
HETATM   30  C   UNL     1      20.914  45.539  48.291  1.00  0.00     0.097 C 
HETATM   31  O   UNL     1      22.050  46.831  46.618  1.00  0.00    -0.293 OA
ENDBRANCH  21  29
ENDBRANCH  18  20
ENDBRANCH   1  18
TORSDOF 5
ENDMDL
MODEL 5
REMARK VINA RESULT:      -9.0      5.596      9.523
REMARK  5 active torsions:
REMARK  status: ('A' for Active; 'I' for Inactive)
REMARK    1  A    between atoms: C_2  and  C_3 
REMARK    2  A    between atoms: C_4  and  N_5 
REMARK    3  A    between atoms: N_5  and  C_6 
REMARK    4  A    between atoms: C_7  and  C_8 
REMARK    5  A    between atoms: C_11  and  C_12 
ROOT
HETATM    1  C   UNL     1      25.505  45.354  51.302  1.00  0.00     0.113 C 
HETATM    2  C   UNL     1      25.471  46.677  51.555  1.00  0.00     0.082 C 
HETATM    3  C   UNL     1      25.716  47.190  52.965  1.00  0.00     0.024 C 
HETATM    4  N   UNL     1      25.919  47.615  54.135  1.00  0.00    -0.096 N 
ENDROOT
BRANCH   2   5
HETATM    5  C   UNL     1      25.128  47.598  50.531  1.00  0.00     0.119 A 
HETATM    6  S   UNL     1      26.368  48.306  49.553  1.00  0.00    -0.078 SA
HETATM    7  C   UNL     1      25.184  49.188  48.685  1.00  0.00     0.084 A 
HETATM    8  C   UNL     1      23.926  48.906  49.177  1.00  0.00     0.075 A 
HETATM    9  N   UNL     1      23.908  47.994  50.222  1.00  0.00    -0.239 NA
BRANCH   8  10
HETATM   10  C   UNL     1      22.683  49.472  48.661  1.00  0.00    -0.005 A 
HETATM   11  C   UNL     1      21.781  48.640  47.982  1.00  0.00     0.039 A 
HETATM   12  C   UNL     1      20.579  49.145  47.475  1.00  0.00     0.056 A 
HETATM   13 CL   UNL     1      19.531  48.049  46.644  1.00  0.00    -0.083 Cl
HETATM   14  C   UNL     1      20.263  50.495  47.648  1.00  0.00     0.055 A 
HETATM   15 CL   UNL     1      18.799  51.192  47.052  1.00  0.00    -0.083 Cl
HETATM   16  C   UNL     1      21.151  51.331  48.330  1.00  0.00     0.026 A 
HETATM   17  C   UNL     1      22.353  50.823  48.834  1.00  0.00     0.015 A 
ENDBRANCH   8  10
ENDBRANCH   2   5
BRANCH   1  18
HETATM   18  N   UNL     1      25.810  44.326  52.163  1.00  0.00    -0.364 N 
HETATM   19  H   UNL     1      25.124  43.565  52.254  1.00  0.00     0.165 HD
BRANCH  18  20
HETATM   20  C   UNL     1      27.093  43.946  52.628  1.00  0.00     0.048 A 
HETATM   21  C   UNL     1      27.835  42.946  51.932  1.00  0.00     0.039 A 
HETATM   22  C   UNL     1      29.087  42.509  52.396  1.00  0.00     0.057 A 
HETATM   23  C   UNL     1      29.569  43.075  53.554  1.00  0.00     0.106 A 
HETATM   24  C   UNL     1      28.860  44.026  54.246  1.00  0.00     0.107 A 
HETATM   25  O   UNL     1      30.759  42.785  54.143  1.00  0.00    -0.323 OA
HETATM   26  C   UNL     1      27.626  44.471  53.819  1.00  0.00     0.070 A 
HETATM   27  O   UNL     1      29.517  44.457  55.355  1.00  0.00    -0.323 OA
HETATM   28  C   UNL     1      30.719  43.662  55.288  1.00  0.00     0.352 A 
BRANCH  21  29
HETATM   29  C   UNL     1      27.273  42.349  50.692  1.00  0.00     0.158 C 
HETATM   30  C   UNL     1      26.636  40.987  50.777  1.00  0.00     0.097 C 
HETATM   31  O   UNL     1      27.343  42.975  49.634  1.00  0.00    -0.293 OA
ENDBRANCH  21  29
ENDBRANCH  18  20
ENDBRANCH   1  18
TORSDOF 5
ENDMDL
MODEL 6
REMARK VINA RESULT:      -8.9      3.178      5.396
REMARK  5 active torsions:
REMARK  status: ('A' for Active; 'I' for Inactive)
REMARK    1  A    between atoms: C_2  and  C_3 
REMARK    2  A    between atoms: C_4  and  N_5 
REMARK    3  A    between atoms: N_5  and  C_6 
REMARK    4  A    between atoms: C_7  and  C_8 
REMARK    5  A    between atoms: C_11  and  C_12 
ROOT
HETATM    1  C   UNL     1      26.446  43.954  50.041  1.00  0.00     0.113 C 
HETATM    2  C   UNL     1      25.886  44.933  50.778  1.00  0.00     0.082 C 
HETATM    3  C   UNL     1      24.796  45.808  50.180  1.00  0.00     0.024 C 
HETATM    4  N   UNL     1      23.892  46.534  49.683  1.00  0.00    -0.096 N 
ENDROOT
BRANCH   2   5
HETATM    5  C   UNL     1      26.359  45.210  52.087  1.00  0.00     0.119 A 
HETATM    6  S   UNL     1      25.492  46.311  53.105  1.00  0.00    -0.078 SA
HETATM    7  C   UNL     1      26.646  46.073  54.348  1.00  0.00     0.084 A 
HETATM    8  C   UNL     1      27.617  45.185  53.931  1.00  0.00     0.075 A 
HETATM    9  N   UNL     1      27.437  44.696  52.646  1.00  0.00    -0.239 NA
BRANCH   8  10
HETATM   10  C   UNL     1      28.747  44.744  54.744  1.00  0.00    -0.005 A 
HETATM   11  C   UNL     1      29.124  45.503  55.862  1.00  0.00     0.039 A 
HETATM   12  C   UNL     1      30.200  45.112  56.667  1.00  0.00     0.056 A 
HETATM   13 CL   UNL     1      30.600  46.113  58.019  1.00  0.00    -0.083 Cl
HETATM   14  C   UNL     1      30.910  43.948  56.363  1.00  0.00     0.055 A 
HETATM   15 CL   UNL     1      32.247  43.400  57.308  1.00  0.00    -0.083 Cl
HETATM   16  C   UNL     1      30.537  43.180  55.257  1.00  0.00     0.026 A 
HETATM   17  C   UNL     1      29.462  43.575  54.453  1.00  0.00     0.015 A 
ENDBRANCH   8  10
ENDBRANCH   2   5
BRANCH   1  18
HETATM   18  N   UNL     1      26.123  43.550  48.766  1.00  0.00    -0.364 N 
HETATM   19  H   UNL     1      26.723  43.880  47.998  1.00  0.00     0.165 HD
BRANCH  18  20
HETATM   20  C   UNL     1      25.345  42.427  48.391  1.00  0.00     0.048 A 
HETATM   21  C   UNL     1      25.986  41.200  48.052  1.00  0.00     0.039 A 
HETATM   22  C   UNL     1      25.248  40.083  47.626  1.00  0.00     0.057 A 
HETATM   23  C   UNL     1      23.882  40.219  47.537  1.00  0.00     0.106 A 
HETATM   24  C   UNL     1      23.250  41.400  47.843  1.00  0.00     0.107 A 
HETATM   25  O   UNL     1      23.010  39.248  47.156  1.00  0.00    -0.323 OA
HETATM   26  C   UNL     1      23.947  42.515  48.259  1.00  0.00     0.070 A 
HETATM   27  O   UNL     1      21.901  41.319  47.696  1.00  0.00    -0.323 OA
HETATM   28  C   UNL     1      21.755  39.954  47.254  1.00  0.00     0.352 A 
BRANCH  21  29
HETATM   29  C   UNL     1      27.465  41.096  48.147  1.00  0.00     0.158 C 
HETATM   30  C   UNL     1      28.064  40.499  49.393  1.00  0.00     0.097 C 
HETATM   31  O   UNL     1      28.161  41.500  47.215  1.00  0.00    -0.293 OA
ENDBRANCH  21  29
ENDBRANCH  18  20
ENDBRANCH   1  18
TORSDOF 5
ENDMDL
MODEL 7
REMARK VINA RESULT:      -8.9      3.792      4.959
REMARK  5 active torsions:
REMARK  status: ('A' for Active; 'I' for Inactive)
REMARK    1  A    between atoms: C_2  and  C_3 
REMARK    2  A    between atoms: C_4  and  N_5 
REMARK    3  A    between atoms: N_5  and  C_6 
REMARK    4  A    between atoms: C_7  and  C_8 
REMARK    5  A    between atoms: C_11  and  C_12 
ROOT
HETATM    1  C   UNL     1      22.546  48.240  49.186  1.00  0.00     0.113 C 
HETATM    2  C   UNL     1      23.875  48.215  49.409  1.00  0.00     0.082 C 
HETATM    3  C   UNL     1      24.785  49.202  48.698  1.00  0.00     0.024 C 
HETATM    4  N   UNL     1      25.541  50.022  48.107  1.00  0.00    -0.096 N 
ENDROOT
BRANCH   2   5
HETATM    5  C   UNL     1      24.447  47.219  50.243  1.00  0.00     0.119 A 
HETATM    6  S   UNL     1      24.223  45.544  49.869  1.00  0.00    -0.078 SA
HETATM    7  C   UNL     1      25.146  45.111  51.245  1.00  0.00     0.084 A 
HETATM    8  C   UNL     1      25.569  46.244  51.909  1.00  0.00     0.075 A 
HETATM    9  N   UNL     1      25.172  47.437  51.323  1.00  0.00    -0.239 NA
BRANCH   8  10
HETATM   10  C   UNL     1      26.390  46.245  53.117  1.00  0.00    -0.005 A 
HETATM   11  C   UNL     1      27.244  45.160  53.365  1.00  0.00     0.039 A 
HETATM   12  C   UNL     1      28.047  45.125  54.510  1.00  0.00     0.056 A 
HETATM   13 CL   UNL     1      29.063  43.744  54.739  1.00  0.00    -0.083 Cl
HETATM   14  C   UNL     1      28.008  46.184  55.421  1.00  0.00     0.055 A 
HETATM   15 CL   UNL     1      28.970  46.213  56.855  1.00  0.00    -0.083 Cl
HETATM   16  C   UNL     1      27.168  47.272  55.179  1.00  0.00     0.026 A 
HETATM   17  C   UNL     1      26.364  47.304  54.034  1.00  0.00     0.015 A 
ENDBRANCH   8  10
ENDBRANCH   2   5
BRANCH   1  18
HETATM   18  N   UNL     1      21.824  49.119  48.413  1.00  0.00    -0.364 N 
HETATM   19  H   UNL     1      22.116  49.239  47.434  1.00  0.00     0.165 HD
BRANCH  18  20
HETATM   20  C   UNL     1      20.500  49.572  48.635  1.00  0.00     0.048 A 
HETATM   21  C   UNL     1      19.397  48.796  48.173  1.00  0.00     0.039 A 
HETATM   22  C   UNL     1      18.074  49.240  48.330  1.00  0.00     0.057 A 
HETATM   23  C   UNL     1      17.880  50.459  48.938  1.00  0.00     0.106 A 
HETATM   24  C   UNL     1      18.932  51.228  49.373  1.00  0.00     0.107 A 
HETATM   25  O   UNL     1      16.676  51.042  49.183  1.00  0.00    -0.323 OA
HETATM   26  C   UNL     1      20.242  50.821  49.228  1.00  0.00     0.070 A 
HETATM   27  O   UNL     1      18.523  52.389  49.950  1.00  0.00    -0.323 OA
HETATM   28  C   UNL     1      17.091  52.269  49.821  1.00  0.00     0.352 A 
BRANCH  21  29
HETATM   29  C   UNL     1      19.648  47.490  47.508  1.00  0.00     0.158 C 
HETATM   30  C   UNL     1      19.012  46.255  48.090  1.00  0.00     0.097 C 
HETATM   31  O   UNL     1      20.365  47.449  46.508  1.00  0.00    -0.293 OA
ENDBRANCH  21  29
ENDBRANCH  18  20
ENDBRANCH   1  18
TORSDOF 5
ENDMDL
MODEL 8
REMARK VINA RESULT:      -8.9      2.953      5.350
REMARK  5 active torsions:
REMARK  status: ('A' for Active; 'I' for Inactive)
REMARK    1  A    between atoms: C_2  and  C_3 
REMARK    2  A    between atoms: C_4  and  N_5 
REMARK    3  A    between atoms: N_5  and  C_6 
REMARK    4  A    between atoms: C_7  and  C_8 
REMARK    5  A    between atoms: C_11  and  C_12 
ROOT
HETATM    1  C   UNL     1      25.137  43.713  51.228  1.00  0.00     0.113 C 
HETATM    2  C   UNL     1      25.257  45.030  51.486  1.00  0.00     0.082 C 
HETATM    3  C   UNL     1      24.598  46.047  50.569  1.00  0.00     0.024 C 
HETATM    4  N   UNL     1      24.052  46.892  49.808  1.00  0.00    -0.096 N 
ENDROOT
BRANCH   2   5
HETATM    5  C   UNL     1      26.062  45.484  52.562  1.00  0.00     0.119 A 
HETATM    6  S   UNL     1      25.761  47.033  53.274  1.00  0.00    -0.078 SA
HETATM    7  C   UNL     1      27.056  46.785  54.368  1.00  0.00     0.084 A 
HETATM    8  C   UNL     1      27.642  45.557  54.138  1.00  0.00     0.075 A 
HETATM    9  N   UNL     1      27.062  44.824  53.114  1.00  0.00    -0.239 NA
BRANCH   8  10
HETATM   10  C   UNL     1      28.766  45.015  54.898  1.00  0.00    -0.005 A 
HETATM   11  C   UNL     1      29.191  45.679  56.059  1.00  0.00     0.039 A 
HETATM   12  C   UNL     1      30.263  45.190  56.814  1.00  0.00     0.056 A 
HETATM   13 CL   UNL     1      30.724  46.077  58.225  1.00  0.00    -0.083 Cl
HETATM   14  C   UNL     1      30.920  44.023  56.416  1.00  0.00     0.055 A 
HETATM   15 CL   UNL     1      32.249  43.358  57.296  1.00  0.00    -0.083 Cl
HETATM   16  C   UNL     1      30.499  43.350  55.267  1.00  0.00     0.026 A 
HETATM   17  C   UNL     1      29.428  43.843  54.512  1.00  0.00     0.015 A 
ENDBRANCH   8  10
ENDBRANCH   2   5
BRANCH   1  18
HETATM   18  N   UNL     1      24.411  43.096  50.236  1.00  0.00    -0.364 N 
HETATM   19  H   UNL     1      23.615  43.613  49.840  1.00  0.00     0.165 HD
BRANCH  18  20
HETATM   20  C   UNL     1      24.833  42.039  49.392  1.00  0.00     0.048 A 
HETATM   21  C   UNL     1      24.332  41.950  48.060  1.00  0.00     0.039 A 
HETATM   22  C   UNL     1      24.689  40.887  47.215  1.00  0.00     0.057 A 
HETATM   23  C   UNL     1      25.534  39.926  47.722  1.00  0.00     0.106 A 
HETATM   24  C   UNL     1      26.012  39.988  49.009  1.00  0.00     0.107 A 
HETATM   25  O   UNL     1      25.993  38.837  47.050  1.00  0.00    -0.323 OA
HETATM   26  C   UNL     1      25.675  41.017  49.864  1.00  0.00     0.070 A 
HETATM   27  O   UNL     1      26.835  38.948  49.307  1.00  0.00    -0.323 OA
HETATM   28  C   UNL     1      26.814  38.217  48.063  1.00  0.00     0.352 A 
BRANCH  21  29
HETATM   29  C   UNL     1      23.410  42.999  47.553  1.00  0.00     0.158 C 
HETATM   30  C   UNL     1      22.124  42.568  46.898  1.00  0.00     0.097 C 
HETATM   31  O   UNL     1      23.717  44.185  47.677  1.00  0.00    -0.293 OA
ENDBRANCH  21  29
ENDBRANCH  18  20
ENDBRANCH   1  18
TORSDOF 5
ENDMDL
MODEL 9
REMARK VINA RESULT:      -8.8      3.778      5.603
REMARK  5 active torsions:
REMARK  status: ('A' for Active; 'I' for Inactive)
REMARK    1  A    between atoms: C_2  and  C_3 
REMARK    2  A    between atoms: C_4  and  N_5 
REMARK    3  A    between atoms: N_5  and  C_6 
REMARK    4  A    between atoms: C_7  and  C_8 
REMARK    5  A    between atoms: C_11  and  C_12 
ROOT
HETATM    1  C   UNL     1      22.318  48.199  48.909  1.00  0.00     0.113 C 
HETATM    2  C   UNL     1      23.635  48.225  49.189  1.00  0.00     0.082 C 
HETATM    3  C   UNL     1      24.531  49.267  48.540  1.00  0.00     0.024 C 
HETATM    4  N   UNL     1      25.275  50.132  48.001  1.00  0.00    -0.096 N 
ENDROOT
BRANCH   2   5
HETATM    5  C   UNL     1      24.214  47.236  50.026  1.00  0.00     0.119 A 
HETATM    6  S   UNL     1      24.029  45.559  49.639  1.00  0.00    -0.078 SA
HETATM    7  C   UNL     1      24.939  45.136  51.027  1.00  0.00     0.084 A 
HETATM    8  C   UNL     1      25.328  46.273  51.705  1.00  0.00     0.075 A 
HETATM    9  N   UNL     1      24.916  47.461  51.120  1.00  0.00    -0.239 NA
BRANCH   8  10
HETATM   10  C   UNL     1      26.129  46.282  52.926  1.00  0.00    -0.005 A 
HETATM   11  C   UNL     1      26.978  45.198  53.196  1.00  0.00     0.039 A 
HETATM   12  C   UNL     1      27.763  45.171  54.354  1.00  0.00     0.056 A 
HETATM   13 CL   UNL     1      28.773  43.793  54.611  1.00  0.00    -0.083 Cl
HETATM   14  C   UNL     1      27.709  46.237  55.256  1.00  0.00     0.055 A 
HETATM   15 CL   UNL     1      28.648  46.277  56.706  1.00  0.00    -0.083 Cl
HETATM   16  C   UNL     1      26.873  47.325  54.993  1.00  0.00     0.026 A 
HETATM   17  C   UNL     1      26.088  47.348  53.834  1.00  0.00     0.015 A 
ENDBRANCH   8  10
ENDBRANCH   2   5
BRANCH   1  18
HETATM   18  N   UNL     1      21.592  49.064  48.123  1.00  0.00    -0.364 N 
HETATM   19  H   UNL     1      22.117  49.743  47.556  1.00  0.00     0.165 HD
BRANCH  18  20
HETATM   20  C   UNL     1      20.263  48.897  47.662  1.00  0.00     0.048 A 
HETATM   21  C   UNL     1      19.243  49.797  48.090  1.00  0.00     0.039 A 
HETATM   22  C   UNL     1      17.906  49.630  47.694  1.00  0.00     0.057 A 
HETATM   23  C   UNL     1      17.613  48.557  46.883  1.00  0.00     0.106 A 
HETATM   24  C   UNL     1      18.580  47.670  46.476  1.00  0.00     0.107 A 
HETATM   25  O   UNL     1      16.383  48.244  46.395  1.00  0.00    -0.323 OA
HETATM   26  C   UNL     1      19.899  47.806  46.853  1.00  0.00     0.070 A 
HETATM   27  O   UNL     1      18.081  46.690  45.677  1.00  0.00    -0.323 OA
HETATM   28  C   UNL     1      16.686  47.055  45.634  1.00  0.00     0.352 A 
BRANCH  21  29
HETATM   29  C   UNL     1      19.598  50.936  48.977  1.00  0.00     0.158 C 
HETATM   30  C   UNL     1      19.316  52.335  48.495  1.00  0.00     0.097 C 
HETATM   31  O   UNL     1      20.111  50.712  50.073  1.00  0.00    -0.293 OA
ENDBRANCH  21  29
ENDBRANCH  18  20
ENDBRANCH   1  18
TORSDOF 5
ENDMDL
MODEL 10
REMARK VINA RESULT:      -8.7      3.751      5.467
REMARK  5 active torsions:
REMARK  status: ('A' for Active; 'I' for Inactive)
REMARK    1  A    between atoms: C_2  and  C_3 
REMARK    2  A    between atoms: C_4  and  N_5 
REMARK    3  A    between atoms: N_5  and  C_6 
REMARK    4  A    between atoms: C_7  and  C_8 
REMARK    5  A    between atoms: C_11  and  C_12 
ROOT
HETATM    1  C   UNL     1      26.862  42.183  49.281  1.00  0.00     0.113 C 
HETATM    2  C   UNL     1      26.627  42.739  50.485  1.00  0.00     0.082 C 
HETATM    3  C   UNL     1      25.422  43.644  50.683  1.00  0.00     0.024 C 
HETATM    4  N   UNL     1      24.421  44.395  50.847  1.00  0.00    -0.096 N 
ENDROOT
BRANCH   2   5
HETATM    5  C   UNL     1      27.539  42.554  51.556  1.00  0.00     0.119 A 
HETATM    6  S   UNL     1      28.406  41.063  51.706  1.00  0.00    -0.078 SA
HETATM    7  C   UNL     1      29.183  41.654  53.114  1.00  0.00     0.084 A 
HETATM    8  C   UNL     1      28.749  42.933  53.395  1.00  0.00     0.075 A 
HETATM    9  N   UNL     1      27.820  43.436  52.496  1.00  0.00    -0.239 NA
BRANCH   8  10
HETATM   10  C   UNL     1      29.214  43.744  54.516  1.00  0.00    -0.005 A 
HETATM   11  C   UNL     1      30.323  43.312  55.259  1.00  0.00     0.039 A 
HETATM   12  C   UNL     1      30.800  44.062  56.340  1.00  0.00     0.056 A 
HETATM   13 CL   UNL     1      32.166  43.449  57.205  1.00  0.00    -0.083 Cl
HETATM   14  C   UNL     1      30.172  45.261  56.687  1.00  0.00     0.055 A 
HETATM   15 CL   UNL     1      30.703  46.241  58.006  1.00  0.00    -0.083 Cl
HETATM   16  C   UNL     1      29.072  45.704  55.948  1.00  0.00     0.026 A 
HETATM   17  C   UNL     1      28.596  44.950  54.869  1.00  0.00     0.015 A 
ENDBRANCH   8  10
ENDBRANCH   2   5
BRANCH   1  18
HETATM   18  N   UNL     1      26.098  42.257  48.139  1.00  0.00    -0.364 N 
HETATM   19  H   UNL     1      26.439  42.860  47.379  1.00  0.00     0.165 HD
BRANCH  18  20
HETATM   20  C   UNL     1      25.135  41.321  47.687  1.00  0.00     0.048 A 
HETATM   21  C   UNL     1      25.514  40.299  46.768  1.00  0.00     0.039 A 
HETATM   22  C   UNL     1      24.574  39.387  46.260  1.00  0.00     0.057 A 
HETATM   23  C   UNL     1      23.269  39.523  46.674  1.00  0.00     0.106 A 
HETATM   24  C   UNL     1      22.884  40.512  47.546  1.00  0.00     0.107 A 
HETATM   25  O   UNL     1      22.230  38.730  46.298  1.00  0.00    -0.323 OA
HETATM   26  C   UNL     1      23.782  41.424  48.057  1.00  0.00     0.070 A 
HETATM   27  O   UNL     1      21.555  40.464  47.830  1.00  0.00    -0.323 OA
HETATM   28  C   UNL     1      21.144  39.336  47.031  1.00  0.00     0.352 A 
BRANCH  21  29
HETATM   29  C   UNL     1      26.931  40.194  46.333  1.00  0.00     0.158 C 
HETATM   30  C   UNL     1      27.746  39.023  46.817  1.00  0.00     0.097 C 
HETATM   31  O   UNL     1      27.404  41.061  45.596  1.00  0.00    -0.293 OA
ENDBRANCH  21  29
ENDBRANCH  18  20
ENDBRANCH   1  18
TORSDOF 5
ENDMDL
