MODEL 1
REMARK VINA RESULT:      -9.2      0.000      0.000
REMARK  5 active torsions:
REMARK  status: ('A' for Active; 'I' for Inactive)
REMARK    1  A    between atoms: C_6  and  C_7 
REMARK       I    between atoms: C_7  and  N_8 
REMARK    2  A    between atoms: N_8  and  C_9 
REMARK    3  A    between atoms: C_16  and  C_17 
REMARK    4  A    between atoms: C_23  and  C_24 
REMARK       I    between atoms: C_24  and  N_25 
REMARK    5  A    between atoms: N_25  and  C_26 
ROOT
HETATM    1  C   UNL     1      27.984  41.056  52.187  1.00  0.00     0.069 C 
HETATM    2  C   UNL     1      26.886  41.858  51.532  1.00  0.00     0.018 C 
HETATM    3  N   UNL     1      26.440  41.383  50.306  1.00  0.00    -0.362 N 
HETATM    4  C   UNL     1      25.325  41.873  49.641  1.00  0.00     0.018 C 
HETATM    5  C   UNL     1      24.860  41.075  48.451  1.00  0.00     0.069 C 
HETATM    6  C   UNL     1      24.717  42.987  50.102  1.00  0.00     0.045 C 
HETATM    7  C   UNL     1      25.218  43.726  51.338  1.00  0.00     0.101 C 
HETATM    8  C   UNL     1      26.321  42.962  52.070  1.00  0.00     0.045 C 
HETATM    9  H   UNL     1      26.816  40.492  49.988  1.00  0.00     0.165 HD
ENDROOT
BRANCH   6  10
HETATM   10  C   UNL     1      23.404  43.398  49.543  1.00  0.00     0.255 C 
HETATM   11  N   UNL     1      23.519  44.144  48.393  1.00  0.00    -0.323 N 
HETATM   12  H   UNL     1      24.454  44.386  48.086  1.00  0.00     0.169 HD
HETATM   13  O   UNL     1      22.380  43.080  50.134  1.00  0.00    -0.268 OA
BRANCH  11  14
HETATM   14  C   UNL     1      22.468  44.697  47.632  1.00  0.00     0.035 A 
HETATM   15  C   UNL     1      21.638  43.948  46.797  1.00  0.00     0.029 A 
HETATM   16  C   UNL     1      20.621  44.573  46.068  1.00  0.00     0.002 A 
HETATM   17  C   UNL     1      20.422  45.948  46.176  1.00  0.00     0.000 A 
HETATM   18  C   UNL     1      21.245  46.702  47.009  1.00  0.00     0.002 A 
HETATM   19  C   UNL     1      22.269  46.080  47.728  1.00  0.00     0.029 A 
ENDBRANCH  11  14
ENDBRANCH   6  10
BRANCH   7  20
HETATM   20  C   UNL     1      25.653  45.143  50.991  1.00  0.00    -0.027 A 
HETATM   21  C   UNL     1      25.105  46.239  51.656  1.00  0.00     0.124 A 
HETATM   22  N   UNL     1      25.399  47.526  51.366  1.00  0.00    -0.273 NA
HETATM   23  C   UNL     1      26.303  47.742  50.388  1.00  0.00     0.116 A 
HETATM   24  C   UNL     1      26.908  46.728  49.665  1.00  0.00     0.020 A 
HETATM   25  C   UNL     1      26.572  45.413  49.968  1.00  0.00     0.011 A 
ENDBRANCH   7  20
BRANCH   8  26
HETATM   26  C   UNL     1      26.843  43.530  53.346  1.00  0.00     0.255 C 
HETATM   27  N   UNL     1      28.202  43.758  53.322  1.00  0.00    -0.323 N 
HETATM   28  H   UNL     1      28.699  43.548  52.467  1.00  0.00     0.169 HD
HETATM   29  O   UNL     1      26.072  43.738  54.275  1.00  0.00    -0.268 OA
BRANCH  27  30
HETATM   30  C   UNL     1      28.997  44.276  54.367  1.00  0.00     0.035 A 
HETATM   31  C   UNL     1      28.795  45.526  54.956  1.00  0.00     0.029 A 
HETATM   32  C   UNL     1      29.636  45.971  55.982  1.00  0.00     0.002 A 
HETATM   33  C   UNL     1      30.680  45.167  56.433  1.00  0.00     0.000 A 
HETATM   34  C   UNL     1      30.889  43.918  55.855  1.00  0.00     0.002 A 
HETATM   35  C   UNL     1      30.055  43.478  54.823  1.00  0.00     0.029 A 
ENDBRANCH  27  30
ENDBRANCH   8  26
TORSDOF 5
ENDMDL
MODEL 2
REMARK VINA RESULT:      -8.8      1.930      2.496
REMARK  5 active torsions:
REMARK  status: ('A' for Active; 'I' for Inactive)
REMARK    1  A    between atoms: C_6  and  C_7 
REMARK       I    between atoms: C_7  and  N_8 
REMARK    2  A    between atoms: N_8  and  C_9 
REMARK    3  A    between atoms: C_16  and  C_17 
REMARK    4  A    between atoms: C_23  and  C_24 
REMARK       I    between atoms: C_24  and  N_25 
REMARK    5  A    between atoms: N_25  and  C_26 
ROOT
HETATM    1  C   UNL     1      25.864  41.467  50.927  1.00  0.00     0.069 C 
HETATM    2  C   UNL     1      25.095  42.600  50.293  1.00  0.00     0.018 C 
HETATM    3  N   UNL     1      24.628  42.369  49.006  1.00  0.00    -0.362 N 
HETATM    4  C   UNL     1      23.755  43.210  48.332  1.00  0.00     0.018 C 
HETATM    5  C   UNL     1      23.175  42.673  47.049  1.00  0.00     0.069 C 
HETATM    6  C   UNL     1      23.456  44.415  48.863  1.00  0.00     0.045 C 
HETATM    7  C   UNL     1      24.049  44.882  50.187  1.00  0.00     0.101 C 
HETATM    8  C   UNL     1      24.828  43.778  50.902  1.00  0.00     0.045 C 
HETATM    9  H   UNL     1      24.758  41.433  48.626  1.00  0.00     0.165 HD
ENDROOT
BRANCH   6  10
HETATM   10  C   UNL     1      22.363  45.231  48.277  1.00  0.00     0.255 C 
HETATM   11  N   UNL     1      21.176  45.115  48.963  1.00  0.00    -0.323 N 
HETATM   12  H   UNL     1      21.147  44.459  49.736  1.00  0.00     0.169 HD
HETATM   13  O   UNL     1      22.585  45.886  47.267  1.00  0.00    -0.268 OA
BRANCH  11  14
HETATM   14  C   UNL     1      19.953  45.743  48.655  1.00  0.00     0.035 A 
HETATM   15  C   UNL     1      19.613  47.030  49.074  1.00  0.00     0.029 A 
HETATM   16  C   UNL     1      18.374  47.580  48.732  1.00  0.00     0.002 A 
HETATM   17  C   UNL     1      17.470  46.852  47.962  1.00  0.00     0.000 A 
HETATM   18  C   UNL     1      17.802  45.568  47.537  1.00  0.00     0.002 A 
HETATM   19  C   UNL     1      19.034  45.012  47.889  1.00  0.00     0.029 A 
ENDBRANCH  11  14
ENDBRANCH   6  10
BRANCH   7  20
HETATM   20  C   UNL     1      24.896  46.133  49.999  1.00  0.00    -0.027 A 
HETATM   21  C   UNL     1      24.334  47.401  50.135  1.00  0.00     0.124 A 
HETATM   22  N   UNL     1      25.007  48.555  49.929  1.00  0.00    -0.273 NA
HETATM   23  C   UNL     1      26.312  48.452  49.597  1.00  0.00     0.116 A 
HETATM   24  C   UNL     1      26.969  47.244  49.436  1.00  0.00     0.020 A 
HETATM   25  C   UNL     1      26.248  46.071  49.633  1.00  0.00     0.011 A 
ENDBRANCH   7  20
BRANCH   8  26
HETATM   26  C   UNL     1      25.389  44.073  52.251  1.00  0.00     0.255 C 
HETATM   27  N   UNL     1      26.759  44.234  52.245  1.00  0.00    -0.323 N 
HETATM   28  H   UNL     1      27.237  44.163  51.357  1.00  0.00     0.169 HD
HETATM   29  O   UNL     1      24.638  44.142  53.217  1.00  0.00    -0.268 OA
BRANCH  27  30
HETATM   30  C   UNL     1      27.589  44.510  53.353  1.00  0.00     0.035 A 
HETATM   31  C   UNL     1      27.446  45.628  54.177  1.00  0.00     0.029 A 
HETATM   32  C   UNL     1      28.319  45.834  55.251  1.00  0.00     0.002 A 
HETATM   33  C   UNL     1      29.335  44.919  55.516  1.00  0.00     0.000 A 
HETATM   34  C   UNL     1      29.484  43.799  54.704  1.00  0.00     0.002 A 
HETATM   35  C   UNL     1      28.619  43.599  53.624  1.00  0.00     0.029 A 
ENDBRANCH  27  30
ENDBRANCH   8  26
TORSDOF 5
ENDMDL
MODEL 3
REMARK VINA RESULT:      -8.7      1.599      8.605
REMARK  5 active torsions:
REMARK  status: ('A' for Active; 'I' for Inactive)
REMARK    1  A    between atoms: C_6  and  C_7 
REMARK       I    between atoms: C_7  and  N_8 
REMARK    2  A    between atoms: N_8  and  C_9 
REMARK    3  A    between atoms: C_16  and  C_17 
REMARK    4  A    between atoms: C_23  and  C_24 
REMARK       I    between atoms: C_24  and  N_25 
REMARK    5  A    between atoms: N_25  and  C_26 
ROOT
HETATM    1  C   UNL     1      22.963  46.119  49.103  1.00  0.00     0.069 C 
HETATM    2  C   UNL     1      23.951  45.512  50.069  1.00  0.00     0.018 C 
HETATM    3  N   UNL     1      24.855  46.396  50.643  1.00  0.00    -0.362 N 
HETATM    4  C   UNL     1      25.714  46.064  51.681  1.00  0.00     0.018 C 
HETATM    5  C   UNL     1      26.443  47.212  52.330  1.00  0.00     0.069 C 
HETATM    6  C   UNL     1      25.822  44.773  52.062  1.00  0.00     0.045 C 
HETATM    7  C   UNL     1      25.025  43.663  51.388  1.00  0.00     0.101 C 
HETATM    8  C   UNL     1      23.985  44.203  50.407  1.00  0.00     0.045 C 
HETATM    9  H   UNL     1      24.727  47.386  50.444  1.00  0.00     0.165 HD
ENDROOT
BRANCH   6  10
HETATM   10  C   UNL     1      26.560  44.429  53.305  1.00  0.00     0.255 C 
HETATM   11  N   UNL     1      27.918  44.621  53.195  1.00  0.00    -0.323 N 
HETATM   12  H   UNL     1      28.276  44.907  52.291  1.00  0.00     0.169 HD
HETATM   13  O   UNL     1      25.937  43.999  54.267  1.00  0.00    -0.268 OA
BRANCH  11  14
HETATM   14  C   UNL     1      28.891  44.374  54.184  1.00  0.00     0.035 A 
HETATM   15  C   UNL     1      29.664  43.212  54.240  1.00  0.00     0.029 A 
HETATM   16  C   UNL     1      30.605  43.038  55.259  1.00  0.00     0.002 A 
HETATM   17  C   UNL     1      30.788  44.028  56.222  1.00  0.00     0.000 A 
HETATM   18  C   UNL     1      30.024  45.190  56.173  1.00  0.00     0.002 A 
HETATM   19  C   UNL     1      29.074  45.360  55.163  1.00  0.00     0.029 A 
ENDBRANCH  11  14
ENDBRANCH   6  10
BRANCH   7  20
HETATM   20  C   UNL     1      25.948  42.650  50.723  1.00  0.00    -0.027 A 
HETATM   21  C   UNL     1      26.700  43.000  49.603  1.00  0.00     0.124 A 
HETATM   22  N   UNL     1      27.496  42.143  48.927  1.00  0.00    -0.273 NA
HETATM   23  C   UNL     1      27.576  40.880  49.398  1.00  0.00     0.116 A 
HETATM   24  C   UNL     1      26.873  40.428  50.501  1.00  0.00     0.020 A 
HETATM   25  C   UNL     1      26.043  41.324  51.166  1.00  0.00     0.011 A 
ENDBRANCH   7  20
BRANCH   8  26
HETATM   26  C   UNL     1      23.074  43.229  49.739  1.00  0.00     0.255 C 
HETATM   27  N   UNL     1      23.394  43.006  48.416  1.00  0.00    -0.323 N 
HETATM   28  H   UNL     1      24.199  43.489  48.040  1.00  0.00     0.169 HD
HETATM   29  O   UNL     1      22.155  42.726  50.375  1.00  0.00    -0.268 OA
BRANCH  27  30
HETATM   30  C   UNL     1      22.727  42.154  47.511  1.00  0.00     0.035 A 
HETATM   31  C   UNL     1      21.784  42.590  46.578  1.00  0.00     0.029 A 
HETATM   32  C   UNL     1      21.159  41.676  45.722  1.00  0.00     0.002 A 
HETATM   33  C   UNL     1      21.480  40.323  45.783  1.00  0.00     0.000 A 
HETATM   34  C   UNL     1      22.422  39.878  46.706  1.00  0.00     0.002 A 
HETATM   35  C   UNL     1      23.038  40.789  47.570  1.00  0.00     0.029 A 
ENDBRANCH  27  30
ENDBRANCH   8  26
TORSDOF 5
ENDMDL
MODEL 4
REMARK VINA RESULT:      -8.6      1.701      2.343
REMARK  5 active torsions:
REMARK  status: ('A' for Active; 'I' for Inactive)
REMARK    1  A    between atoms: C_6  and  C_7 
REMARK       I    between atoms: C_7  and  N_8 
REMARK    2  A    between atoms: N_8  and  C_9 
REMARK    3  A    between atoms: C_16  and  C_17 
REMARK    4  A    between atoms: C_23  and  C_24 
REMARK       I    between atoms: C_24  and  N_25 
REMARK    5  A    between atoms: N_25  and  C_26 
ROOT
HETATM    1  C   UNL     1      28.588  40.376  49.105  1.00  0.00     0.069 C 
HETATM    2  C   UNL     1      27.238  41.049  49.037  1.00  0.00     0.018 C 
HETATM    3  N   UNL     1      26.632  41.063  47.788  1.00  0.00    -0.362 N 
HETATM    4  C   UNL     1      25.325  41.469  47.562  1.00  0.00     0.018 C 
HETATM    5  C   UNL     1      24.771  41.186  46.189  1.00  0.00     0.069 C 
HETATM    6  C   UNL     1      24.631  42.049  48.565  1.00  0.00     0.045 C 
HETATM    7  C   UNL     1      25.239  42.271  49.944  1.00  0.00     0.101 C 
HETATM    8  C   UNL     1      26.604  41.598  50.097  1.00  0.00     0.045 C 
HETATM    9  H   UNL     1      27.094  40.547  47.041  1.00  0.00     0.165 HD
ENDROOT
BRANCH   6  10
HETATM   10  C   UNL     1      23.173  42.286  48.413  1.00  0.00     0.255 C 
HETATM   11  N   UNL     1      22.880  43.531  47.905  1.00  0.00    -0.323 N 
HETATM   12  H   UNL     1      23.655  44.165  47.751  1.00  0.00     0.169 HD
HETATM   13  O   UNL     1      22.388  41.412  48.758  1.00  0.00    -0.268 OA
BRANCH  11  14
HETATM   14  C   UNL     1      21.600  44.067  47.659  1.00  0.00     0.035 A 
HETATM   15  C   UNL     1      20.834  43.763  46.532  1.00  0.00     0.029 A 
HETATM   16  C   UNL     1      19.574  44.343  46.357  1.00  0.00     0.002 A 
HETATM   17  C   UNL     1      19.067  45.223  47.310  1.00  0.00     0.000 A 
HETATM   18  C   UNL     1      19.823  45.530  48.439  1.00  0.00     0.002 A 
HETATM   19  C   UNL     1      21.087  44.960  48.609  1.00  0.00     0.029 A 
ENDBRANCH  11  14
ENDBRANCH   6  10
BRANCH   7  20
HETATM   20  C   UNL     1      25.306  43.753  50.283  1.00  0.00    -0.027 A 
HETATM   21  C   UNL     1      25.988  44.643  49.455  1.00  0.00     0.124 A 
HETATM   22  N   UNL     1      26.137  45.961  49.718  1.00  0.00    -0.273 NA
HETATM   23  C   UNL     1      25.560  46.429  50.845  1.00  0.00     0.116 A 
HETATM   24  C   UNL     1      24.860  45.635  51.736  1.00  0.00     0.020 A 
HETATM   25  C   UNL     1      24.739  44.278  51.453  1.00  0.00     0.011 A 
ENDBRANCH   7  20
BRANCH   8  26
HETATM   26  C   UNL     1      27.275  41.662  51.427  1.00  0.00     0.255 C 
HETATM   27  N   UNL     1      27.953  42.844  51.635  1.00  0.00    -0.323 N 
HETATM   28  H   UNL     1      27.917  43.542  50.905  1.00  0.00     0.169 HD
HETATM   29  O   UNL     1      27.186  40.712  52.196  1.00  0.00    -0.268 OA
BRANCH  27  30
HETATM   30  C   UNL     1      28.694  43.210  52.780  1.00  0.00     0.035 A 
HETATM   31  C   UNL     1      29.928  42.653  53.123  1.00  0.00     0.029 A 
HETATM   32  C   UNL     1      30.594  43.065  54.282  1.00  0.00     0.002 A 
HETATM   33  C   UNL     1      30.038  44.043  55.102  1.00  0.00     0.000 A 
HETATM   34  C   UNL     1      28.811  44.609  54.767  1.00  0.00     0.002 A 
HETATM   35  C   UNL     1      28.140  44.189  53.615  1.00  0.00     0.029 A 
ENDBRANCH  27  30
ENDBRANCH   8  26
TORSDOF 5
ENDMDL
MODEL 5
REMARK VINA RESULT:      -8.3      3.526     10.014
REMARK  5 active torsions:
REMARK  status: ('A' for Active; 'I' for Inactive)
REMARK    1  A    between atoms: C_6  and  C_7 
REMARK       I    between atoms: C_7  and  N_8 
REMARK    2  A    between atoms: N_8  and  C_9 
REMARK    3  A    between atoms: C_16  and  C_17 
REMARK    4  A    between atoms: C_23  and  C_24 
REMARK       I    between atoms: C_24  and  N_25 
REMARK    5  A    between atoms: N_25  and  C_26 
ROOT
HETATM    1  C   UNL     1      21.127  51.278  48.229  1.00  0.00     0.069 C 
HETATM    2  C   UNL     1      21.842  49.985  48.536  1.00  0.00     0.018 C 
HETATM    3  N   UNL     1      23.224  50.013  48.413  1.00  0.00    -0.362 N 
HETATM    4  C   UNL     1      24.064  48.987  48.823  1.00  0.00     0.018 C 
HETATM    5  C   UNL     1      25.537  49.300  48.831  1.00  0.00     0.069 C 
HETATM    6  C   UNL     1      23.527  47.810  49.212  1.00  0.00     0.045 C 
HETATM    7  C   UNL     1      22.021  47.573  49.217  1.00  0.00     0.101 C 
HETATM    8  C   UNL     1      21.227  48.847  48.933  1.00  0.00     0.045 C 
HETATM    9  H   UNL     1      23.654  50.915  48.216  1.00  0.00     0.165 HD
ENDROOT
BRANCH   6  10
HETATM   10  C   UNL     1      24.384  46.785  49.859  1.00  0.00     0.255 C 
HETATM   11  N   UNL     1      24.486  46.951  51.221  1.00  0.00    -0.323 N 
HETATM   12  H   UNL     1      24.035  47.763  51.627  1.00  0.00     0.169 HD
HETATM   13  O   UNL     1      24.925  45.936  49.163  1.00  0.00    -0.268 OA
BRANCH  11  14
HETATM   14  C   UNL     1      25.233  46.160  52.118  1.00  0.00     0.035 A 
HETATM   15  C   UNL     1      25.061  44.784  52.269  1.00  0.00     0.029 A 
HETATM   16  C   UNL     1      25.837  44.071  53.188  1.00  0.00     0.002 A 
HETATM   17  C   UNL     1      26.798  44.728  53.954  1.00  0.00     0.000 A 
HETATM   18  C   UNL     1      26.978  46.100  53.808  1.00  0.00     0.002 A 
HETATM   19  C   UNL     1      26.194  46.815  52.900  1.00  0.00     0.029 A 
ENDBRANCH  11  14
ENDBRANCH   6  10
BRANCH   7  20
HETATM   20  C   UNL     1      21.639  46.451  48.261  1.00  0.00    -0.027 A 
HETATM   21  C   UNL     1      21.152  45.238  48.746  1.00  0.00     0.124 A 
HETATM   22  N   UNL     1      20.845  44.178  47.966  1.00  0.00    -0.273 NA
HETATM   23  C   UNL     1      21.002  44.332  46.634  1.00  0.00     0.116 A 
HETATM   24  C   UNL     1      21.478  45.492  46.047  1.00  0.00     0.020 A 
HETATM   25  C   UNL     1      21.807  46.561  46.874  1.00  0.00     0.011 A 
ENDBRANCH   7  20
BRANCH   8  26
HETATM   26  C   UNL     1      19.738  48.777  48.993  1.00  0.00     0.255 C 
HETATM   27  N   UNL     1      19.142  48.856  47.752  1.00  0.00    -0.323 N 
HETATM   28  H   UNL     1      19.745  48.930  46.944  1.00  0.00     0.169 HD
HETATM   29  O   UNL     1      19.181  48.665  50.079  1.00  0.00    -0.268 OA
BRANCH  27  30
HETATM   30  C   UNL     1      17.759  48.830  47.469  1.00  0.00     0.035 A 
HETATM   31  C   UNL     1      17.118  47.783  46.805  1.00  0.00     0.029 A 
HETATM   32  C   UNL     1      15.742  47.839  46.554  1.00  0.00     0.002 A 
HETATM   33  C   UNL     1      14.995  48.936  46.974  1.00  0.00     0.000 A 
HETATM   34  C   UNL     1      15.624  49.984  47.641  1.00  0.00     0.002 A 
HETATM   35  C   UNL     1      17.000  49.933  47.882  1.00  0.00     0.029 A 
ENDBRANCH  27  30
ENDBRANCH   8  26
TORSDOF 5
ENDMDL
MODEL 6
REMARK VINA RESULT:      -8.0      4.157      6.929
REMARK  5 active torsions:
REMARK  status: ('A' for Active; 'I' for Inactive)
REMARK    1  A    between atoms: C_6  and  C_7 
REMARK       I    between atoms: C_7  and  N_8 
REMARK    2  A    between atoms: N_8  and  C_9 
REMARK    3  A    between atoms: C_16  and  C_17 
REMARK    4  A    between atoms: C_23  and  C_24 
REMARK       I    between atoms: C_24  and  N_25 
REMARK    5  A    between atoms: N_25  and  C_26 
ROOT
HETATM    1  C   UNL     1      24.516  42.644  50.699  1.00  0.00     0.069 C 
HETATM    2  C   UNL     1      25.421  41.906  49.742  1.00  0.00     0.018 C 
HETATM    3  N   UNL     1      24.906  41.684  48.472  1.00  0.00    -0.362 N 
HETATM    4  C   UNL     1      25.645  41.189  47.408  1.00  0.00     0.018 C 
HETATM    5  C   UNL     1      24.982  41.245  46.057  1.00  0.00     0.069 C 
HETATM    6  C   UNL     1      26.895  40.728  47.631  1.00  0.00     0.045 C 
HETATM    7  C   UNL     1      27.523  40.736  49.019  1.00  0.00     0.101 C 
HETATM    8  C   UNL     1      26.671  41.487  50.042  1.00  0.00     0.045 C 
HETATM    9  H   UNL     1      24.006  42.108  48.255  1.00  0.00     0.165 HD
ENDROOT
BRANCH   6  10
HETATM   10  C   UNL     1      27.778  40.403  46.481  1.00  0.00     0.255 C 
HETATM   11  N   UNL     1      27.637  39.107  46.043  1.00  0.00    -0.323 N 
HETATM   12  H   UNL     1      27.015  38.503  46.569  1.00  0.00     0.169 HD
HETATM   13  O   UNL     1      28.540  41.262  46.055  1.00  0.00    -0.268 OA
BRANCH  11  14
HETATM   14  C   UNL     1      28.339  38.487  44.990  1.00  0.00     0.035 A 
HETATM   15  C   UNL     1      28.296  38.924  43.665  1.00  0.00     0.029 A 
HETATM   16  C   UNL     1      29.015  38.248  42.674  1.00  0.00     0.002 A 
HETATM   17  C   UNL     1      29.789  37.138  43.002  1.00  0.00     0.000 A 
HETATM   18  C   UNL     1      29.840  36.696  44.322  1.00  0.00     0.002 A 
HETATM   19  C   UNL     1      29.111  37.363  45.310  1.00  0.00     0.029 A 
ENDBRANCH  11  14
ENDBRANCH   6  10
BRANCH   7  20
HETATM   20  C   UNL     1      27.842  39.322  49.486  1.00  0.00    -0.027 A 
HETATM   21  C   UNL     1      29.133  38.979  49.886  1.00  0.00     0.124 A 
HETATM   22  N   UNL     1      29.505  37.734  50.259  1.00  0.00    -0.273 NA
HETATM   23  C   UNL     1      28.546  36.784  50.263  1.00  0.00     0.116 A 
HETATM   24  C   UNL     1      27.235  37.016  49.886  1.00  0.00     0.020 A 
HETATM   25  C   UNL     1      26.883  38.301  49.485  1.00  0.00     0.011 A 
ENDBRANCH   7  20
BRANCH   8  26
HETATM   26  C   UNL     1      27.209  41.646  51.424  1.00  0.00     0.255 C 
HETATM   27  N   UNL     1      27.925  42.812  51.596  1.00  0.00    -0.323 N 
HETATM   28  H   UNL     1      27.999  43.439  50.806  1.00  0.00     0.169 HD
HETATM   29  O   UNL     1      26.993  40.778  52.261  1.00  0.00    -0.268 OA
BRANCH  27  30
HETATM   30  C   UNL     1      28.567  43.252  52.773  1.00  0.00     0.035 A 
HETATM   31  C   UNL     1      28.034  44.204  53.644  1.00  0.00     0.029 A 
HETATM   32  C   UNL     1      28.741  44.593  54.788  1.00  0.00     0.002 A 
HETATM   33  C   UNL     1      29.980  44.027  55.075  1.00  0.00     0.000 A 
HETATM   34  C   UNL     1      30.519  43.073  54.215  1.00  0.00     0.002 A 
HETATM   35  C   UNL     1      29.818  42.693  53.067  1.00  0.00     0.029 A 
ENDBRANCH  27  30
ENDBRANCH   8  26
TORSDOF 5
ENDMDL
MODEL 7
REMARK VINA RESULT:      -7.9      4.198      6.826
REMARK  5 active torsions:
REMARK  status: ('A' for Active; 'I' for Inactive)
REMARK    1  A    between atoms: C_6  and  C_7 
REMARK       I    between atoms: C_7  and  N_8 
REMARK    2  A    between atoms: N_8  and  C_9 
REMARK    3  A    between atoms: C_16  and  C_17 
REMARK    4  A    between atoms: C_23  and  C_24 
REMARK       I    between atoms: C_24  and  N_25 
REMARK    5  A    between atoms: N_25  and  C_26 
ROOT
HETATM    1  C   UNL     1      22.736  44.524  46.817  1.00  0.00     0.069 C 
HETATM    2  C   UNL     1      21.901  45.666  47.345  1.00  0.00     0.018 C 
HETATM    3  N   UNL     1      20.739  45.943  46.636  1.00  0.00    -0.362 N 
HETATM    4  C   UNL     1      19.759  46.826  47.064  1.00  0.00     0.018 C 
HETATM    5  C   UNL     1      18.469  46.812  46.287  1.00  0.00     0.069 C 
HETATM    6  C   UNL     1      19.996  47.604  48.143  1.00  0.00     0.045 C 
HETATM    7  C   UNL     1      21.312  47.541  48.910  1.00  0.00     0.101 C 
HETATM    8  C   UNL     1      22.205  46.391  48.445  1.00  0.00     0.045 C 
HETATM    9  H   UNL     1      20.494  45.307  45.880  1.00  0.00     0.165 HD
ENDROOT
BRANCH   6  10
HETATM   10  C   UNL     1      18.889  48.388  48.746  1.00  0.00     0.255 C 
HETATM   11  N   UNL     1      18.824  49.679  48.275  1.00  0.00    -0.323 N 
HETATM   12  H   UNL     1      19.551  49.978  47.634  1.00  0.00     0.169 HD
HETATM   13  O   UNL     1      18.176  47.859  49.590  1.00  0.00    -0.268 OA
BRANCH  11  14
HETATM   14  C   UNL     1      17.904  50.676  48.657  1.00  0.00     0.035 A 
HETATM   15  C   UNL     1      18.209  51.718  49.536  1.00  0.00     0.029 A 
HETATM   16  C   UNL     1      17.237  52.665  49.873  1.00  0.00     0.002 A 
HETATM   17  C   UNL     1      15.958  52.584  49.326  1.00  0.00     0.000 A 
HETATM   18  C   UNL     1      15.646  51.550  48.447  1.00  0.00     0.002 A 
HETATM   19  C   UNL     1      16.613  50.596  48.120  1.00  0.00     0.029 A 
ENDBRANCH  11  14
ENDBRANCH   6  10
BRANCH   7  20
HETATM   20  C   UNL     1      22.043  48.875  48.857  1.00  0.00    -0.027 A 
HETATM   21  C   UNL     1      22.147  49.675  49.993  1.00  0.00     0.124 A 
HETATM   22  N   UNL     1      22.731  50.894  50.011  1.00  0.00    -0.273 NA
HETATM   23  C   UNL     1      23.264  51.334  48.852  1.00  0.00     0.116 A 
HETATM   24  C   UNL     1      23.218  50.621  47.667  1.00  0.00     0.020 A 
HETATM   25  C   UNL     1      22.592  49.379  47.670  1.00  0.00     0.011 A 
ENDBRANCH   7  20
BRANCH   8  26
HETATM   26  C   UNL     1      23.488  46.159  49.169  1.00  0.00     0.255 C 
HETATM   27  N   UNL     1      23.395  45.180  50.136  1.00  0.00    -0.323 N 
HETATM   28  H   UNL     1      22.506  44.711  50.247  1.00  0.00     0.169 HD
HETATM   29  O   UNL     1      24.477  46.820  48.875  1.00  0.00    -0.268 OA
BRANCH  27  30
HETATM   30  C   UNL     1      24.420  44.733  50.997  1.00  0.00     0.035 A 
HETATM   31  C   UNL     1      24.857  45.436  52.122  1.00  0.00     0.029 A 
HETATM   32  C   UNL     1      25.889  44.927  52.919  1.00  0.00     0.002 A 
HETATM   33  C   UNL     1      26.485  43.709  52.604  1.00  0.00     0.000 A 
HETATM   34  C   UNL     1      26.054  42.998  51.487  1.00  0.00     0.002 A 
HETATM   35  C   UNL     1      25.031  43.511  50.685  1.00  0.00     0.029 A 
ENDBRANCH  27  30
ENDBRANCH   8  26
TORSDOF 5
ENDMDL
MODEL 8
REMARK VINA RESULT:      -7.8      5.021      8.628
REMARK  5 active torsions:
REMARK  status: ('A' for Active; 'I' for Inactive)
REMARK    1  A    between atoms: C_6  and  C_7 
REMARK       I    between atoms: C_7  and  N_8 
REMARK    2  A    between atoms: N_8  and  C_9 
REMARK    3  A    between atoms: C_16  and  C_17 
REMARK    4  A    between atoms: C_23  and  C_24 
REMARK       I    between atoms: C_24  and  N_25 
REMARK    5  A    between atoms: N_25  and  C_26 
ROOT
HETATM    1  C   UNL     1      21.918  51.212  50.622  1.00  0.00     0.069 C 
HETATM    2  C   UNL     1      20.918  50.631  49.653  1.00  0.00     0.018 C 
HETATM    3  N   UNL     1      19.586  50.920  49.912  1.00  0.00    -0.362 N 
HETATM    4  C   UNL     1      18.543  50.631  49.044  1.00  0.00     0.018 C 
HETATM    5  C   UNL     1      17.207  51.235  49.388  1.00  0.00     0.069 C 
HETATM    6  C   UNL     1      18.784  49.873  47.952  1.00  0.00     0.045 C 
HETATM    7  C   UNL     1      20.171  49.325  47.641  1.00  0.00     0.101 C 
HETATM    8  C   UNL     1      21.246  49.888  48.571  1.00  0.00     0.045 C 
HETATM    9  H   UNL     1      19.391  51.569  50.672  1.00  0.00     0.165 HD
ENDROOT
BRANCH   6  10
HETATM   10  C   UNL     1      17.743  49.739  46.902  1.00  0.00     0.255 C 
HETATM   11  N   UNL     1      16.944  48.632  47.074  1.00  0.00    -0.323 N 
HETATM   12  H   UNL     1      17.176  48.004  47.836  1.00  0.00     0.169 HD
HETATM   13  O   UNL     1      17.697  50.565  45.999  1.00  0.00    -0.268 OA
BRANCH  11  14
HETATM   14  C   UNL     1      15.882  48.215  46.246  1.00  0.00     0.035 A 
HETATM   15  C   UNL     1      14.576  48.693  46.359  1.00  0.00     0.029 A 
HETATM   16  C   UNL     1      13.575  48.222  45.503  1.00  0.00     0.002 A 
HETATM   17  C   UNL     1      13.875  47.278  44.524  1.00  0.00     0.000 A 
HETATM   18  C   UNL     1      15.176  46.798  44.403  1.00  0.00     0.002 A 
HETATM   19  C   UNL     1      16.174  47.258  45.265  1.00  0.00     0.029 A 
ENDBRANCH  11  14
ENDBRANCH   6  10
BRANCH   7  20
HETATM   20  C   UNL     1      20.173  47.802  47.640  1.00  0.00    -0.027 A 
HETATM   21  C   UNL     1      19.843  47.090  48.792  1.00  0.00     0.124 A 
HETATM   22  N   UNL     1      19.876  45.742  48.885  1.00  0.00    -0.273 NA
HETATM   23  C   UNL     1      20.226  45.060  47.774  1.00  0.00     0.116 A 
HETATM   24  C   UNL     1      20.572  45.667  46.579  1.00  0.00     0.020 A 
HETATM   25  C   UNL     1      20.551  47.056  46.516  1.00  0.00     0.011 A 
ENDBRANCH   7  20
BRANCH   8  26
HETATM   26  C   UNL     1      22.664  49.501  48.324  1.00  0.00     0.255 C 
HETATM   27  N   UNL     1      23.192  48.708  49.321  1.00  0.00    -0.323 N 
HETATM   28  H   UNL     1      22.586  48.452  50.088  1.00  0.00     0.169 HD
HETATM   29  O   UNL     1      23.231  49.897  47.312  1.00  0.00    -0.268 OA
BRANCH  27  30
HETATM   30  C   UNL     1      24.502  48.186  49.389  1.00  0.00     0.035 A 
HETATM   31  C   UNL     1      25.655  48.936  49.157  1.00  0.00     0.029 A 
HETATM   32  C   UNL     1      26.918  48.338  49.235  1.00  0.00     0.002 A 
HETATM   33  C   UNL     1      27.038  46.989  49.556  1.00  0.00     0.000 A 
HETATM   34  C   UNL     1      25.894  46.232  49.794  1.00  0.00     0.002 A 
HETATM   35  C   UNL     1      24.632  46.826  49.705  1.00  0.00     0.029 A 
ENDBRANCH  27  30
ENDBRANCH   8  26
TORSDOF 5
ENDMDL
MODEL 9
REMARK VINA RESULT:      -7.7      5.215      9.004
REMARK  5 active torsions:
REMARK  status: ('A' for Active; 'I' for Inactive)
REMARK    1  A    between atoms: C_6  and  C_7 
REMARK       I    between atoms: C_7  and  N_8 
REMARK    2  A    between atoms: N_8  and  C_9 
REMARK    3  A    between atoms: C_16  and  C_17 
REMARK    4  A    between atoms: C_23  and  C_24 
REMARK       I    between atoms: C_24  and  N_25 
REMARK    5  A    between atoms: N_25  and  C_26 
ROOT
HETATM    1  C   UNL     1      22.304  51.252  50.677  1.00  0.00     0.069 C 
HETATM    2  C   UNL     1      21.218  50.866  49.703  1.00  0.00     0.018 C 
HETATM    3  N   UNL     1      19.968  51.421  49.941  1.00  0.00    -0.362 N 
HETATM    4  C   UNL     1      18.897  51.332  49.063  1.00  0.00     0.018 C 
HETATM    5  C   UNL     1      17.706  52.198  49.380  1.00  0.00     0.069 C 
HETATM    6  C   UNL     1      18.992  50.522  47.985  1.00  0.00     0.045 C 
HETATM    7  C   UNL     1      20.244  49.701  47.701  1.00  0.00     0.101 C 
HETATM    8  C   UNL     1      21.400  50.053  48.637  1.00  0.00     0.045 C 
HETATM    9  H   UNL     1      19.899  52.109  50.688  1.00  0.00     0.165 HD
ENDROOT
BRANCH   6  10
HETATM   10  C   UNL     1      17.955  50.581  46.924  1.00  0.00     0.255 C 
HETATM   11  N   UNL     1      16.795  49.925  47.267  1.00  0.00    -0.323 N 
HETATM   12  H   UNL     1      16.785  49.429  48.151  1.00  0.00     0.169 HD
HETATM   13  O   UNL     1      18.211  51.156  45.873  1.00  0.00    -0.268 OA
BRANCH  11  14
HETATM   14  C   UNL     1      15.636  49.783  46.478  1.00  0.00     0.035 A 
HETATM   15  C   UNL     1      15.104  50.805  45.689  1.00  0.00     0.029 A 
HETATM   16  C   UNL     1      13.943  50.587  44.940  1.00  0.00     0.002 A 
HETATM   17  C   UNL     1      13.313  49.345  44.966  1.00  0.00     0.000 A 
HETATM   18  C   UNL     1      13.839  48.320  45.748  1.00  0.00     0.002 A 
HETATM   19  C   UNL     1      14.991  48.540  46.507  1.00  0.00     0.029 A 
ENDBRANCH  11  14
ENDBRANCH   6  10
BRANCH   7  20
HETATM   20  C   UNL     1      19.939  48.210  47.724  1.00  0.00    -0.027 A 
HETATM   21  C   UNL     1      20.061  47.441  46.567  1.00  0.00     0.124 A 
HETATM   22  N   UNL     1      19.755  46.126  46.496  1.00  0.00    -0.273 NA
HETATM   23  C   UNL     1      19.334  45.533  47.633  1.00  0.00     0.116 A 
HETATM   24  C   UNL     1      19.179  46.202  48.834  1.00  0.00     0.020 A 
HETATM   25  C   UNL     1      19.478  47.559  48.876  1.00  0.00     0.011 A 
ENDBRANCH   7  20
BRANCH   8  26
HETATM   26  C   UNL     1      22.714  49.386  48.414  1.00  0.00     0.255 C 
HETATM   27  N   UNL     1      23.053  48.505  49.420  1.00  0.00    -0.323 N 
HETATM   28  H   UNL     1      22.394  48.381  50.177  1.00  0.00     0.169 HD
HETATM   29  O   UNL     1      23.367  49.655  47.413  1.00  0.00    -0.268 OA
BRANCH  27  30
HETATM   30  C   UNL     1      24.227  47.728  49.512  1.00  0.00     0.035 A 
HETATM   31  C   UNL     1      25.515  48.263  49.585  1.00  0.00     0.029 A 
HETATM   32  C   UNL     1      26.629  47.421  49.664  1.00  0.00     0.002 A 
HETATM   33  C   UNL     1      26.466  46.038  49.679  1.00  0.00     0.000 A 
HETATM   34  C   UNL     1      25.187  45.494  49.611  1.00  0.00     0.002 A 
HETATM   35  C   UNL     1      24.073  46.335  49.521  1.00  0.00     0.029 A 
ENDBRANCH  27  30
ENDBRANCH   8  26
TORSDOF 5
ENDMDL
MODEL 10
REMARK VINA RESULT:      -7.7      5.362      9.057
REMARK  5 active torsions:
REMARK  status: ('A' for Active; 'I' for Inactive)
REMARK    1  A    between atoms: C_6  and  C_7 
REMARK       I    between atoms: C_7  and  N_8 
REMARK    2  A    between atoms: N_8  and  C_9 
REMARK    3  A    between atoms: C_16  and  C_17 
REMARK    4  A    between atoms: C_23  and  C_24 
REMARK       I    between atoms: C_24  and  N_25 
REMARK    5  A    between atoms: N_25  and  C_26 
ROOT
HETATM    1  C   UNL     1      22.167  51.204  50.669  1.00  0.00     0.069 C 
HETATM    2  C   UNL     1      21.120  50.822  49.651  1.00  0.00     0.018 C 
HETATM    3  N   UNL     1      19.856  51.359  49.853  1.00  0.00    -0.362 N 
HETATM    4  C   UNL     1      18.818  51.273  48.936  1.00  0.00     0.018 C 
HETATM    5  C   UNL     1      17.606  52.120  49.225  1.00  0.00     0.069 C 
HETATM    6  C   UNL     1      18.961  50.483  47.849  1.00  0.00     0.045 C 
HETATM    7  C   UNL     1      20.232  49.682  47.596  1.00  0.00     0.101 C 
HETATM    8  C   UNL     1      21.349  50.031  48.578  1.00  0.00     0.045 C 
HETATM    9  H   UNL     1      19.753  52.033  50.609  1.00  0.00     0.165 HD
ENDROOT
BRANCH   6  10
HETATM   10  C   UNL     1      17.961  50.549  46.752  1.00  0.00     0.255 C 
HETATM   11  N   UNL     1      18.274  51.485  45.794  1.00  0.00    -0.323 N 
HETATM   12  H   UNL     1      19.092  52.062  45.956  1.00  0.00     0.169 HD
HETATM   13  O   UNL     1      16.977  49.822  46.800  1.00  0.00    -0.268 OA
BRANCH  11  14
HETATM   14  C   UNL     1      17.527  51.801  44.642  1.00  0.00     0.035 A 
HETATM   15  C   UNL     1      17.491  51.004  43.496  1.00  0.00     0.029 A 
HETATM   16  C   UNL     1      16.730  51.393  42.389  1.00  0.00     0.002 A 
HETATM   17  C   UNL     1      15.993  52.574  42.423  1.00  0.00     0.000 A 
HETATM   18  C   UNL     1      16.021  53.374  43.563  1.00  0.00     0.002 A 
HETATM   19  C   UNL     1      16.791  52.993  44.664  1.00  0.00     0.029 A 
ENDBRANCH  11  14
ENDBRANCH   6  10
BRANCH   7  20
HETATM   20  C   UNL     1      19.945  48.187  47.582  1.00  0.00    -0.027 A 
HETATM   21  C   UNL     1      19.432  47.550  48.711  1.00  0.00     0.124 A 
HETATM   22  N   UNL     1      19.205  46.220  48.794  1.00  0.00    -0.273 NA
HETATM   23  C   UNL     1      19.472  45.484  47.694  1.00  0.00     0.116 A 
HETATM   24  C   UNL     1      19.981  46.014  46.522  1.00  0.00     0.020 A 
HETATM   25  C   UNL     1      20.227  47.382  46.470  1.00  0.00     0.011 A 
ENDBRANCH   7  20
BRANCH   8  26
HETATM   26  C   UNL     1      22.679  49.382  48.391  1.00  0.00     0.255 C 
HETATM   27  N   UNL     1      22.983  48.473  49.382  1.00  0.00    -0.323 N 
HETATM   28  H   UNL     1      22.294  48.318  50.105  1.00  0.00     0.169 HD
HETATM   29  O   UNL     1      23.371  49.690  47.428  1.00  0.00    -0.268 OA
BRANCH  27  30
HETATM   30  C   UNL     1      24.160  47.703  49.499  1.00  0.00     0.035 A 
HETATM   31  C   UNL     1      25.442  48.247  49.600  1.00  0.00     0.029 A 
HETATM   32  C   UNL     1      26.560  47.412  49.703  1.00  0.00     0.002 A 
HETATM   33  C   UNL     1      26.406  46.028  49.716  1.00  0.00     0.000 A 
HETATM   34  C   UNL     1      25.132  45.475  49.619  1.00  0.00     0.002 A 
HETATM   35  C   UNL     1      24.015  46.309  49.505  1.00  0.00     0.029 A 
ENDBRANCH  27  30
ENDBRANCH   8  26
TORSDOF 5
ENDMDL
