MODEL 1
REMARK VINA RESULT:      -9.6      0.000      0.000
REMARK  6 active torsions:
REMARK  status: ('A' for Active; 'I' for Inactive)
REMARK    1  A    between atoms: C_2  and  O_3 
REMARK    2  A    between atoms: C_2  and  C_4 
REMARK    3  A    between atoms: C_2  and  C_11 
REMARK    4  A    between atoms: C_11  and  N_12 
REMARK       I    between atoms: N_12  and  C_13 
REMARK    5  A    between atoms: C_13  and  C_14 
REMARK    6  A    between atoms: C_18  and  C_19 
ROOT
HETATM    1  N   UNL     1      26.681  44.640  51.196  1.00  0.00    -0.352 N 
HETATM    2  C   UNL     1      26.668  45.467  50.098  1.00  0.00     0.272 C 
HETATM    3  O   UNL     1      27.643  45.647  49.373  1.00  0.00    -0.266 OA
HETATM    4  H   UNL     1      25.784  44.476  51.646  1.00  0.00     0.162 HD
ENDROOT
BRANCH   2   5
HETATM    5  C   UNL     1      25.368  46.110  49.856  1.00  0.00     0.146 A 
HETATM    6  N   UNL     1      24.213  45.417  49.820  1.00  0.00    -0.169 NA
HETATM    7  N   UNL     1      23.282  46.352  49.566  1.00  0.00    -0.277 N 
HETATM    8  H   UNL     1      22.319  46.049  49.467  1.00  0.00     0.189 HD
HETATM    9  C   UNL     1      23.770  47.628  49.450  1.00  0.00     0.063 A 
HETATM   10  C   UNL     1      25.134  47.489  49.624  1.00  0.00     0.071 A 
BRANCH   9  11
HETATM   11  C   UNL     1      22.945  48.802  49.170  1.00  0.00    -0.008 A 
HETATM   12  C   UNL     1      23.524  50.052  48.894  1.00  0.00     0.017 A 
HETATM   13  C   UNL     1      22.721  51.164  48.626  1.00  0.00     0.043 A 
HETATM   14  C   UNL     1      21.339  51.031  48.632  1.00  0.00     0.116 A 
HETATM   15  F   UNL     1      20.572  52.099  48.374  1.00  0.00    -0.206 F 
HETATM   16  C   UNL     1      20.743  49.806  48.897  1.00  0.00     0.043 A 
HETATM   17  C   UNL     1      21.545  48.694  49.162  1.00  0.00     0.017 A 
ENDBRANCH   9  11
ENDBRANCH   2   5
BRANCH   1  18
HETATM   18  C   UNL     1      27.808  43.794  51.549  1.00  0.00     0.165 C 
BRANCH  18  19
HETATM   19  C   UNL     1      27.674  43.131  52.959  1.00  0.00     0.099 C 
HETATM   20  C   UNL     1      27.861  41.610  52.837  1.00  0.00     0.053 C 
BRANCH  19  21
HETATM   21  O   UNL     1      26.318  43.404  53.356  1.00  0.00    -0.384 OA
HETATM   22  H   UNL     1      26.093  42.780  54.069  1.00  0.00     0.211 HD
ENDBRANCH  19  21
BRANCH  19  23
HETATM   23  C   UNL     1      28.650  43.694  54.011  1.00  0.00    -0.001 A 
HETATM   24  C   UNL     1      28.491  44.960  54.618  1.00  0.00     0.043 A 
HETATM   25 CL   UNL     1      27.187  46.038  54.238  1.00  0.00    -0.084 Cl
HETATM   26  C   UNL     1      29.390  45.422  55.592  1.00  0.00     0.024 A 
HETATM   27  C   UNL     1      30.463  44.636  55.995  1.00  0.00     0.002 A 
HETATM   28  C   UNL     1      30.639  43.382  55.427  1.00  0.00     0.001 A 
HETATM   29  C   UNL     1      29.745  42.918  54.455  1.00  0.00     0.012 A 
ENDBRANCH  19  23
ENDBRANCH  18  19
ENDBRANCH   1  18
TORSDOF 6
ENDMDL
MODEL 2
REMARK VINA RESULT:      -9.4      1.338      1.927
REMARK  6 active torsions:
REMARK  status: ('A' for Active; 'I' for Inactive)
REMARK    1  A    between atoms: C_2  and  O_3 
REMARK    2  A    between atoms: C_2  and  C_4 
REMARK    3  A    between atoms: C_2  and  C_11 
REMARK    4  A    between atoms: C_11  and  N_12 
REMARK       I    between atoms: N_12  and  C_13 
REMARK    5  A    between atoms: C_13  and  C_14 
REMARK    6  A    between atoms: C_18  and  C_19 
ROOT
HETATM    1  N   UNL     1      26.273  45.316  51.821  1.00  0.00    -0.352 N 
HETATM    2  C   UNL     1      26.229  45.442  50.452  1.00  0.00     0.272 C 
HETATM    3  O   UNL     1      27.118  45.039  49.706  1.00  0.00    -0.266 OA
HETATM    4  H   UNL     1      25.427  45.575  52.323  1.00  0.00     0.162 HD
ENDROOT
BRANCH   2   5
HETATM    5  C   UNL     1      25.007  46.091  49.955  1.00  0.00     0.146 A 
HETATM    6  N   UNL     1      23.984  45.395  49.419  1.00  0.00    -0.169 NA
HETATM    7  N   UNL     1      23.089  46.340  49.087  1.00  0.00    -0.277 N 
HETATM    8  H   UNL     1      22.232  46.044  48.633  1.00  0.00     0.189 HD
HETATM    9  C   UNL     1      23.468  47.621  49.394  1.00  0.00     0.063 A 
HETATM   10  C   UNL     1      24.725  47.481  49.952  1.00  0.00     0.071 A 
BRANCH   9  11
HETATM   11  C   UNL     1      22.659  48.807  49.121  1.00  0.00    -0.008 A 
HETATM   12  C   UNL     1      21.256  48.760  49.165  1.00  0.00     0.017 A 
HETATM   13  C   UNL     1      20.497  49.904  48.902  1.00  0.00     0.043 A 
HETATM   14  C   UNL     1      21.136  51.097  48.597  1.00  0.00     0.116 A 
HETATM   15  F   UNL     1      20.406  52.193  48.346  1.00  0.00    -0.206 F 
HETATM   16  C   UNL     1      22.522  51.171  48.552  1.00  0.00     0.043 A 
HETATM   17  C   UNL     1      23.280  50.029  48.816  1.00  0.00     0.017 A 
ENDBRANCH   9  11
ENDBRANCH   2   5
BRANCH   1  18
HETATM   18  C   UNL     1      27.312  44.586  52.526  1.00  0.00     0.165 C 
BRANCH  18  19
HETATM   19  C   UNL     1      27.251  44.757  54.078  1.00  0.00     0.099 C 
HETATM   20  C   UNL     1      26.194  43.806  54.664  1.00  0.00     0.053 C 
BRANCH  19  21
HETATM   21  O   UNL     1      26.815  46.115  54.273  1.00  0.00    -0.384 OA
HETATM   22  H   UNL     1      26.577  46.211  55.213  1.00  0.00     0.211 HD
ENDBRANCH  19  21
BRANCH  19  23
HETATM   23  C   UNL     1      28.601  44.534  54.787  1.00  0.00    -0.001 A 
HETATM   24  C   UNL     1      29.361  43.350  54.656  1.00  0.00     0.043 A 
HETATM   25 CL   UNL     1      28.854  41.999  53.695  1.00  0.00    -0.084 Cl
HETATM   26  C   UNL     1      30.600  43.200  55.300  1.00  0.00     0.024 A 
HETATM   27  C   UNL     1      31.120  44.226  56.081  1.00  0.00     0.002 A 
HETATM   28  C   UNL     1      30.405  45.407  56.218  1.00  0.00     0.001 A 
HETATM   29  C   UNL     1      29.169  45.559  55.578  1.00  0.00     0.012 A 
ENDBRANCH  19  23
ENDBRANCH  18  19
ENDBRANCH   1  18
TORSDOF 6
ENDMDL
MODEL 3
REMARK VINA RESULT:      -9.0      4.210     10.022
REMARK  6 active torsions:
REMARK  status: ('A' for Active; 'I' for Inactive)
REMARK    1  A    between atoms: C_2  and  O_3 
REMARK    2  A    between atoms: C_2  and  C_4 
REMARK    3  A    between atoms: C_2  and  C_11 
REMARK    4  A    between atoms: C_11  and  N_12 
REMARK       I    between atoms: N_12  and  C_13 
REMARK    5  A    between atoms: C_13  and  C_14 
REMARK    6  A    between atoms: C_18  and  C_19 
ROOT
HETATM    1  N   UNL     1      22.741  48.363  49.901  1.00  0.00    -0.352 N 
HETATM    2  C   UNL     1      23.433  47.263  49.453  1.00  0.00     0.272 C 
HETATM    3  O   UNL     1      23.139  46.645  48.433  1.00  0.00    -0.266 OA
HETATM    4  H   UNL     1      23.151  48.863  50.686  1.00  0.00     0.162 HD
ENDROOT
BRANCH   2   5
HETATM    5  C   UNL     1      24.579  46.899  50.300  1.00  0.00     0.146 A 
HETATM    6  N   UNL     1      25.477  47.806  50.733  1.00  0.00    -0.169 NA
HETATM    7  N   UNL     1      26.351  47.080  51.449  1.00  0.00    -0.277 N 
HETATM    8  H   UNL     1      27.146  47.561  51.858  1.00  0.00     0.189 HD
HETATM    9  C   UNL     1      26.060  45.742  51.521  1.00  0.00     0.063 A 
HETATM   10  C   UNL     1      24.912  45.601  50.765  1.00  0.00     0.071 A 
BRANCH   9  11
HETATM   11  C   UNL     1      26.871  44.761  52.239  1.00  0.00    -0.008 A 
HETATM   12  C   UNL     1      27.682  43.841  51.554  1.00  0.00     0.017 A 
HETATM   13  C   UNL     1      28.453  42.911  52.256  1.00  0.00     0.043 A 
HETATM   14  C   UNL     1      28.418  42.897  53.644  1.00  0.00     0.116 A 
HETATM   15  F   UNL     1      29.159  42.004  54.315  1.00  0.00    -0.206 F 
HETATM   16  C   UNL     1      27.629  43.799  54.344  1.00  0.00     0.043 A 
HETATM   17  C   UNL     1      26.860  44.730  53.643  1.00  0.00     0.017 A 
ENDBRANCH   9  11
ENDBRANCH   2   5
BRANCH   1  18
HETATM   18  C   UNL     1      21.662  48.989  49.156  1.00  0.00     0.165 C 
BRANCH  18  19
HETATM   19  C   UNL     1      21.533  50.525  49.416  1.00  0.00     0.099 C 
HETATM   20  C   UNL     1      22.488  51.291  48.485  1.00  0.00     0.053 C 
BRANCH  19  21
HETATM   21  O   UNL     1      21.972  50.697  50.776  1.00  0.00    -0.384 OA
HETATM   22  H   UNL     1      21.497  50.043  51.319  1.00  0.00     0.211 HD
ENDBRANCH  19  21
BRANCH  19  23
HETATM   23  C   UNL     1      20.100  51.070  49.256  1.00  0.00    -0.001 A 
HETATM   24  C   UNL     1      18.998  50.583  49.994  1.00  0.00     0.043 A 
HETATM   25 CL   UNL     1      19.125  49.303  51.156  1.00  0.00    -0.084 Cl
HETATM   26  C   UNL     1      17.714  51.127  49.835  1.00  0.00     0.024 A 
HETATM   27  C   UNL     1      17.493  52.174  48.947  1.00  0.00     0.002 A 
HETATM   28  C   UNL     1      18.558  52.683  48.218  1.00  0.00     0.001 A 
HETATM   29  C   UNL     1      19.840  52.142  48.373  1.00  0.00     0.012 A 
ENDBRANCH  19  23
ENDBRANCH  18  19
ENDBRANCH   1  18
TORSDOF 6
ENDMDL
MODEL 4
REMARK VINA RESULT:      -9.0      4.257      9.637
REMARK  6 active torsions:
REMARK  status: ('A' for Active; 'I' for Inactive)
REMARK    1  A    between atoms: C_2  and  O_3 
REMARK    2  A    between atoms: C_2  and  C_4 
REMARK    3  A    between atoms: C_2  and  C_11 
REMARK    4  A    between atoms: C_11  and  N_12 
REMARK       I    between atoms: N_12  and  C_13 
REMARK    5  A    between atoms: C_13  and  C_14 
REMARK    6  A    between atoms: C_18  and  C_19 
ROOT
HETATM    1  N   UNL     1      23.962  47.536  50.283  1.00  0.00    -0.352 N 
HETATM    2  C   UNL     1      24.521  46.337  50.658  1.00  0.00     0.272 C 
HETATM    3  O   UNL     1      24.323  45.281  50.063  1.00  0.00    -0.266 OA
HETATM    4  H   UNL     1      24.296  48.361  50.775  1.00  0.00     0.162 HD
ENDROOT
BRANCH   2   5
HETATM    5  C   UNL     1      25.401  46.435  51.832  1.00  0.00     0.146 A 
HETATM    6  N   UNL     1      25.348  47.470  52.693  1.00  0.00    -0.169 NA
HETATM    7  N   UNL     1      26.301  47.189  53.597  1.00  0.00    -0.277 N 
HETATM    8  H   UNL     1      26.462  47.859  54.342  1.00  0.00     0.189 HD
HETATM    9  C   UNL     1      26.966  46.010  53.380  1.00  0.00     0.063 A 
HETATM   10  C   UNL     1      26.400  45.507  52.223  1.00  0.00     0.071 A 
BRANCH   9  11
HETATM   11  C   UNL     1      28.043  45.504  54.229  1.00  0.00    -0.008 A 
HETATM   12  C   UNL     1      28.540  46.258  55.304  1.00  0.00     0.017 A 
HETATM   13  C   UNL     1      29.569  45.759  56.108  1.00  0.00     0.043 A 
HETATM   14  C   UNL     1      30.103  44.505  55.840  1.00  0.00     0.116 A 
HETATM   15  F   UNL     1      31.089  44.029  56.612  1.00  0.00    -0.206 F 
HETATM   16  C   UNL     1      29.625  43.739  54.786  1.00  0.00     0.043 A 
HETATM   17  C   UNL     1      28.595  44.237  53.985  1.00  0.00     0.017 A 
ENDBRANCH   9  11
ENDBRANCH   2   5
BRANCH   1  18
HETATM   18  C   UNL     1      23.175  47.711  49.075  1.00  0.00     0.165 C 
BRANCH  18  19
HETATM   19  C   UNL     1      22.299  49.005  49.082  1.00  0.00     0.099 C 
HETATM   20  C   UNL     1      22.639  49.869  47.857  1.00  0.00     0.053 C 
BRANCH  19  21
HETATM   21  O   UNL     1      22.703  49.706  50.272  1.00  0.00    -0.384 OA
HETATM   22  H   UNL     1      21.906  49.842  50.815  1.00  0.00     0.211 HD
ENDBRANCH  19  21
BRANCH  19  23
HETATM   23  C   UNL     1      20.782  48.735  49.124  1.00  0.00    -0.001 A 
HETATM   24  C   UNL     1      19.827  49.722  49.456  1.00  0.00     0.043 A 
HETATM   25 CL   UNL     1      20.251  51.351  49.872  1.00  0.00    -0.084 Cl
HETATM   26  C   UNL     1      18.452  49.439  49.457  1.00  0.00     0.024 A 
HETATM   27  C   UNL     1      17.990  48.172  49.118  1.00  0.00     0.002 A 
HETATM   28  C   UNL     1      18.902  47.185  48.774  1.00  0.00     0.001 A 
HETATM   29  C   UNL     1      20.274  47.464  48.773  1.00  0.00     0.012 A 
ENDBRANCH  19  23
ENDBRANCH  18  19
ENDBRANCH   1  18
TORSDOF 6
ENDMDL
MODEL 5
REMARK VINA RESULT:      -9.0      1.759      2.205
REMARK  6 active torsions:
REMARK  status: ('A' for Active; 'I' for Inactive)
REMARK    1  A    between atoms: C_2  and  O_3 
REMARK    2  A    between atoms: C_2  and  C_4 
REMARK    3  A    between atoms: C_2  and  C_11 
REMARK    4  A    between atoms: C_11  and  N_12 
REMARK       I    between atoms: N_12  and  C_13 
REMARK    5  A    between atoms: C_13  and  C_14 
REMARK    6  A    between atoms: C_18  and  C_19 
ROOT
HETATM    1  N   UNL     1      26.304  45.632  51.744  1.00  0.00    -0.352 N 
HETATM    2  C   UNL     1      26.603  45.867  50.422  1.00  0.00     0.272 C 
HETATM    3  O   UNL     1      27.359  45.160  49.763  1.00  0.00    -0.266 OA
HETATM    4  H   UNL     1      25.572  46.211  52.149  1.00  0.00     0.162 HD
ENDROOT
BRANCH   2   5
HETATM    5  C   UNL     1      25.916  47.039  49.859  1.00  0.00     0.146 A 
HETATM    6  N   UNL     1      26.577  48.146  49.466  1.00  0.00    -0.169 NA
HETATM    7  N   UNL     1      25.605  48.967  49.033  1.00  0.00    -0.277 N 
HETATM    8  H   UNL     1      25.872  49.890  48.708  1.00  0.00     0.189 HD
HETATM    9  C   UNL     1      24.340  48.444  49.106  1.00  0.00     0.063 A 
HETATM   10  C   UNL     1      24.521  47.188  49.655  1.00  0.00     0.071 A 
BRANCH   9  11
HETATM   11  C   UNL     1      23.130  49.155  48.697  1.00  0.00    -0.008 A 
HETATM   12  C   UNL     1      22.063  48.484  48.077  1.00  0.00     0.017 A 
HETATM   13  C   UNL     1      20.912  49.179  47.694  1.00  0.00     0.043 A 
HETATM   14  C   UNL     1      20.824  50.544  47.930  1.00  0.00     0.116 A 
HETATM   15  F   UNL     1      19.720  51.207  47.561  1.00  0.00    -0.206 F 
HETATM   16  C   UNL     1      21.862  51.229  48.545  1.00  0.00     0.043 A 
HETATM   17  C   UNL     1      23.011  50.534  48.930  1.00  0.00     0.017 A 
ENDBRANCH   9  11
ENDBRANCH   2   5
BRANCH   1  18
HETATM   18  C   UNL     1      26.751  44.457  52.470  1.00  0.00     0.165 C 
BRANCH  18  19
HETATM   19  C   UNL     1      26.836  44.673  54.016  1.00  0.00     0.099 C 
HETATM   20  C   UNL     1      25.779  43.807  54.720  1.00  0.00     0.053 C 
BRANCH  19  21
HETATM   21  O   UNL     1      26.501  46.060  54.203  1.00  0.00    -0.384 OA
HETATM   22  H   UNL     1      26.075  46.370  53.384  1.00  0.00     0.211 HD
ENDBRANCH  19  21
BRANCH  19  23
HETATM   23  C   UNL     1      28.228  44.385  54.613  1.00  0.00    -0.001 A 
HETATM   24  C   UNL     1      28.903  43.155  54.450  1.00  0.00     0.043 A 
HETATM   25 CL   UNL     1      28.238  41.816  53.572  1.00  0.00    -0.084 Cl
HETATM   26  C   UNL     1      30.182  42.945  54.990  1.00  0.00     0.024 A 
HETATM   27  C   UNL     1      30.826  43.955  55.697  1.00  0.00     0.002 A 
HETATM   28  C   UNL     1      30.195  45.179  55.862  1.00  0.00     0.001 A 
HETATM   29  C   UNL     1      28.920  45.391  55.326  1.00  0.00     0.012 A 
ENDBRANCH  19  23
ENDBRANCH  18  19
ENDBRANCH   1  18
TORSDOF 6
ENDMDL
MODEL 6
REMARK VINA RESULT:      -8.5      1.529      2.357
REMARK  6 active torsions:
REMARK  status: ('A' for Active; 'I' for Inactive)
REMARK    1  A    between atoms: C_2  and  O_3 
REMARK    2  A    between atoms: C_2  and  C_4 
REMARK    3  A    between atoms: C_2  and  C_11 
REMARK    4  A    between atoms: C_11  and  N_12 
REMARK       I    between atoms: N_12  and  C_13 
REMARK    5  A    between atoms: C_13  and  C_14 
REMARK    6  A    between atoms: C_18  and  C_19 
ROOT
HETATM    1  N   UNL     1      25.458  45.859  49.847  1.00  0.00    -0.352 N 
HETATM    2  C   UNL     1      25.319  47.218  49.687  1.00  0.00     0.272 C 
HETATM    3  O   UNL     1      26.262  48.004  49.718  1.00  0.00    -0.266 OA
HETATM    4  H   UNL     1      24.625  45.299  49.679  1.00  0.00     0.162 HD
ENDROOT
BRANCH   2   5
HETATM    5  C   UNL     1      23.932  47.648  49.456  1.00  0.00     0.146 A 
HETATM    6  N   UNL     1      22.971  46.802  49.036  1.00  0.00    -0.169 NA
HETATM    7  N   UNL     1      21.877  47.576  48.939  1.00  0.00    -0.277 N 
HETATM    8  H   UNL     1      21.020  47.147  48.607  1.00  0.00     0.189 HD
HETATM    9  C   UNL     1      22.071  48.887  49.291  1.00  0.00     0.063 A 
HETATM   10  C   UNL     1      23.412  48.957  49.621  1.00  0.00     0.071 A 
BRANCH   9  11
HETATM   11  C   UNL     1      21.028  49.910  49.258  1.00  0.00    -0.008 A 
HETATM   12  C   UNL     1      21.125  51.024  48.408  1.00  0.00     0.017 A 
HETATM   13  C   UNL     1      20.118  51.994  48.387  1.00  0.00     0.043 A 
HETATM   14  C   UNL     1      19.012  51.852  49.214  1.00  0.00     0.116 A 
HETATM   15  F   UNL     1      18.048  52.782  49.192  1.00  0.00    -0.206 F 
HETATM   16  C   UNL     1      18.890  50.757  50.059  1.00  0.00     0.043 A 
HETATM   17  C   UNL     1      19.895  49.788  50.078  1.00  0.00     0.017 A 
ENDBRANCH   9  11
ENDBRANCH   2   5
BRANCH   1  18
HETATM   18  C   UNL     1      26.744  45.191  49.947  1.00  0.00     0.165 C 
BRANCH  18  19
HETATM   19  C   UNL     1      26.697  43.866  50.775  1.00  0.00     0.099 C 
HETATM   20  C   UNL     1      27.001  42.670  49.857  1.00  0.00     0.053 C 
BRANCH  19  21
HETATM   21  O   UNL     1      25.332  43.772  51.224  1.00  0.00    -0.384 OA
HETATM   22  H   UNL     1      25.326  43.207  52.017  1.00  0.00     0.211 HD
ENDBRANCH  19  21
BRANCH  19  23
HETATM   23  C   UNL     1      27.649  43.849  51.987  1.00  0.00    -0.001 A 
HETATM   24  C   UNL     1      27.477  44.676  53.120  1.00  0.00     0.043 A 
HETATM   25 CL   UNL     1      26.183  45.820  53.272  1.00  0.00    -0.084 Cl
HETATM   26  C   UNL     1      28.354  44.609  54.214  1.00  0.00     0.024 A 
HETATM   27  C   UNL     1      29.418  43.713  54.215  1.00  0.00     0.002 A 
HETATM   28  C   UNL     1      29.605  42.878  53.123  1.00  0.00     0.001 A 
HETATM   29  C   UNL     1      28.732  42.943  52.030  1.00  0.00     0.012 A 
ENDBRANCH  19  23
ENDBRANCH  18  19
ENDBRANCH   1  18
TORSDOF 6
ENDMDL
MODEL 7
REMARK VINA RESULT:      -8.4      2.749      2.944
REMARK  6 active torsions:
REMARK  status: ('A' for Active; 'I' for Inactive)
REMARK    1  A    between atoms: C_2  and  O_3 
REMARK    2  A    between atoms: C_2  and  C_4 
REMARK    3  A    between atoms: C_2  and  C_11 
REMARK    4  A    between atoms: C_11  and  N_12 
REMARK       I    between atoms: N_12  and  C_13 
REMARK    5  A    between atoms: C_13  and  C_14 
REMARK    6  A    between atoms: C_18  and  C_19 
ROOT
HETATM    1  N   UNL     1      26.636  43.842  51.644  1.00  0.00    -0.352 N 
HETATM    2  C   UNL     1      26.343  44.328  50.391  1.00  0.00     0.272 C 
HETATM    3  O   UNL     1      27.199  44.615  49.558  1.00  0.00    -0.266 OA
HETATM    4  H   UNL     1      25.845  43.526  52.199  1.00  0.00     0.162 HD
ENDROOT
BRANCH   2   5
HETATM    5  C   UNL     1      24.903  44.458  50.128  1.00  0.00     0.146 A 
HETATM    6  N   UNL     1      23.966  44.004  50.983  1.00  0.00    -0.169 NA
HETATM    7  N   UNL     1      22.803  44.301  50.378  1.00  0.00    -0.277 N 
HETATM    8  H   UNL     1      21.943  44.021  50.838  1.00  0.00     0.189 HD
HETATM    9  C   UNL     1      22.933  44.943  49.174  1.00  0.00     0.063 A 
HETATM   10  C   UNL     1      24.299  45.044  48.986  1.00  0.00     0.071 A 
BRANCH   9  11
HETATM   11  C   UNL     1      21.808  45.357  48.337  1.00  0.00    -0.008 A 
HETATM   12  C   UNL     1      20.480  45.157  48.748  1.00  0.00     0.017 A 
HETATM   13  C   UNL     1      19.416  45.561  47.936  1.00  0.00     0.043 A 
HETATM   14  C   UNL     1      19.676  46.166  46.714  1.00  0.00     0.116 A 
HETATM   15  F   UNL     1      18.654  46.552  45.938  1.00  0.00    -0.206 F 
HETATM   16  C   UNL     1      20.979  46.379  46.288  1.00  0.00     0.043 A 
HETATM   17  C   UNL     1      22.042  45.977  47.099  1.00  0.00     0.017 A 
ENDBRANCH   9  11
ENDBRANCH   2   5
BRANCH   1  18
HETATM   18  C   UNL     1      27.979  43.499  52.077  1.00  0.00     0.165 C 
BRANCH  18  19
HETATM   19  C   UNL     1      28.034  42.878  53.510  1.00  0.00     0.099 C 
HETATM   20  C   UNL     1      28.472  41.406  53.421  1.00  0.00     0.053 C 
BRANCH  19  21
HETATM   21  O   UNL     1      26.673  42.931  53.976  1.00  0.00    -0.384 OA
HETATM   22  H   UNL     1      26.639  43.581  54.700  1.00  0.00     0.211 HD
ENDBRANCH  19  21
BRANCH  19  23
HETATM   23  C   UNL     1      28.952  43.636  54.488  1.00  0.00    -0.001 A 
HETATM   24  C   UNL     1      28.698  44.956  54.925  1.00  0.00     0.043 A 
HETATM   25 CL   UNL     1      27.332  45.884  54.398  1.00  0.00    -0.084 Cl
HETATM   26  C   UNL     1      29.548  45.600  55.838  1.00  0.00     0.024 A 
HETATM   27  C   UNL     1      30.665  44.948  56.348  1.00  0.00     0.002 A 
HETATM   28  C   UNL     1      30.933  43.647  55.949  1.00  0.00     0.001 A 
HETATM   29  C   UNL     1      30.089  43.001  55.038  1.00  0.00     0.012 A 
ENDBRANCH  19  23
ENDBRANCH  18  19
ENDBRANCH   1  18
TORSDOF 6
ENDMDL
MODEL 8
REMARK VINA RESULT:      -8.1      5.269      8.448
REMARK  6 active torsions:
REMARK  status: ('A' for Active; 'I' for Inactive)
REMARK    1  A    between atoms: C_2  and  O_3 
REMARK    2  A    between atoms: C_2  and  C_4 
REMARK    3  A    between atoms: C_2  and  C_11 
REMARK    4  A    between atoms: C_11  and  N_12 
REMARK       I    between atoms: N_12  and  C_13 
REMARK    5  A    between atoms: C_13  and  C_14 
REMARK    6  A    between atoms: C_18  and  C_19 
ROOT
HETATM    1  N   UNL     1      26.145  44.314  50.697  1.00  0.00    -0.352 N 
HETATM    2  C   UNL     1      25.511  44.779  51.824  1.00  0.00     0.272 C 
HETATM    3  O   UNL     1      24.290  44.878  51.924  1.00  0.00    -0.266 OA
HETATM    4  H   UNL     1      27.148  44.161  50.776  1.00  0.00     0.162 HD
ENDROOT
BRANCH   2   5
HETATM    5  C   UNL     1      26.428  45.134  52.917  1.00  0.00     0.146 A 
HETATM    6  N   UNL     1      26.379  46.323  53.548  1.00  0.00    -0.169 NA
HETATM    7  N   UNL     1      27.371  46.253  54.452  1.00  0.00    -0.277 N 
HETATM    8  H   UNL     1      27.540  47.065  55.035  1.00  0.00     0.189 HD
HETATM    9  C   UNL     1      28.059  45.067  54.454  1.00  0.00     0.063 A 
HETATM   10  C   UNL     1      27.465  44.326  53.449  1.00  0.00     0.071 A 
BRANCH   9  11
HETATM   11  C   UNL     1      29.178  44.767  55.344  1.00  0.00    -0.008 A 
HETATM   12  C   UNL     1      29.996  43.644  55.136  1.00  0.00     0.017 A 
HETATM   13  C   UNL     1      31.065  43.373  55.996  1.00  0.00     0.043 A 
HETATM   14  C   UNL     1      31.320  44.223  57.064  1.00  0.00     0.116 A 
HETATM   15  F   UNL     1      32.345  43.961  57.886  1.00  0.00    -0.206 F 
HETATM   16  C   UNL     1      30.530  45.341  57.288  1.00  0.00     0.043 A 
HETATM   17  C   UNL     1      29.463  45.614  56.428  1.00  0.00     0.017 A 
ENDBRANCH   9  11
ENDBRANCH   2   5
BRANCH   1  18
HETATM   18  C   UNL     1      25.442  43.774  49.546  1.00  0.00     0.165 C 
BRANCH  18  19
HETATM   19  C   UNL     1      25.245  42.225  49.605  1.00  0.00     0.099 C 
HETATM   20  C   UNL     1      24.038  41.821  48.741  1.00  0.00     0.053 C 
BRANCH  19  21
HETATM   21  O   UNL     1      24.939  41.954  50.985  1.00  0.00    -0.384 OA
HETATM   22  H   UNL     1      25.773  41.706  51.424  1.00  0.00     0.211 HD
ENDBRANCH  19  21
BRANCH  19  23
HETATM   23  C   UNL     1      26.486  41.418  49.176  1.00  0.00    -0.001 A 
HETATM   24  C   UNL     1      27.428  40.896  50.092  1.00  0.00     0.043 A 
HETATM   25 CL   UNL     1      27.306  41.118  51.807  1.00  0.00    -0.084 Cl
HETATM   26  C   UNL     1      28.531  40.145  49.658  1.00  0.00     0.024 A 
HETATM   27  C   UNL     1      28.722  39.884  48.306  1.00  0.00     0.002 A 
HETATM   28  C   UNL     1      27.808  40.370  47.383  1.00  0.00     0.001 A 
HETATM   29  C   UNL     1      26.707  41.120  47.812  1.00  0.00     0.012 A 
ENDBRANCH  19  23
ENDBRANCH  18  19
ENDBRANCH   1  18
TORSDOF 6
ENDMDL
MODEL 9
REMARK VINA RESULT:      -8.1      6.396      9.279
REMARK  6 active torsions:
REMARK  status: ('A' for Active; 'I' for Inactive)
REMARK    1  A    between atoms: C_2  and  O_3 
REMARK    2  A    between atoms: C_2  and  C_4 
REMARK    3  A    between atoms: C_2  and  C_11 
REMARK    4  A    between atoms: C_11  and  N_12 
REMARK       I    between atoms: N_12  and  C_13 
REMARK    5  A    between atoms: C_13  and  C_14 
REMARK    6  A    between atoms: C_18  and  C_19 
ROOT
HETATM    1  N   UNL     1      27.766  40.642  50.642  1.00  0.00    -0.352 N 
HETATM    2  C   UNL     1      26.818  41.586  50.961  1.00  0.00     0.272 C 
HETATM    3  O   UNL     1      25.668  41.562  50.531  1.00  0.00    -0.266 OA
HETATM    4  H   UNL     1      28.644  40.697  51.154  1.00  0.00     0.162 HD
ENDROOT
BRANCH   2   5
HETATM    5  C   UNL     1      27.302  42.624  51.883  1.00  0.00     0.146 A 
HETATM    6  N   UNL     1      26.964  43.922  51.754  1.00  0.00    -0.169 NA
HETATM    7  N   UNL     1      27.609  44.527  52.765  1.00  0.00    -0.277 N 
HETATM    8  H   UNL     1      27.521  45.534  52.851  1.00  0.00     0.189 HD
HETATM    9  C   UNL     1      28.341  43.684  53.562  1.00  0.00     0.063 A 
HETATM   10  C   UNL     1      28.163  42.437  52.994  1.00  0.00     0.071 A 
BRANCH   9  11
HETATM   11  C   UNL     1      29.128  44.119  54.715  1.00  0.00    -0.008 A 
HETATM   12  C   UNL     1      30.236  43.381  55.162  1.00  0.00     0.017 A 
HETATM   13  C   UNL     1      30.979  43.811  56.265  1.00  0.00     0.043 A 
HETATM   14  C   UNL     1      30.618  44.979  56.923  1.00  0.00     0.116 A 
HETATM   15  F   UNL     1      31.332  45.390  57.980  1.00  0.00    -0.206 F 
HETATM   16  C   UNL     1      29.530  45.728  56.497  1.00  0.00     0.043 A 
HETATM   17  C   UNL     1      28.789  45.300  55.394  1.00  0.00     0.017 A 
ENDBRANCH   9  11
ENDBRANCH   2   5
BRANCH   1  18
HETATM   18  C   UNL     1      27.481  39.450  49.864  1.00  0.00     0.165 C 
BRANCH  18  19
HETATM   19  C   UNL     1      28.702  38.939  49.033  1.00  0.00     0.099 C 
HETATM   20  C   UNL     1      29.363  37.754  49.756  1.00  0.00     0.053 C 
BRANCH  19  21
HETATM   21  O   UNL     1      29.619  40.048  49.024  1.00  0.00    -0.384 OA
HETATM   22  H   UNL     1      30.447  39.744  49.436  1.00  0.00     0.211 HD
ENDBRANCH  19  21
BRANCH  19  23
HETATM   23  C   UNL     1      28.353  38.537  47.586  1.00  0.00    -0.001 A 
HETATM   24  C   UNL     1      27.878  39.453  46.620  1.00  0.00     0.043 A 
HETATM   25 CL   UNL     1      27.617  41.134  46.953  1.00  0.00    -0.084 Cl
HETATM   26  C   UNL     1      27.597  39.048  45.305  1.00  0.00     0.024 A 
HETATM   27  C   UNL     1      27.789  37.728  44.915  1.00  0.00     0.002 A 
HETATM   28  C   UNL     1      28.267  36.808  45.837  1.00  0.00     0.001 A 
HETATM   29  C   UNL     1      28.548  37.208  47.148  1.00  0.00     0.012 A 
ENDBRANCH  19  23
ENDBRANCH  18  19
ENDBRANCH   1  18
TORSDOF 6
ENDMDL
MODEL 10
REMARK VINA RESULT:      -8.1     18.217     20.476
REMARK  6 active torsions:
REMARK  status: ('A' for Active; 'I' for Inactive)
REMARK    1  A    between atoms: C_2  and  O_3 
REMARK    2  A    between atoms: C_2  and  C_4 
REMARK    3  A    between atoms: C_2  and  C_11 
REMARK    4  A    between atoms: C_11  and  N_12 
REMARK       I    between atoms: N_12  and  C_13 
REMARK    5  A    between atoms: C_13  and  C_14 
REMARK    6  A    between atoms: C_18  and  C_19 
ROOT
HETATM    1  N   UNL     1      38.154  46.652  64.392  1.00  0.00    -0.352 N 
HETATM    2  C   UNL     1      37.392  45.591  63.962  1.00  0.00     0.272 C 
HETATM    3  O   UNL     1      36.164  45.607  63.933  1.00  0.00    -0.266 OA
HETATM    4  H   UNL     1      39.159  46.567  64.255  1.00  0.00     0.162 HD
ENDROOT
BRANCH   2   5
HETATM    5  C   UNL     1      38.183  44.433  63.519  1.00  0.00     0.146 A 
HETATM    6  N   UNL     1      38.746  44.366  62.297  1.00  0.00    -0.169 NA
HETATM    7  N   UNL     1      39.356  43.168  62.287  1.00  0.00    -0.277 N 
HETATM    8  H   UNL     1      39.833  42.885  61.438  1.00  0.00     0.189 HD
HETATM    9  C   UNL     1      39.232  42.454  63.451  1.00  0.00     0.063 A 
HETATM   10  C   UNL     1      38.458  43.259  64.265  1.00  0.00     0.071 A 
BRANCH   9  11
HETATM   11  C   UNL     1      39.806  41.127  63.667  1.00  0.00    -0.008 A 
HETATM   12  C   UNL     1      39.480  40.046  62.831  1.00  0.00     0.017 A 
HETATM   13  C   UNL     1      40.039  38.784  63.050  1.00  0.00     0.043 A 
HETATM   14  C   UNL     1      40.927  38.599  64.102  1.00  0.00     0.116 A 
HETATM   15  F   UNL     1      41.461  37.388  64.309  1.00  0.00    -0.206 F 
HETATM   16  C   UNL     1      41.269  39.652  64.938  1.00  0.00     0.043 A 
HETATM   17  C   UNL     1      40.711  40.914  64.718  1.00  0.00     0.017 A 
ENDBRANCH   9  11
ENDBRANCH   2   5
BRANCH   1  18
HETATM   18  C   UNL     1      37.600  47.947  64.742  1.00  0.00     0.165 C 
BRANCH  18  19
HETATM   19  C   UNL     1      37.285  48.101  66.266  1.00  0.00     0.099 C 
HETATM   20  C   UNL     1      38.257  47.237  67.086  1.00  0.00     0.053 C 
BRANCH  19  21
HETATM   21  O   UNL     1      35.955  47.571  66.413  1.00  0.00    -0.384 OA
HETATM   22  H   UNL     1      35.421  48.248  66.866  1.00  0.00     0.211 HD
ENDBRANCH  19  21
BRANCH  19  23
HETATM   23  C   UNL     1      37.328  49.556  66.771  1.00  0.00    -0.001 A 
HETATM   24  C   UNL     1      36.944  49.936  68.078  1.00  0.00     0.043 A 
HETATM   25 CL   UNL     1      36.363  48.809  69.261  1.00  0.00    -0.084 Cl
HETATM   26  C   UNL     1      37.023  51.271  68.504  1.00  0.00     0.024 A 
HETATM   27  C   UNL     1      37.494  52.260  67.649  1.00  0.00     0.002 A 
HETATM   28  C   UNL     1      37.892  51.918  66.365  1.00  0.00     0.001 A 
HETATM   29  C   UNL     1      37.814  50.588  65.936  1.00  0.00     0.012 A 
ENDBRANCH  19  23
ENDBRANCH  18  19
ENDBRANCH   1  18
TORSDOF 6
ENDMDL
