MODEL 1
REMARK VINA RESULT:     -10.2      0.000      0.000
REMARK  7 active torsions:
REMARK  status: ('A' for Active; 'I' for Inactive)
REMARK    1  A    between atoms: N_6  and  C_7 
REMARK    2  A    between atoms: C_11  and  N_12 
REMARK    3  A    between atoms: N_12  and  C_13 
REMARK    4  A    between atoms: C_13  and  N_14 
REMARK       I    between atoms: N_14  and  C_15 
REMARK    5  A    between atoms: C_15  and  C_16 
REMARK    6  A    between atoms: C_17  and  C_18 
REMARK    7  A    between atoms: C_20  and  C_21 
ROOT
HETATM    1  C   UNL     1      26.206  47.718  49.514  1.00  0.00     0.179 C 
HETATM    2  S   UNL     1      26.929  49.135  49.008  1.00  0.00    -0.040 SA
ENDROOT
BRANCH   1   3
HETATM    3  N   UNL     1      24.942  47.853  50.026  1.00  0.00    -0.333 N 
HETATM    4  H   UNL     1      24.948  47.740  51.039  1.00  0.00     0.168 HD
BRANCH   3   5
HETATM    5  C   UNL     1      23.665  47.978  49.445  1.00  0.00     0.036 A 
HETATM    6  C   UNL     1      23.059  49.232  49.553  1.00  0.00     0.055 A 
HETATM    7  C   UNL     1      21.755  49.446  49.089  1.00  0.00     0.062 A 
HETATM    8  C   UNL     1      21.006  48.413  48.484  1.00  0.00     0.052 A 
HETATM    9 CL   UNL     1      21.062  51.006  49.416  1.00  0.00    -0.082 Cl
HETATM   10  C   UNL     1      21.637  47.164  48.378  1.00  0.00     0.033 A 
HETATM   11  C   UNL     1      22.940  46.942  48.859  1.00  0.00     0.032 A 
BRANCH   8  12
HETATM   12  N   UNL     1      19.685  48.598  48.080  1.00  0.00    -0.376 N 
HETATM   13  C   UNL     1      19.443  49.263  46.788  1.00  0.00     0.150 C 
HETATM   14  C   UNL     1      18.135  50.077  46.888  1.00  0.00     0.254 C 
HETATM   15  N   UNL     1      16.970  49.176  47.326  1.00  0.00    -0.072 N 
HETATM   16  C   UNL     1      15.695  49.955  47.462  1.00  0.00     0.269 C 
HETATM   17  H   UNL     1      16.837  48.477  46.585  1.00  0.00     0.279 HD
HETATM   18  C   UNL     1      17.299  48.413  48.614  1.00  0.00     0.254 C 
HETATM   19  C   UNL     1      18.640  47.653  48.491  1.00  0.00     0.150 C 
ENDBRANCH   8  12
ENDBRANCH   3   5
ENDBRANCH   1   3
BRANCH   1  20
HETATM   20  N   UNL     1      26.706  46.433  49.416  1.00  0.00    -0.300 N 
HETATM   21  C   UNL     1      26.541  45.236  50.098  1.00  0.00     0.247 C 
HETATM   22  O   UNL     1      27.477  44.440  50.124  1.00  0.00    -0.268 OA
HETATM   23  H   UNL     1      27.623  46.418  48.991  1.00  0.00     0.171 HD
BRANCH  21  24
HETATM   24  C   UNL     1      25.260  44.963  50.787  1.00  0.00     0.077 C 
HETATM   25  C   UNL     1      24.999  45.256  52.070  1.00  0.00     0.042 C 
BRANCH  25  26
HETATM   26  C   UNL     1      25.956  45.764  52.983  1.00  0.00     0.076 A 
HETATM   27  O   UNL     1      26.952  45.007  53.560  1.00  0.00    -0.310 OA
HETATM   28  C   UNL     1      27.675  45.809  54.393  1.00  0.00     0.086 A 
HETATM   29  C   UNL     1      27.163  47.086  54.371  1.00  0.00     0.041 A 
HETATM   30  C   UNL     1      26.053  47.050  53.496  1.00  0.00     0.040 A 
BRANCH  28  31
HETATM   31  C   UNL     1      28.783  45.178  55.093  1.00  0.00    -0.002 A 
HETATM   32  C   UNL     1      29.344  43.987  54.611  1.00  0.00     0.016 A 
HETATM   33  C   UNL     1      30.422  43.387  55.271  1.00  0.00     0.024 A 
HETATM   34  C   UNL     1      30.950  43.984  56.413  1.00  0.00     0.034 A 
HETATM   35 CL   UNL     1      32.269  43.245  57.235  1.00  0.00    -0.084 Cl
HETATM   36  C   UNL     1      30.413  45.173  56.900  1.00  0.00     0.024 A 
HETATM   37  C   UNL     1      29.329  45.764  56.246  1.00  0.00     0.016 A 
ENDBRANCH  28  31
ENDBRANCH  25  26
ENDBRANCH  21  24
ENDBRANCH   1  20
TORSDOF 7
ENDMDL
MODEL 2
REMARK VINA RESULT:      -9.9      1.986      2.404
REMARK  7 active torsions:
REMARK  status: ('A' for Active; 'I' for Inactive)
REMARK    1  A    between atoms: N_6  and  C_7 
REMARK    2  A    between atoms: C_11  and  N_12 
REMARK    3  A    between atoms: N_12  and  C_13 
REMARK    4  A    between atoms: C_13  and  N_14 
REMARK       I    between atoms: N_14  and  C_15 
REMARK    5  A    between atoms: C_15  and  C_16 
REMARK    6  A    between atoms: C_17  and  C_18 
REMARK    7  A    between atoms: C_20  and  C_21 
ROOT
HETATM    1  C   UNL     1      24.291  44.314  49.165  1.00  0.00     0.179 C 
HETATM    2  S   UNL     1      23.390  43.179  49.995  1.00  0.00    -0.040 SA
ENDROOT
BRANCH   1   3
HETATM    3  N   UNL     1      23.606  45.033  48.222  1.00  0.00    -0.333 N 
HETATM    4  H   UNL     1      24.065  44.969  47.315  1.00  0.00     0.168 HD
BRANCH   3   5
HETATM    5  C   UNL     1      22.512  45.919  48.278  1.00  0.00     0.036 A 
HETATM    6  C   UNL     1      22.815  47.259  48.531  1.00  0.00     0.055 A 
HETATM    7  C   UNL     1      21.801  48.210  48.695  1.00  0.00     0.062 A 
HETATM    8  C   UNL     1      20.436  47.861  48.598  1.00  0.00     0.052 A 
HETATM    9 CL   UNL     1      22.305  49.809  49.153  1.00  0.00    -0.082 Cl
HETATM   10  C   UNL     1      20.154  46.512  48.333  1.00  0.00     0.033 A 
HETATM   11  C   UNL     1      21.171  45.552  48.186  1.00  0.00     0.032 A 
BRANCH   8  12
HETATM   12  N   UNL     1      19.419  48.786  48.824  1.00  0.00    -0.376 N 
HETATM   13  C   UNL     1      18.479  49.066  47.725  1.00  0.00     0.150 C 
HETATM   14  C   UNL     1      18.035  50.542  47.815  1.00  0.00     0.254 C 
HETATM   15  N   UNL     1      17.444  50.844  49.201  1.00  0.00    -0.072 N 
HETATM   16  C   UNL     1      17.038  52.283  49.321  1.00  0.00     0.269 C 
HETATM   17  H   UNL     1      16.600  50.267  49.300  1.00  0.00     0.279 HD
HETATM   18  C   UNL     1      18.404  50.438  50.325  1.00  0.00     0.254 C 
HETATM   19  C   UNL     1      18.864  48.970  50.170  1.00  0.00     0.150 C 
ENDBRANCH   8  12
ENDBRANCH   3   5
ENDBRANCH   1   3
BRANCH   1  20
HETATM   20  N   UNL     1      25.617  44.650  49.366  1.00  0.00    -0.300 N 
HETATM   21  C   UNL     1      26.327  45.807  49.650  1.00  0.00     0.247 C 
HETATM   22  O   UNL     1      27.487  45.899  49.254  1.00  0.00    -0.268 OA
HETATM   23  H   UNL     1      26.242  44.020  48.882  1.00  0.00     0.171 HD
BRANCH  21  24
HETATM   24  C   UNL     1      25.668  46.900  50.400  1.00  0.00     0.077 C 
HETATM   25  C   UNL     1      25.551  46.955  51.736  1.00  0.00     0.042 C 
BRANCH  25  26
HETATM   26  C   UNL     1      25.940  45.913  52.614  1.00  0.00     0.076 A 
HETATM   27  O   UNL     1      27.172  45.838  53.227  1.00  0.00    -0.310 OA
HETATM   28  C   UNL     1      27.208  44.704  53.983  1.00  0.00     0.086 A 
HETATM   29  C   UNL     1      26.013  44.031  53.872  1.00  0.00     0.041 A 
HETATM   30  C   UNL     1      25.217  44.786  52.980  1.00  0.00     0.040 A 
BRANCH  28  31
HETATM   31  C   UNL     1      28.440  44.457  54.715  1.00  0.00    -0.002 A 
HETATM   32  C   UNL     1      28.922  45.398  55.636  1.00  0.00     0.016 A 
HETATM   33  C   UNL     1      30.097  45.157  56.355  1.00  0.00     0.024 A 
HETATM   34  C   UNL     1      30.791  43.964  56.163  1.00  0.00     0.034 A 
HETATM   35 CL   UNL     1      32.242  43.666  57.038  1.00  0.00    -0.084 Cl
HETATM   36  C   UNL     1      30.322  43.012  55.261  1.00  0.00     0.024 A 
HETATM   37  C   UNL     1      29.154  43.262  54.535  1.00  0.00     0.016 A 
ENDBRANCH  28  31
ENDBRANCH  25  26
ENDBRANCH  21  24
ENDBRANCH   1  20
TORSDOF 7
ENDMDL
MODEL 3
REMARK VINA RESULT:      -9.7      4.902      8.679
REMARK  7 active torsions:
REMARK  status: ('A' for Active; 'I' for Inactive)
REMARK    1  A    between atoms: N_6  and  C_7 
REMARK    2  A    between atoms: C_11  and  N_12 
REMARK    3  A    between atoms: N_12  and  C_13 
REMARK    4  A    between atoms: C_13  and  N_14 
REMARK       I    between atoms: N_14  and  C_15 
REMARK    5  A    between atoms: C_15  and  C_16 
REMARK    6  A    between atoms: C_17  and  C_18 
REMARK    7  A    between atoms: C_20  and  C_21 
ROOT
HETATM    1  C   UNL     1      24.757  44.582  48.964  1.00  0.00     0.179 C 
HETATM    2  S   UNL     1      23.254  45.282  49.169  1.00  0.00    -0.040 SA
ENDROOT
BRANCH   1   3
HETATM    3  N   UNL     1      24.751  43.330  48.408  1.00  0.00    -0.333 N 
HETATM    4  H   UNL     1      24.030  43.254  47.693  1.00  0.00     0.168 HD
BRANCH   3   5
HETATM    5  C   UNL     1      25.427  42.130  48.705  1.00  0.00     0.036 A 
HETATM    6  C   UNL     1      25.948  42.019  49.997  1.00  0.00     0.055 A 
HETATM    7  C   UNL     1      26.712  40.909  50.374  1.00  0.00     0.062 A 
HETATM    8  C   UNL     1      26.977  39.852  49.475  1.00  0.00     0.052 A 
HETATM    9 CL   UNL     1      27.427  40.961  51.958  1.00  0.00    -0.082 Cl
HETATM   10  C   UNL     1      26.436  39.979  48.187  1.00  0.00     0.033 A 
HETATM   11  C   UNL     1      25.683  41.102  47.800  1.00  0.00     0.032 A 
BRANCH   8  12
HETATM   12  N   UNL     1      27.791  38.775  49.820  1.00  0.00    -0.376 N 
HETATM   13  C   UNL     1      27.375  37.428  49.395  1.00  0.00     0.150 C 
HETATM   14  C   UNL     1      27.832  36.408  50.461  1.00  0.00     0.254 C 
HETATM   15  N   UNL     1      29.345  36.520  50.701  1.00  0.00    -0.072 N 
HETATM   16  C   UNL     1      29.805  35.561  51.759  1.00  0.00     0.269 C 
HETATM   17  H   UNL     1      29.809  36.267  49.820  1.00  0.00     0.279 HD
HETATM   18  C   UNL     1      29.760  37.958  51.033  1.00  0.00     0.254 C 
HETATM   19  C   UNL     1      29.240  38.953  49.969  1.00  0.00     0.150 C 
ENDBRANCH   8  12
ENDBRANCH   3   5
ENDBRANCH   1   3
BRANCH   1  20
HETATM   20  N   UNL     1      25.992  45.143  49.227  1.00  0.00    -0.300 N 
HETATM   21  C   UNL     1      26.467  46.382  49.630  1.00  0.00     0.247 C 
HETATM   22  O   UNL     1      27.592  46.726  49.273  1.00  0.00    -0.268 OA
HETATM   23  H   UNL     1      26.730  44.688  48.707  1.00  0.00     0.171 HD
BRANCH  21  24
HETATM   24  C   UNL     1      25.606  47.259  50.455  1.00  0.00     0.077 C 
HETATM   25  C   UNL     1      25.353  47.082  51.760  1.00  0.00     0.042 C 
BRANCH  25  26
HETATM   26  C   UNL     1      25.783  45.959  52.510  1.00  0.00     0.076 A 
HETATM   27  O   UNL     1      26.996  45.882  53.160  1.00  0.00    -0.310 OA
HETATM   28  C   UNL     1      27.085  44.661  53.762  1.00  0.00     0.086 A 
HETATM   29  C   UNL     1      25.943  43.934  53.513  1.00  0.00     0.041 A 
HETATM   30  C   UNL     1      25.128  44.749  52.694  1.00  0.00     0.040 A 
BRANCH  28  31
HETATM   31  C   UNL     1      28.307  44.398  54.506  1.00  0.00    -0.002 A 
HETATM   32  C   UNL     1      29.047  43.231  54.267  1.00  0.00     0.016 A 
HETATM   33  C   UNL     1      30.232  42.982  54.968  1.00  0.00     0.024 A 
HETATM   34  C   UNL     1      30.687  43.906  55.905  1.00  0.00     0.034 A 
HETATM   35 CL   UNL     1      32.138  43.600  56.777  1.00  0.00    -0.084 Cl
HETATM   36  C   UNL     1      29.971  45.076  56.147  1.00  0.00     0.024 A 
HETATM   37  C   UNL     1      28.781  45.316  55.454  1.00  0.00     0.016 A 
ENDBRANCH  28  31
ENDBRANCH  25  26
ENDBRANCH  21  24
ENDBRANCH   1  20
TORSDOF 7
ENDMDL
MODEL 4
REMARK VINA RESULT:      -9.7      2.096      2.676
REMARK  7 active torsions:
REMARK  status: ('A' for Active; 'I' for Inactive)
REMARK    1  A    between atoms: N_6  and  C_7 
REMARK    2  A    between atoms: C_11  and  N_12 
REMARK    3  A    between atoms: N_12  and  C_13 
REMARK    4  A    between atoms: C_13  and  N_14 
REMARK       I    between atoms: N_14  and  C_15 
REMARK    5  A    between atoms: C_15  and  C_16 
REMARK    6  A    between atoms: C_17  and  C_18 
REMARK    7  A    between atoms: C_20  and  C_21 
ROOT
HETATM    1  C   UNL     1      23.944  47.267  49.466  1.00  0.00     0.179 C 
HETATM    2  S   UNL     1      25.325  48.206  49.427  1.00  0.00    -0.040 SA
ENDROOT
BRANCH   1   3
HETATM    3  N   UNL     1      22.951  47.644  48.601  1.00  0.00    -0.333 N 
HETATM    4  H   UNL     1      23.033  47.145  47.717  1.00  0.00     0.168 HD
BRANCH   3   5
HETATM    5  C   UNL     1      21.957  48.642  48.635  1.00  0.00     0.036 A 
HETATM    6  C   UNL     1      20.703  48.247  49.105  1.00  0.00     0.055 A 
HETATM    7  C   UNL     1      19.618  49.132  49.100  1.00  0.00     0.062 A 
HETATM    8  C   UNL     1      19.748  50.460  48.636  1.00  0.00     0.052 A 
HETATM    9 CL   UNL     1      18.079  48.476  49.570  1.00  0.00    -0.082 Cl
HETATM   10  C   UNL     1      21.019  50.839  48.177  1.00  0.00     0.033 A 
HETATM   11  C   UNL     1      22.105  49.946  48.164  1.00  0.00     0.032 A 
BRANCH   8  12
HETATM   12  N   UNL     1      18.660  51.328  48.565  1.00  0.00    -0.376 N 
HETATM   13  C   UNL     1      18.459  52.278  49.673  1.00  0.00     0.150 C 
HETATM   14  C   UNL     1      16.944  52.510  49.857  1.00  0.00     0.254 C 
HETATM   15  N   UNL     1      16.307  52.981  48.541  1.00  0.00    -0.072 N 
HETATM   16  C   UNL     1      14.827  53.180  48.689  1.00  0.00     0.269 C 
HETATM   17  H   UNL     1      16.727  53.889  48.311  1.00  0.00     0.279 HD
HETATM   18  C   UNL     1      16.628  52.027  47.384  1.00  0.00     0.254 C 
HETATM   19  C   UNL     1      18.151  51.781  47.266  1.00  0.00     0.150 C 
ENDBRANCH   8  12
ENDBRANCH   3   5
ENDBRANCH   1   3
BRANCH   1  20
HETATM   20  N   UNL     1      23.718  46.128  50.216  1.00  0.00    -0.300 N 
HETATM   21  C   UNL     1      24.082  44.791  50.146  1.00  0.00     0.247 C 
HETATM   22  O   UNL     1      23.325  43.949  50.625  1.00  0.00    -0.268 OA
HETATM   23  H   UNL     1      22.848  46.181  50.728  1.00  0.00     0.171 HD
BRANCH  21  24
HETATM   24  C   UNL     1      25.351  44.416  49.484  1.00  0.00     0.077 C 
HETATM   25  C   UNL     1      26.547  44.356  50.089  1.00  0.00     0.042 C 
BRANCH  25  26
HETATM   26  C   UNL     1      26.784  44.757  51.427  1.00  0.00     0.076 A 
HETATM   27  O   UNL     1      27.840  44.312  52.192  1.00  0.00    -0.310 OA
HETATM   28  C   UNL     1      27.750  44.886  53.426  1.00  0.00     0.086 A 
HETATM   29  C   UNL     1      26.643  45.704  53.480  1.00  0.00     0.041 A 
HETATM   30  C   UNL     1      26.015  45.600  52.218  1.00  0.00     0.040 A 
BRANCH  28  31
HETATM   31  C   UNL     1      28.791  44.534  54.379  1.00  0.00    -0.002 A 
HETATM   32  C   UNL     1      29.409  43.277  54.324  1.00  0.00     0.016 A 
HETATM   33  C   UNL     1      30.424  42.941  55.226  1.00  0.00     0.024 A 
HETATM   34  C   UNL     1      30.832  43.868  56.183  1.00  0.00     0.034 A 
HETATM   35 CL   UNL     1      32.072  43.456  57.302  1.00  0.00    -0.084 Cl
HETATM   36  C   UNL     1      30.237  45.125  56.245  1.00  0.00     0.024 A 
HETATM   37  C   UNL     1      29.215  45.454  55.349  1.00  0.00     0.016 A 
ENDBRANCH  28  31
ENDBRANCH  25  26
ENDBRANCH  21  24
ENDBRANCH   1  20
TORSDOF 7
ENDMDL
MODEL 5
REMARK VINA RESULT:      -9.2      2.175      2.931
REMARK  7 active torsions:
REMARK  status: ('A' for Active; 'I' for Inactive)
REMARK    1  A    between atoms: N_6  and  C_7 
REMARK    2  A    between atoms: C_11  and  N_12 
REMARK    3  A    between atoms: N_12  and  C_13 
REMARK    4  A    between atoms: C_13  and  N_14 
REMARK       I    between atoms: N_14  and  C_15 
REMARK    5  A    between atoms: C_15  and  C_16 
REMARK    6  A    between atoms: C_17  and  C_18 
REMARK    7  A    between atoms: C_20  and  C_21 
ROOT
HETATM    1  C   UNL     1      24.755  46.126  50.244  1.00  0.00     0.179 C 
HETATM    2  S   UNL     1      25.859  47.316  50.637  1.00  0.00    -0.040 SA
ENDROOT
BRANCH   1   3
HETATM    3  N   UNL     1      23.984  46.380  49.141  1.00  0.00    -0.333 N 
HETATM    4  H   UNL     1      24.380  45.938  48.313  1.00  0.00     0.168 HD
BRANCH   3   5
HETATM    5  C   UNL     1      22.869  47.208  48.901  1.00  0.00     0.036 A 
HETATM    6  C   UNL     1      23.115  48.584  48.889  1.00  0.00     0.055 A 
HETATM    7  C   UNL     1      22.067  49.502  48.748  1.00  0.00     0.062 A 
HETATM    8  C   UNL     1      20.727  49.081  48.599  1.00  0.00     0.052 A 
HETATM    9 CL   UNL     1      22.484  51.183  48.899  1.00  0.00    -0.082 Cl
HETATM   10  C   UNL     1      20.505  47.695  48.604  1.00  0.00     0.033 A 
HETATM   11  C   UNL     1      21.553  46.771  48.763  1.00  0.00     0.032 A 
BRANCH   8  12
HETATM   12  N   UNL     1      19.672  49.987  48.524  1.00  0.00    -0.376 N 
HETATM   13  C   UNL     1      19.279  50.697  49.753  1.00  0.00     0.150 C 
HETATM   14  C   UNL     1      17.756  50.947  49.716  1.00  0.00     0.254 C 
HETATM   15  N   UNL     1      17.364  51.702  48.437  1.00  0.00    -0.072 N 
HETATM   16  C   UNL     1      15.883  51.926  48.365  1.00  0.00     0.269 C 
HETATM   17  H   UNL     1      17.822  52.621  48.479  1.00  0.00     0.279 HD
HETATM   18  C   UNL     1      17.884  50.994  47.181  1.00  0.00     0.254 C 
HETATM   19  C   UNL     1      19.403  50.717  47.280  1.00  0.00     0.150 C 
ENDBRANCH   8  12
ENDBRANCH   3   5
ENDBRANCH   1   3
BRANCH   1  20
HETATM   20  N   UNL     1      24.579  44.901  50.860  1.00  0.00    -0.300 N 
HETATM   21  C   UNL     1      24.702  43.568  50.496  1.00  0.00     0.247 C 
HETATM   22  O   UNL     1      23.992  42.737  51.058  1.00  0.00    -0.268 OA
HETATM   23  H   UNL     1      23.906  44.951  51.612  1.00  0.00     0.171 HD
BRANCH  21  24
HETATM   24  C   UNL     1      25.662  43.188  49.436  1.00  0.00     0.077 C 
HETATM   25  C   UNL     1      26.826  42.554  49.643  1.00  0.00     0.042 C 
BRANCH  25  26
HETATM   26  C   UNL     1      27.357  42.260  50.923  1.00  0.00     0.076 A 
HETATM   27  O   UNL     1      27.844  43.210  51.794  1.00  0.00    -0.310 OA
HETATM   28  C   UNL     1      28.288  42.577  52.917  1.00  0.00     0.086 A 
HETATM   29  C   UNL     1      28.100  41.219  52.792  1.00  0.00     0.041 A 
HETATM   30  C   UNL     1      27.534  41.016  51.513  1.00  0.00     0.040 A 
BRANCH  28  31
HETATM   31  C   UNL     1      28.838  43.427  53.962  1.00  0.00    -0.002 A 
HETATM   32  C   UNL     1      28.161  44.586  54.366  1.00  0.00     0.016 A 
HETATM   33  C   UNL     1      28.677  45.397  55.382  1.00  0.00     0.024 A 
HETATM   34  C   UNL     1      29.870  45.044  56.008  1.00  0.00     0.034 A 
HETATM   35 CL   UNL     1      30.515  46.043  57.251  1.00  0.00    -0.084 Cl
HETATM   36  C   UNL     1      30.551  43.890  55.627  1.00  0.00     0.024 A 
HETATM   37  C   UNL     1      30.040  43.088  54.603  1.00  0.00     0.016 A 
ENDBRANCH  28  31
ENDBRANCH  25  26
ENDBRANCH  21  24
ENDBRANCH   1  20
TORSDOF 7
ENDMDL
MODEL 6
REMARK VINA RESULT:      -9.1     12.038     14.136
REMARK  7 active torsions:
REMARK  status: ('A' for Active; 'I' for Inactive)
REMARK    1  A    between atoms: N_6  and  C_7 
REMARK    2  A    between atoms: C_11  and  N_12 
REMARK    3  A    between atoms: N_12  and  C_13 
REMARK    4  A    between atoms: C_13  and  N_14 
REMARK       I    between atoms: N_14  and  C_15 
REMARK    5  A    between atoms: C_15  and  C_16 
REMARK    6  A    between atoms: C_17  and  C_18 
REMARK    7  A    between atoms: C_20  and  C_21 
ROOT
HETATM    1  C   UNL     1      35.206  53.224  39.517  1.00  0.00     0.179 C 
HETATM    2  S   UNL     1      36.333  54.181  38.740  1.00  0.00    -0.040 SA
ENDROOT
BRANCH   1   3
HETATM    3  N   UNL     1      33.972  53.793  39.694  1.00  0.00    -0.333 N 
HETATM    4  H   UNL     1      34.057  54.793  39.869  1.00  0.00     0.168 HD
BRANCH   3   5
HETATM    5  C   UNL     1      32.668  53.274  39.811  1.00  0.00     0.036 A 
HETATM    6  C   UNL     1      32.422  52.069  39.149  1.00  0.00     0.055 A 
HETATM    7  C   UNL     1      31.141  51.507  39.125  1.00  0.00     0.062 A 
HETATM    8  C   UNL     1      30.049  52.123  39.776  1.00  0.00     0.052 A 
HETATM    9 CL   UNL     1      30.935  50.087  38.144  1.00  0.00    -0.082 Cl
HETATM   10  C   UNL     1      30.320  53.327  40.444  1.00  0.00     0.033 A 
HETATM   11  C   UNL     1      31.603  53.903  40.454  1.00  0.00     0.032 A 
BRANCH   8  12
HETATM   12  N   UNL     1      28.757  51.606  39.703  1.00  0.00    -0.376 N 
HETATM   13  C   UNL     1      27.954  51.571  40.937  1.00  0.00     0.150 C 
HETATM   14  C   UNL     1      27.028  50.336  40.890  1.00  0.00     0.254 C 
HETATM   15  N   UNL     1      26.169  50.354  39.616  1.00  0.00    -0.072 N 
HETATM   16  C   UNL     1      25.286  49.144  39.534  1.00  0.00     0.269 C 
HETATM   17  H   UNL     1      25.566  51.183  39.672  1.00  0.00     0.279 HD
HETATM   18  C   UNL     1      27.030  50.503  38.356  1.00  0.00     0.254 C 
HETATM   19  C   UNL     1      27.978  51.721  38.465  1.00  0.00     0.150 C 
ENDBRANCH   8  12
ENDBRANCH   3   5
ENDBRANCH   1   3
BRANCH   1  20
HETATM   20  N   UNL     1      35.355  51.916  39.938  1.00  0.00    -0.300 N 
HETATM   21  C   UNL     1      36.086  51.251  40.912  1.00  0.00     0.247 C 
HETATM   22  O   UNL     1      36.416  50.085  40.707  1.00  0.00    -0.268 OA
HETATM   23  H   UNL     1      35.172  51.258  39.192  1.00  0.00     0.171 HD
BRANCH  21  24
HETATM   24  C   UNL     1      36.463  51.965  42.152  1.00  0.00     0.077 C 
HETATM   25  C   UNL     1      35.698  52.055  43.251  1.00  0.00     0.042 C 
BRANCH  25  26
HETATM   26  C   UNL     1      34.366  51.577  43.336  1.00  0.00     0.076 A 
HETATM   27  O   UNL     1      33.833  50.620  42.501  1.00  0.00    -0.310 OA
HETATM   28  C   UNL     1      32.532  50.415  42.855  1.00  0.00     0.086 A 
HETATM   29  C   UNL     1      32.204  51.231  43.914  1.00  0.00     0.041 A 
HETATM   30  C   UNL     1      33.362  51.989  44.202  1.00  0.00     0.040 A 
BRANCH  28  31
HETATM   31  C   UNL     1      31.801  49.426  42.080  1.00  0.00    -0.002 A 
HETATM   32  C   UNL     1      32.476  48.584  41.184  1.00  0.00     0.016 A 
HETATM   33  C   UNL     1      31.780  47.618  40.450  1.00  0.00     0.024 A 
HETATM   34  C   UNL     1      30.403  47.483  40.618  1.00  0.00     0.034 A 
HETATM   35 CL   UNL     1      29.540  46.305  39.709  1.00  0.00    -0.084 Cl
HETATM   36  C   UNL     1      29.718  48.303  41.511  1.00  0.00     0.024 A 
HETATM   37  C   UNL     1      30.415  49.275  42.234  1.00  0.00     0.016 A 
ENDBRANCH  28  31
ENDBRANCH  25  26
ENDBRANCH  21  24
ENDBRANCH   1  20
TORSDOF 7
ENDMDL
MODEL 7
REMARK VINA RESULT:      -8.9     19.683     22.246
REMARK  7 active torsions:
REMARK  status: ('A' for Active; 'I' for Inactive)
REMARK    1  A    between atoms: N_6  and  C_7 
REMARK    2  A    between atoms: C_11  and  N_12 
REMARK    3  A    between atoms: N_12  and  C_13 
REMARK    4  A    between atoms: C_13  and  N_14 
REMARK       I    between atoms: N_14  and  C_15 
REMARK    5  A    between atoms: C_15  and  C_16 
REMARK    6  A    between atoms: C_17  and  C_18 
REMARK    7  A    between atoms: C_20  and  C_21 
ROOT
HETATM    1  C   UNL     1      41.842  41.173  66.711  1.00  0.00     0.179 C 
HETATM    2  S   UNL     1      42.336  41.291  68.302  1.00  0.00    -0.040 SA
ENDROOT
BRANCH   1   3
HETATM    3  N   UNL     1      40.685  41.839  66.403  1.00  0.00    -0.333 N 
HETATM    4  H   UNL     1      39.964  41.189  66.095  1.00  0.00     0.168 HD
BRANCH   3   5
HETATM    5  C   UNL     1      40.343  43.202  66.302  1.00  0.00     0.036 A 
HETATM    6  C   UNL     1      41.201  43.998  65.538  1.00  0.00     0.055 A 
HETATM    7  C   UNL     1      41.007  45.381  65.441  1.00  0.00     0.062 A 
HETATM    8  C   UNL     1      39.935  46.026  66.096  1.00  0.00     0.052 A 
HETATM    9 CL   UNL     1      42.226  46.276  64.585  1.00  0.00    -0.082 Cl
HETATM   10  C   UNL     1      39.080  45.207  66.849  1.00  0.00     0.033 A 
HETATM   11  C   UNL     1      39.283  43.820  66.963  1.00  0.00     0.032 A 
BRANCH   8  12
HETATM   12  N   UNL     1      39.772  47.410  66.059  1.00  0.00    -0.376 N 
HETATM   13  C   UNL     1      40.500  48.220  67.051  1.00  0.00     0.150 C 
HETATM   14  C   UNL     1      39.646  49.456  67.404  1.00  0.00     0.254 C 
HETATM   15  N   UNL     1      39.288  50.244  66.135  1.00  0.00    -0.072 N 
HETATM   16  C   UNL     1      38.429  51.432  66.451  1.00  0.00     0.269 C 
HETATM   17  H   UNL     1      40.169  50.588  65.735  1.00  0.00     0.279 HD
HETATM   18  C   UNL     1      38.632  49.346  65.079  1.00  0.00     0.254 C 
HETATM   19  C   UNL     1      39.493  48.095  64.792  1.00  0.00     0.150 C 
ENDBRANCH   8  12
ENDBRANCH   3   5
ENDBRANCH   1   3
BRANCH   1  20
HETATM   20  N   UNL     1      42.495  40.543  65.668  1.00  0.00    -0.300 N 
HETATM   21  C   UNL     1      42.686  39.235  65.247  1.00  0.00     0.247 C 
HETATM   22  O   UNL     1      43.711  38.959  64.628  1.00  0.00    -0.268 OA
HETATM   23  H   UNL     1      43.274  41.089  65.327  1.00  0.00     0.171 HD
BRANCH  21  24
HETATM   24  C   UNL     1      41.667  38.211  65.570  1.00  0.00     0.077 C 
HETATM   25  C   UNL     1      40.468  38.105  64.979  1.00  0.00     0.042 C 
BRANCH  25  26
HETATM   26  C   UNL     1      39.957  39.035  64.040  1.00  0.00     0.076 A 
HETATM   27  O   UNL     1      39.442  40.268  64.375  1.00  0.00    -0.310 OA
HETATM   28  C   UNL     1      39.030  40.888  63.232  1.00  0.00     0.086 A 
HETATM   29  C   UNL     1      39.268  40.073  62.148  1.00  0.00     0.041 A 
HETATM   30  C   UNL     1      39.832  38.884  62.665  1.00  0.00     0.040 A 
BRANCH  28  31
HETATM   31  C   UNL     1      38.457  42.215  63.388  1.00  0.00    -0.002 A 
HETATM   32  C   UNL     1      39.020  43.316  62.727  1.00  0.00     0.016 A 
HETATM   33  C   UNL     1      38.461  44.591  62.860  1.00  0.00     0.024 A 
HETATM   34  C   UNL     1      37.327  44.769  63.649  1.00  0.00     0.034 A 
HETATM   35 CL   UNL     1      36.642  46.337  63.825  1.00  0.00    -0.084 Cl
HETATM   36  C   UNL     1      36.747  43.685  64.304  1.00  0.00     0.024 A 
HETATM   37  C   UNL     1      37.315  42.414  64.179  1.00  0.00     0.016 A 
ENDBRANCH  28  31
ENDBRANCH  25  26
ENDBRANCH  21  24
ENDBRANCH   1  20
TORSDOF 7
ENDMDL
MODEL 8
REMARK VINA RESULT:      -8.9      2.791      3.807
REMARK  7 active torsions:
REMARK  status: ('A' for Active; 'I' for Inactive)
REMARK    1  A    between atoms: N_6  and  C_7 
REMARK    2  A    between atoms: C_11  and  N_12 
REMARK    3  A    between atoms: N_12  and  C_13 
REMARK    4  A    between atoms: C_13  and  N_14 
REMARK       I    between atoms: N_14  and  C_15 
REMARK    5  A    between atoms: C_15  and  C_16 
REMARK    6  A    between atoms: C_17  and  C_18 
REMARK    7  A    between atoms: C_20  and  C_21 
ROOT
HETATM    1  C   UNL     1      21.909  45.747  47.969  1.00  0.00     0.179 C 
HETATM    2  S   UNL     1      21.390  45.058  46.539  1.00  0.00    -0.040 SA
ENDROOT
BRANCH   1   3
HETATM    3  N   UNL     1      22.068  47.108  47.943  1.00  0.00    -0.333 N 
HETATM    4  H   UNL     1      23.053  47.355  47.865  1.00  0.00     0.168 HD
BRANCH   3   5
HETATM    5  C   UNL     1      21.190  48.195  48.128  1.00  0.00     0.036 A 
HETATM    6  C   UNL     1      19.843  47.874  48.316  1.00  0.00     0.055 A 
HETATM    7  C   UNL     1      18.872  48.876  48.423  1.00  0.00     0.062 A 
HETATM    8  C   UNL     1      19.210  50.246  48.360  1.00  0.00     0.052 A 
HETATM    9 CL   UNL     1      17.218  48.347  48.504  1.00  0.00    -0.082 Cl
HETATM   10  C   UNL     1      20.569  50.545  48.180  1.00  0.00     0.033 A 
HETATM   11  C   UNL     1      21.545  49.540  48.055  1.00  0.00     0.032 A 
BRANCH   8  12
HETATM   12  N   UNL     1      18.243  51.249  48.399  1.00  0.00    -0.376 N 
HETATM   13  C   UNL     1      18.343  52.267  49.458  1.00  0.00     0.150 C 
HETATM   14  C   UNL     1      16.919  52.711  49.855  1.00  0.00     0.254 C 
HETATM   15  N   UNL     1      16.143  53.202  48.624  1.00  0.00    -0.072 N 
HETATM   16  C   UNL     1      14.744  53.606  48.982  1.00  0.00     0.269 C 
HETATM   17  H   UNL     1      16.633  54.033  48.272  1.00  0.00     0.279 HD
HETATM   18  C   UNL     1      16.153  52.161  47.498  1.00  0.00     0.254 C 
HETATM   19  C   UNL     1      17.593  51.706  47.165  1.00  0.00     0.150 C 
ENDBRANCH   8  12
ENDBRANCH   3   5
ENDBRANCH   1   3
BRANCH   1  20
HETATM   20  N   UNL     1      22.129  45.117  49.179  1.00  0.00    -0.300 N 
HETATM   21  C   UNL     1      22.943  44.094  49.645  1.00  0.00     0.247 C 
HETATM   22  O   UNL     1      22.552  43.417  50.594  1.00  0.00    -0.268 OA
HETATM   23  H   UNL     1      21.315  45.155  49.777  1.00  0.00     0.171 HD
BRANCH  21  24
HETATM   24  C   UNL     1      24.239  43.835  48.979  1.00  0.00     0.077 C 
HETATM   25  C   UNL     1      25.419  44.342  49.368  1.00  0.00     0.042 C 
BRANCH  25  26
HETATM   26  C   UNL     1      25.574  45.294  50.406  1.00  0.00     0.076 A 
HETATM   27  O   UNL     1      26.316  45.080  51.547  1.00  0.00    -0.310 OA
HETATM   28  C   UNL     1      26.232  46.193  52.330  1.00  0.00     0.086 A 
HETATM   29  C   UNL     1      25.441  47.137  51.716  1.00  0.00     0.041 A 
HETATM   30  C   UNL     1      25.000  46.555  50.506  1.00  0.00     0.040 A 
BRANCH  28  31
HETATM   31  C   UNL     1      26.963  46.154  53.587  1.00  0.00    -0.002 A 
HETATM   32  C   UNL     1      26.926  47.246  54.466  1.00  0.00     0.016 A 
HETATM   33  C   UNL     1      27.612  47.205  55.684  1.00  0.00     0.024 A 
HETATM   34  C   UNL     1      28.331  46.064  56.034  1.00  0.00     0.034 A 
HETATM   35 CL   UNL     1      29.186  46.013  57.526  1.00  0.00    -0.084 Cl
HETATM   36  C   UNL     1      28.370  44.966  55.179  1.00  0.00     0.024 A 
HETATM   37  C   UNL     1      27.693  45.014  53.957  1.00  0.00     0.016 A 
ENDBRANCH  28  31
ENDBRANCH  25  26
ENDBRANCH  21  24
ENDBRANCH   1  20
TORSDOF 7
ENDMDL
MODEL 9
REMARK VINA RESULT:      -8.7      6.593      9.714
REMARK  7 active torsions:
REMARK  status: ('A' for Active; 'I' for Inactive)
REMARK    1  A    between atoms: N_6  and  C_7 
REMARK    2  A    between atoms: C_11  and  N_12 
REMARK    3  A    between atoms: N_12  and  C_13 
REMARK    4  A    between atoms: C_13  and  N_14 
REMARK       I    between atoms: N_14  and  C_15 
REMARK    5  A    between atoms: C_15  and  C_16 
REMARK    6  A    between atoms: C_17  and  C_18 
REMARK    7  A    between atoms: C_20  and  C_21 
ROOT
HETATM    1  C   UNL     1      26.972  41.577  50.832  1.00  0.00     0.179 C 
HETATM    2  S   UNL     1      28.017  41.236  52.089  1.00  0.00    -0.040 SA
ENDROOT
BRANCH   1   3
HETATM    3  N   UNL     1      27.506  41.466  49.576  1.00  0.00    -0.333 N 
HETATM    4  H   UNL     1      27.886  42.359  49.264  1.00  0.00     0.168 HD
BRANCH   3   5
HETATM    5  C   UNL     1      27.518  40.441  48.609  1.00  0.00     0.036 A 
HETATM    6  C   UNL     1      26.998  39.208  49.012  1.00  0.00     0.055 A 
HETATM    7  C   UNL     1      27.040  38.096  48.163  1.00  0.00     0.062 A 
HETATM    8  C   UNL     1      27.594  38.174  46.866  1.00  0.00     0.052 A 
HETATM    9 CL   UNL     1      26.498  36.587  48.835  1.00  0.00    -0.082 Cl
HETATM   10  C   UNL     1      28.101  39.424  46.479  1.00  0.00     0.033 A 
HETATM   11  C   UNL     1      28.076  40.538  47.336  1.00  0.00     0.032 A 
BRANCH   8  12
HETATM   12  N   UNL     1      27.699  37.057  46.039  1.00  0.00    -0.376 N 
HETATM   13  C   UNL     1      26.494  36.611  45.320  1.00  0.00     0.150 C 
HETATM   14  C   UNL     1      26.541  35.075  45.179  1.00  0.00     0.254 C 
HETATM   15  N   UNL     1      27.844  34.635  44.495  1.00  0.00    -0.072 N 
HETATM   16  C   UNL     1      27.926  33.142  44.378  1.00  0.00     0.269 C 
HETATM   17  H   UNL     1      27.832  35.027  43.545  1.00  0.00     0.279 HD
HETATM   18  C   UNL     1      29.077  35.209  45.204  1.00  0.00     0.254 C 
HETATM   19  C   UNL     1      28.967  36.742  45.370  1.00  0.00     0.150 C 
ENDBRANCH   8  12
ENDBRANCH   3   5
ENDBRANCH   1   3
BRANCH   1  20
HETATM   20  N   UNL     1      25.628  41.889  50.914  1.00  0.00    -0.300 N 
HETATM   21  C   UNL     1      24.858  43.040  50.832  1.00  0.00     0.247 C 
HETATM   22  O   UNL     1      23.798  43.085  51.452  1.00  0.00    -0.268 OA
HETATM   23  H   UNL     1      25.120  41.222  51.479  1.00  0.00     0.171 HD
BRANCH  21  24
HETATM   24  C   UNL     1      25.339  44.182  50.022  1.00  0.00     0.077 C 
HETATM   25  C   UNL     1      26.067  45.206  50.492  1.00  0.00     0.042 C 
BRANCH  25  26
HETATM   26  C   UNL     1      26.379  45.400  51.861  1.00  0.00     0.076 A 
HETATM   27  O   UNL     1      27.519  44.921  52.469  1.00  0.00    -0.310 OA
HETATM   28  C   UNL     1      27.486  45.275  53.786  1.00  0.00     0.086 A 
HETATM   29  C   UNL     1      26.334  45.980  54.050  1.00  0.00     0.041 A 
HETATM   30  C   UNL     1      25.618  46.035  52.832  1.00  0.00     0.040 A 
BRANCH  28  31
HETATM   31  C   UNL     1      28.620  44.856  54.595  1.00  0.00    -0.002 A 
HETATM   32  C   UNL     1      29.025  45.618  55.700  1.00  0.00     0.016 A 
HETATM   33  C   UNL     1      30.103  45.210  56.492  1.00  0.00     0.024 A 
HETATM   34  C   UNL     1      30.776  44.028  56.186  1.00  0.00     0.034 A 
HETATM   35 CL   UNL     1      32.110  43.527  57.150  1.00  0.00    -0.084 Cl
HETATM   36  C   UNL     1      30.381  43.253  55.099  1.00  0.00     0.024 A 
HETATM   37  C   UNL     1      29.310  43.670  54.302  1.00  0.00     0.016 A 
ENDBRANCH  28  31
ENDBRANCH  25  26
ENDBRANCH  21  24
ENDBRANCH   1  20
TORSDOF 7
ENDMDL
MODEL 10
REMARK VINA RESULT:      -8.6      3.303      3.943
REMARK  7 active torsions:
REMARK  status: ('A' for Active; 'I' for Inactive)
REMARK    1  A    between atoms: N_6  and  C_7 
REMARK    2  A    between atoms: C_11  and  N_12 
REMARK    3  A    between atoms: N_12  and  C_13 
REMARK    4  A    between atoms: C_13  and  N_14 
REMARK       I    between atoms: N_14  and  C_15 
REMARK    5  A    between atoms: C_15  and  C_16 
REMARK    6  A    between atoms: C_17  and  C_18 
REMARK    7  A    between atoms: C_20  and  C_21 
ROOT
HETATM    1  C   UNL     1      25.465  42.470  50.433  1.00  0.00     0.179 C 
HETATM    2  S   UNL     1      27.103  42.387  50.118  1.00  0.00    -0.040 SA
ENDROOT
BRANCH   1   3
HETATM    3  N   UNL     1      24.652  41.934  49.469  1.00  0.00    -0.333 N 
HETATM    4  H   UNL     1      24.815  40.933  49.374  1.00  0.00     0.168 HD
BRANCH   3   5
HETATM    5  C   UNL     1      23.766  42.489  48.525  1.00  0.00     0.036 A 
HETATM    6  C   UNL     1      23.649  43.881  48.532  1.00  0.00     0.055 A 
HETATM    7  C   UNL     1      22.734  44.533  47.697  1.00  0.00     0.062 A 
HETATM    8  C   UNL     1      21.902  43.817  46.808  1.00  0.00     0.052 A 
HETATM    9 CL   UNL     1      22.580  46.251  47.908  1.00  0.00    -0.082 Cl
HETATM   10  C   UNL     1      22.043  42.420  46.810  1.00  0.00     0.033 A 
HETATM   11  C   UNL     1      22.949  41.762  47.660  1.00  0.00     0.032 A 
BRANCH   8  12
HETATM   12  N   UNL     1      20.943  44.450  46.021  1.00  0.00    -0.376 N 
HETATM   13  C   UNL     1      21.157  44.492  44.565  1.00  0.00     0.150 C 
HETATM   14  C   UNL     1      20.562  45.806  44.013  1.00  0.00     0.254 C 
HETATM   15  N   UNL     1      19.082  45.934  44.404  1.00  0.00    -0.072 N 
HETATM   16  C   UNL     1      18.493  47.221  43.907  1.00  0.00     0.269 C 
HETATM   17  H   UNL     1      18.583  45.160  43.949  1.00  0.00     0.279 HD
HETATM   18  C   UNL     1      18.881  45.775  45.916  1.00  0.00     0.254 C 
HETATM   19  C   UNL     1      19.535  44.473  46.436  1.00  0.00     0.150 C 
ENDBRANCH   8  12
ENDBRANCH   3   5
ENDBRANCH   1   3
BRANCH   1  20
HETATM   20  N   UNL     1      24.848  42.952  51.572  1.00  0.00    -0.300 N 
HETATM   21  C   UNL     1      24.753  44.174  52.222  1.00  0.00     0.247 C 
HETATM   22  O   UNL     1      24.597  44.182  53.441  1.00  0.00    -0.268 OA
HETATM   23  H   UNL     1      24.718  42.228  52.265  1.00  0.00     0.171 HD
BRANCH  21  24
HETATM   24  C   UNL     1      24.862  45.425  51.439  1.00  0.00     0.077 C 
HETATM   25  C   UNL     1      25.582  46.499  51.800  1.00  0.00     0.042 C 
BRANCH  25  26
HETATM   26  C   UNL     1      26.247  46.631  53.044  1.00  0.00     0.076 A 
HETATM   27  O   UNL     1      27.284  45.822  53.455  1.00  0.00    -0.310 OA
HETATM   28  C   UNL     1      27.671  46.218  54.702  1.00  0.00     0.086 A 
HETATM   29  C   UNL     1      26.897  47.279  55.114  1.00  0.00     0.041 A 
HETATM   30  C   UNL     1      25.974  47.523  54.072  1.00  0.00     0.040 A 
BRANCH  28  31
HETATM   31  C   UNL     1      28.768  45.475  55.303  1.00  0.00    -0.002 A 
HETATM   32  C   UNL     1      29.230  44.289  54.715  1.00  0.00     0.016 A 
HETATM   33  C   UNL     1      30.296  43.582  55.279  1.00  0.00     0.024 A 
HETATM   34  C   UNL     1      30.913  44.065  56.432  1.00  0.00     0.034 A 
HETATM   35 CL   UNL     1      32.217  43.192  57.136  1.00  0.00    -0.084 Cl
HETATM   36  C   UNL     1      30.474  45.247  57.023  1.00  0.00     0.024 A 
HETATM   37  C   UNL     1      29.401  45.946  56.463  1.00  0.00     0.016 A 
ENDBRANCH  28  31
ENDBRANCH  25  26
ENDBRANCH  21  24
ENDBRANCH   1  20
TORSDOF 7
ENDMDL
