MODEL 1
REMARK VINA RESULT:     -10.6      0.000      0.000
REMARK  6 active torsions:
REMARK  status: ('A' for Active; 'I' for Inactive)
REMARK    1  A    between atoms: C_4  and  C_5 
REMARK    2  A    between atoms: C_5  and  C_6 
REMARK    3  A    between atoms: C_8  and  C_9 
REMARK    4  A    between atoms: C_9  and  C_10 
REMARK       I    between atoms: C_10  and  N_11 
REMARK    5  A    between atoms: N_11  and  N_12 
REMARK       I    between atoms: N_12  and  C_13 
REMARK       I    between atoms: C_13  and  N_14 
REMARK    6  A    between atoms: N_14  and  C_15 
ROOT
HETATM    1  C   UNL     1      25.007  46.003  50.656  1.00  0.00     0.238 C 
HETATM    2  N   UNL     1      25.831  46.034  51.761  1.00  0.00    -0.266 N 
HETATM    3  O   UNL     1      24.039  45.245  50.585  1.00  0.00    -0.272 OA
HETATM    4  H   UNL     1      26.477  46.804  51.895  1.00  0.00     0.190 HD
ENDROOT
BRANCH   1   5
HETATM    5  C   UNL     1      25.423  46.862  49.472  1.00  0.00     0.139 C 
BRANCH   5   6
HETATM    6  C   UNL     1      25.509  48.373  49.689  1.00  0.00     0.185 C 
HETATM    7  N   UNL     1      24.309  49.015  49.158  1.00  0.00    -0.363 N 
HETATM    8  C   UNL     1      24.345  49.833  48.061  1.00  0.00     0.125 C 
HETATM    9  H   UNL     1      23.486  49.023  49.753  1.00  0.00     0.161 HD
HETATM   10  N   UNL     1      25.432  50.104  47.393  1.00  0.00    -0.159 NA
HETATM   11  N   UNL     1      26.623  49.667  47.911  1.00  0.00    -0.244 N 
HETATM   12  C   UNL     1      26.782  48.962  49.087  1.00  0.00     0.261 C 
HETATM   13  H   UNL     1      27.469  50.050  47.495  1.00  0.00     0.192 HD
HETATM   14  O   UNL     1      27.896  48.749  49.560  1.00  0.00    -0.269 OA
BRANCH   8  15
HETATM   15  C   UNL     1      23.032  50.435  47.570  1.00  0.00     0.118 C 
BRANCH  15  16
HETATM   16  C   UNL     1      21.868  50.095  48.468  1.00  0.00    -0.051 A 
HETATM   17  C   UNL     1      21.413  51.019  49.420  1.00  0.00     0.007 A 
HETATM   18  C   UNL     1      20.319  50.719  50.233  1.00  0.00     0.001 A 
HETATM   19  C   UNL     1      19.666  49.497  50.100  1.00  0.00     0.000 A 
HETATM   20  C   UNL     1      20.106  48.572  49.154  1.00  0.00     0.001 A 
HETATM   21  C   UNL     1      21.202  48.870  48.340  1.00  0.00     0.007 A 
ENDBRANCH  15  16
ENDBRANCH   8  15
ENDBRANCH   5   6
ENDBRANCH   1   5
BRANCH   2  22
HETATM   22  N   UNL     1      25.371  45.375  52.915  1.00  0.00    -0.249 N 
HETATM   23  C   UNL     1      26.219  44.848  53.867  1.00  0.00     0.339 C 
HETATM   24  N   UNL     1      27.444  45.471  53.955  1.00  0.00    -0.308 N 
HETATM   25  O   UNL     1      25.833  43.910  54.557  1.00  0.00    -0.245 OA
HETATM   26  H   UNL     1      27.482  46.409  53.578  1.00  0.00     0.170 HD
HETATM   27  H   UNL     1      24.490  44.872  52.799  1.00  0.00     0.192 HD
BRANCH  24  28
HETATM   28  C   UNL     1      28.547  45.064  54.736  1.00  0.00     0.038 A 
HETATM   29  C   UNL     1      28.974  45.732  55.888  1.00  0.00     0.055 A 
HETATM   30  C   UNL     1      30.072  45.260  56.622  1.00  0.00     0.058 A 
HETATM   31 CL   UNL     1      30.541  46.148  58.031  1.00  0.00    -0.082 Cl
HETATM   32  C   UNL     1      30.744  44.106  56.212  1.00  0.00     0.055 A 
HETATM   33 CL   UNL     1      32.098  43.462  57.070  1.00  0.00    -0.083 Cl
HETATM   34  C   UNL     1      30.317  43.430  55.067  1.00  0.00     0.028 A 
HETATM   35  C   UNL     1      29.228  43.908  54.334  1.00  0.00     0.031 A 
ENDBRANCH  24  28
ENDBRANCH   2  22
TORSDOF 6
ENDMDL
MODEL 2
REMARK VINA RESULT:     -10.5      4.490     10.512
REMARK  6 active torsions:
REMARK  status: ('A' for Active; 'I' for Inactive)
REMARK    1  A    between atoms: C_4  and  C_5 
REMARK    2  A    between atoms: C_5  and  C_6 
REMARK    3  A    between atoms: C_8  and  C_9 
REMARK    4  A    between atoms: C_9  and  C_10 
REMARK       I    between atoms: C_10  and  N_11 
REMARK    5  A    between atoms: N_11  and  N_12 
REMARK       I    between atoms: N_12  and  C_13 
REMARK       I    between atoms: C_13  and  N_14 
REMARK    6  A    between atoms: N_14  and  C_15 
ROOT
HETATM    1  C   UNL     1      26.671  45.835  50.299  1.00  0.00     0.238 C 
HETATM    2  N   UNL     1      25.983  46.962  50.695  1.00  0.00    -0.266 N 
HETATM    3  O   UNL     1      27.222  45.760  49.200  1.00  0.00    -0.272 OA
HETATM    4  H   UNL     1      25.730  47.090  51.668  1.00  0.00     0.190 HD
ENDROOT
BRANCH   1   5
HETATM    5  C   UNL     1      26.612  44.637  51.234  1.00  0.00     0.139 C 
BRANCH   5   6
HETATM    6  C   UNL     1      26.801  44.896  52.729  1.00  0.00     0.185 C 
HETATM    7  N   UNL     1      28.185  44.618  53.105  1.00  0.00    -0.363 N 
HETATM    8  C   UNL     1      28.524  43.567  53.914  1.00  0.00     0.125 C 
HETATM    9  H   UNL     1      28.866  45.353  52.939  1.00  0.00     0.161 HD
HETATM   10  N   UNL     1      27.660  42.724  54.408  1.00  0.00    -0.159 NA
HETATM   11  N   UNL     1      26.329  42.999  54.231  1.00  0.00    -0.244 N 
HETATM   12  C   UNL     1      25.812  44.097  53.574  1.00  0.00     0.261 C 
HETATM   13  H   UNL     1      25.673  42.452  54.784  1.00  0.00     0.192 HD
HETATM   14  O   UNL     1      24.610  44.350  53.599  1.00  0.00    -0.269 OA
BRANCH   8  15
HETATM   15  C   UNL     1      30.001  43.348  54.227  1.00  0.00     0.118 C 
BRANCH  15  16
HETATM   16  C   UNL     1      30.397  43.912  55.570  1.00  0.00    -0.051 A 
HETATM   17  C   UNL     1      29.830  45.108  56.033  1.00  0.00     0.007 A 
HETATM   18  C   UNL     1      30.174  45.617  57.286  1.00  0.00     0.001 A 
HETATM   19  C   UNL     1      31.083  44.935  58.090  1.00  0.00     0.000 A 
HETATM   20  C   UNL     1      31.650  43.742  57.642  1.00  0.00     0.001 A 
HETATM   21  C   UNL     1      31.308  43.231  56.388  1.00  0.00     0.007 A 
ENDBRANCH  15  16
ENDBRANCH   8  15
ENDBRANCH   5   6
ENDBRANCH   1   5
BRANCH   2  22
HETATM   22  N   UNL     1      26.165  48.122  49.921  1.00  0.00    -0.249 N 
HETATM   23  C   UNL     1      25.159  48.684  49.163  1.00  0.00     0.339 C 
HETATM   24  N   UNL     1      23.885  48.439  49.624  1.00  0.00    -0.308 N 
HETATM   25  O   UNL     1      25.456  49.353  48.179  1.00  0.00    -0.245 OA
HETATM   26  H   UNL     1      23.819  48.176  50.599  1.00  0.00     0.170 HD
HETATM   27  H   UNL     1      27.107  48.242  49.545  1.00  0.00     0.192 HD
BRANCH  24  28
HETATM   28  C   UNL     1      22.673  48.771  48.981  1.00  0.00     0.038 A 
HETATM   29  C   UNL     1      22.074  50.032  49.052  1.00  0.00     0.055 A 
HETATM   30  C   UNL     1      20.875  50.293  48.374  1.00  0.00     0.058 A 
HETATM   31 CL   UNL     1      20.195  51.877  48.519  1.00  0.00    -0.082 Cl
HETATM   32  C   UNL     1      20.271  49.292  47.609  1.00  0.00     0.055 A 
HETATM   33 CL   UNL     1      18.799  49.543  46.742  1.00  0.00    -0.083 Cl
HETATM   34  C   UNL     1      20.868  48.033  47.528  1.00  0.00     0.028 A 
HETATM   35  C   UNL     1      22.060  47.774  48.211  1.00  0.00     0.031 A 
ENDBRANCH  24  28
ENDBRANCH   2  22
TORSDOF 6
ENDMDL
MODEL 3
REMARK VINA RESULT:     -10.2     11.348     13.123
REMARK  6 active torsions:
REMARK  status: ('A' for Active; 'I' for Inactive)
REMARK    1  A    between atoms: C_4  and  C_5 
REMARK    2  A    between atoms: C_5  and  C_6 
REMARK    3  A    between atoms: C_8  and  C_9 
REMARK    4  A    between atoms: C_9  and  C_10 
REMARK       I    between atoms: C_10  and  N_11 
REMARK    5  A    between atoms: N_11  and  N_12 
REMARK       I    between atoms: N_12  and  C_13 
REMARK       I    between atoms: C_13  and  N_14 
REMARK    6  A    between atoms: N_14  and  C_15 
ROOT
HETATM    1  C   UNL     1      28.340  47.534  38.903  1.00  0.00     0.238 C 
HETATM    2  N   UNL     1      29.598  48.058  39.116  1.00  0.00    -0.266 N 
HETATM    3  O   UNL     1      28.091  46.342  39.083  1.00  0.00    -0.272 OA
HETATM    4  H   UNL     1      29.731  49.061  39.177  1.00  0.00     0.190 HD
ENDROOT
BRANCH   1   5
HETATM    5  C   UNL     1      27.302  48.476  38.312  1.00  0.00     0.139 C 
BRANCH   5   6
HETATM    6  C   UNL     1      26.552  49.396  39.276  1.00  0.00     0.185 C 
HETATM    7  N   UNL     1      27.211  50.698  39.326  1.00  0.00    -0.363 N 
HETATM    8  C   UNL     1      27.861  51.144  40.445  1.00  0.00     0.125 C 
HETATM    9  H   UNL     1      26.985  51.361  38.590  1.00  0.00     0.161 HD
HETATM   10  N   UNL     1      27.959  50.456  41.549  1.00  0.00    -0.159 NA
HETATM   11  N   UNL     1      27.242  49.292  41.640  1.00  0.00    -0.244 N 
HETATM   12  C   UNL     1      26.414  48.776  40.664  1.00  0.00     0.261 C 
HETATM   13  H   UNL     1      27.167  48.874  42.564  1.00  0.00     0.192 HD
HETATM   14  O   UNL     1      25.684  47.812  40.887  1.00  0.00    -0.269 OA
BRANCH   8  15
HETATM   15  C   UNL     1      28.540  52.508  40.387  1.00  0.00     0.118 C 
BRANCH  15  16
HETATM   16  C   UNL     1      29.981  52.420  39.949  1.00  0.00    -0.051 A 
HETATM   17  C   UNL     1      30.343  51.611  38.861  1.00  0.00     0.007 A 
HETATM   18  C   UNL     1      31.671  51.548  38.435  1.00  0.00     0.001 A 
HETATM   19  C   UNL     1      32.648  52.296  39.087  1.00  0.00     0.000 A 
HETATM   20  C   UNL     1      32.299  53.106  40.167  1.00  0.00     0.001 A 
HETATM   21  C   UNL     1      30.971  53.170  40.595  1.00  0.00     0.007 A 
ENDBRANCH  15  16
ENDBRANCH   8  15
ENDBRANCH   5   6
ENDBRANCH   1   5
BRANCH   2  22
HETATM   22  N   UNL     1      30.514  47.247  39.809  1.00  0.00    -0.249 N 
HETATM   23  C   UNL     1      31.526  47.759  40.594  1.00  0.00     0.339 C 
HETATM   24  N   UNL     1      31.267  49.001  41.130  1.00  0.00    -0.308 N 
HETATM   25  O   UNL     1      32.541  47.092  40.771  1.00  0.00    -0.245 OA
HETATM   26  H   UNL     1      30.289  49.258  41.177  1.00  0.00     0.170 HD
HETATM   27  H   UNL     1      30.730  46.358  39.354  1.00  0.00     0.192 HD
BRANCH  24  28
HETATM   28  C   UNL     1      32.165  49.816  41.853  1.00  0.00     0.038 A 
HETATM   29  C   UNL     1      31.808  50.556  42.984  1.00  0.00     0.055 A 
HETATM   30  C   UNL     1      32.759  51.333  43.659  1.00  0.00     0.058 A 
HETATM   31 CL   UNL     1      32.235  52.225  45.045  1.00  0.00    -0.082 Cl
HETATM   32  C   UNL     1      34.082  51.366  43.211  1.00  0.00     0.055 A 
HETATM   33 CL   UNL     1      35.309  52.293  43.995  1.00  0.00    -0.083 Cl
HETATM   34  C   UNL     1      34.447  50.622  42.086  1.00  0.00     0.028 A 
HETATM   35  C   UNL     1      33.494  49.855  41.411  1.00  0.00     0.031 A 
ENDBRANCH  24  28
ENDBRANCH   2  22
TORSDOF 6
ENDMDL
MODEL 4
REMARK VINA RESULT:     -10.0      4.844     10.447
REMARK  6 active torsions:
REMARK  status: ('A' for Active; 'I' for Inactive)
REMARK    1  A    between atoms: C_4  and  C_5 
REMARK    2  A    between atoms: C_5  and  C_6 
REMARK    3  A    between atoms: C_8  and  C_9 
REMARK    4  A    between atoms: C_9  and  C_10 
REMARK       I    between atoms: C_10  and  N_11 
REMARK    5  A    between atoms: N_11  and  N_12 
REMARK       I    between atoms: N_12  and  C_13 
REMARK       I    between atoms: C_13  and  N_14 
REMARK    6  A    between atoms: N_14  and  C_15 
ROOT
HETATM    1  C   UNL     1      25.086  47.135  50.901  1.00  0.00     0.238 C 
HETATM    2  N   UNL     1      24.029  47.186  50.016  1.00  0.00    -0.266 N 
HETATM    3  O   UNL     1      26.085  47.842  50.765  1.00  0.00    -0.272 OA
HETATM    4  H   UNL     1      23.138  46.769  50.261  1.00  0.00     0.190 HD
ENDROOT
BRANCH   1   5
HETATM    5  C   UNL     1      25.016  46.069  51.984  1.00  0.00     0.139 C 
BRANCH   5   6
HETATM    6  C   UNL     1      25.324  44.627  51.580  1.00  0.00     0.185 C 
HETATM    7  N   UNL     1      25.907  43.913  52.712  1.00  0.00    -0.363 N 
HETATM    8  C   UNL     1      27.211  43.495  52.719  1.00  0.00     0.125 C 
HETATM    9  H   UNL     1      25.264  43.534  53.401  1.00  0.00     0.161 HD
HETATM   10  N   UNL     1      28.043  43.701  51.735  1.00  0.00    -0.159 NA
HETATM   11  N   UNL     1      27.539  44.227  50.574  1.00  0.00    -0.244 N 
HETATM   12  C   UNL     1      26.220  44.562  50.345  1.00  0.00     0.261 C 
HETATM   13  H   UNL     1      28.146  44.196  49.759  1.00  0.00     0.192 HD
HETATM   14  O   UNL     1      25.824  44.877  49.225  1.00  0.00    -0.269 OA
BRANCH   8  15
HETATM   15  C   UNL     1      27.731  42.780  53.961  1.00  0.00     0.118 C 
BRANCH  15  16
HETATM   16  C   UNL     1      28.770  43.586  54.701  1.00  0.00    -0.051 A 
HETATM   17  C   UNL     1      28.474  44.880  55.153  1.00  0.00     0.007 A 
HETATM   18  C   UNL     1      29.423  45.618  55.862  1.00  0.00     0.001 A 
HETATM   19  C   UNL     1      30.674  45.069  56.131  1.00  0.00     0.000 A 
HETATM   20  C   UNL     1      30.978  43.781  55.691  1.00  0.00     0.001 A 
HETATM   21  C   UNL     1      30.030  43.041  54.980  1.00  0.00     0.007 A 
ENDBRANCH  15  16
ENDBRANCH   8  15
ENDBRANCH   5   6
ENDBRANCH   1   5
BRANCH   2  22
HETATM   22  N   UNL     1      24.006  48.267  49.117  1.00  0.00    -0.249 N 
HETATM   23  C   UNL     1      22.839  48.869  48.696  1.00  0.00     0.339 C 
HETATM   24  N   UNL     1      21.791  48.780  49.586  1.00  0.00    -0.308 N 
HETATM   25  O   UNL     1      22.818  49.437  47.608  1.00  0.00    -0.245 OA
HETATM   26  H   UNL     1      22.052  48.593  50.545  1.00  0.00     0.170 HD
HETATM   27  H   UNL     1      24.763  48.270  48.431  1.00  0.00     0.192 HD
BRANCH  24  28
HETATM   28  C   UNL     1      20.456  49.181  49.366  1.00  0.00     0.038 A 
HETATM   29  C   UNL     1      19.976  50.467  49.630  1.00  0.00     0.055 A 
HETATM   30  C   UNL     1      18.638  50.798  49.373  1.00  0.00     0.058 A 
HETATM   31 CL   UNL     1      18.121  52.408  49.735  1.00  0.00    -0.082 Cl
HETATM   32  C   UNL     1      17.772  49.842  48.836  1.00  0.00     0.055 A 
HETATM   33 CL   UNL     1      16.115  50.178  48.486  1.00  0.00    -0.083 Cl
HETATM   34  C   UNL     1      18.247  48.558  48.561  1.00  0.00     0.028 A 
HETATM   35  C   UNL     1      19.580  48.230  48.827  1.00  0.00     0.031 A 
ENDBRANCH  24  28
ENDBRANCH   2  22
TORSDOF 6
ENDMDL
MODEL 5
REMARK VINA RESULT:     -10.0      4.668     10.319
REMARK  6 active torsions:
REMARK  status: ('A' for Active; 'I' for Inactive)
REMARK    1  A    between atoms: C_4  and  C_5 
REMARK    2  A    between atoms: C_5  and  C_6 
REMARK    3  A    between atoms: C_8  and  C_9 
REMARK    4  A    between atoms: C_9  and  C_10 
REMARK       I    between atoms: C_10  and  N_11 
REMARK    5  A    between atoms: N_11  and  N_12 
REMARK       I    between atoms: N_12  and  C_13 
REMARK       I    between atoms: C_13  and  N_14 
REMARK    6  A    between atoms: N_14  and  C_15 
ROOT
HETATM    1  C   UNL     1      26.217  47.928  49.626  1.00  0.00     0.238 C 
HETATM    2  N   UNL     1      24.947  48.443  49.465  1.00  0.00    -0.266 N 
HETATM    3  O   UNL     1      27.134  48.200  48.851  1.00  0.00    -0.272 OA
HETATM    4  H   UNL     1      24.275  48.388  50.221  1.00  0.00     0.190 HD
ENDROOT
BRANCH   1   5
HETATM    5  C   UNL     1      26.401  46.905  50.736  1.00  0.00     0.139 C 
BRANCH   5   6
HETATM    6  C   UNL     1      25.151  46.439  51.483  1.00  0.00     0.185 C 
HETATM    7  N   UNL     1      25.528  45.924  52.798  1.00  0.00    -0.363 N 
HETATM    8  C   UNL     1      25.415  44.599  53.122  1.00  0.00     0.125 C 
HETATM    9  H   UNL     1      25.662  46.604  53.540  1.00  0.00     0.161 HD
HETATM   10  N   UNL     1      24.977  43.686  52.300  1.00  0.00    -0.159 NA
HETATM   11  N   UNL     1      24.461  44.103  51.101  1.00  0.00    -0.244 N 
HETATM   12  C   UNL     1      24.357  45.413  50.679  1.00  0.00     0.261 C 
HETATM   13  H   UNL     1      23.947  43.411  50.561  1.00  0.00     0.192 HD
HETATM   14  O   UNL     1      23.736  45.710  49.661  1.00  0.00    -0.269 OA
BRANCH   8  15
HETATM   15  C   UNL     1      25.859  44.159  54.513  1.00  0.00     0.118 C 
BRANCH  15  16
HETATM   16  C   UNL     1      27.352  43.967  54.610  1.00  0.00    -0.051 A 
HETATM   17  C   UNL     1      28.158  44.956  55.193  1.00  0.00     0.007 A 
HETATM   18  C   UNL     1      29.537  44.769  55.309  1.00  0.00     0.001 A 
HETATM   19  C   UNL     1      30.122  43.592  54.851  1.00  0.00     0.000 A 
HETATM   20  C   UNL     1      29.330  42.600  54.273  1.00  0.00     0.001 A 
HETATM   21  C   UNL     1      27.951  42.785  54.155  1.00  0.00     0.007 A 
ENDBRANCH  15  16
ENDBRANCH   8  15
ENDBRANCH   5   6
ENDBRANCH   1   5
BRANCH   2  22
HETATM   22  N   UNL     1      24.803  49.504  48.554  1.00  0.00    -0.249 N 
HETATM   23  C   UNL     1      23.576  49.986  48.150  1.00  0.00     0.339 C 
HETATM   24  N   UNL     1      22.559  49.809  49.062  1.00  0.00    -0.308 N 
HETATM   25  O   UNL     1      23.479  50.534  47.056  1.00  0.00    -0.245 OA
HETATM   26  H   UNL     1      22.856  49.661  50.018  1.00  0.00     0.170 HD
HETATM   27  H   UNL     1      25.544  49.570  47.853  1.00  0.00     0.192 HD
BRANCH  24  28
HETATM   28  C   UNL     1      21.188  50.078  48.865  1.00  0.00     0.038 A 
HETATM   29  C   UNL     1      20.245  49.106  48.518  1.00  0.00     0.055 A 
HETATM   30  C   UNL     1      18.895  49.446  48.352  1.00  0.00     0.058 A 
HETATM   31 CL   UNL     1      17.794  48.186  47.914  1.00  0.00    -0.082 Cl
HETATM   32  C   UNL     1      18.477  50.765  48.544  1.00  0.00     0.055 A 
HETATM   33 CL   UNL     1      16.831  51.256  48.365  1.00  0.00    -0.083 Cl
HETATM   34  C   UNL     1      19.412  51.739  48.899  1.00  0.00     0.028 A 
HETATM   35  C   UNL     1      20.759  51.397  49.056  1.00  0.00     0.031 A 
ENDBRANCH  24  28
ENDBRANCH   2  22
TORSDOF 6
ENDMDL
MODEL 6
REMARK VINA RESULT:      -9.9      4.932     10.359
REMARK  6 active torsions:
REMARK  status: ('A' for Active; 'I' for Inactive)
REMARK    1  A    between atoms: C_4  and  C_5 
REMARK    2  A    between atoms: C_5  and  C_6 
REMARK    3  A    between atoms: C_8  and  C_9 
REMARK    4  A    between atoms: C_9  and  C_10 
REMARK       I    between atoms: C_10  and  N_11 
REMARK    5  A    between atoms: N_11  and  N_12 
REMARK       I    between atoms: N_12  and  C_13 
REMARK       I    between atoms: C_13  and  N_14 
REMARK    6  A    between atoms: N_14  and  C_15 
ROOT
HETATM    1  C   UNL     1      25.142  46.184  51.295  1.00  0.00     0.238 C 
HETATM    2  N   UNL     1      24.368  46.783  50.323  1.00  0.00    -0.266 N 
HETATM    3  O   UNL     1      26.291  46.556  51.535  1.00  0.00    -0.272 OA
HETATM    4  H   UNL     1      23.369  46.615  50.291  1.00  0.00     0.190 HD
ENDROOT
BRANCH   1   5
HETATM    5  C   UNL     1      24.553  44.957  51.974  1.00  0.00     0.139 C 
BRANCH   5   6
HETATM    6  C   UNL     1      25.090  43.589  51.551  1.00  0.00     0.185 C 
HETATM    7  N   UNL     1      25.918  43.035  52.619  1.00  0.00    -0.363 N 
HETATM    8  C   UNL     1      27.271  42.875  52.485  1.00  0.00     0.125 C 
HETATM    9  H   UNL     1      25.438  42.561  53.379  1.00  0.00     0.161 HD
HETATM   10  N   UNL     1      27.937  43.206  51.413  1.00  0.00    -0.159 NA
HETATM   11  N   UNL     1      27.220  43.590  50.311  1.00  0.00    -0.244 N 
HETATM   12  C   UNL     1      25.844  43.658  50.226  1.00  0.00     0.261 C 
HETATM   13  H   UNL     1      27.731  43.651  49.433  1.00  0.00     0.192 HD
HETATM   14  O   UNL     1      25.278  43.857  49.154  1.00  0.00    -0.269 OA
BRANCH   8  15
HETATM   15  C   UNL     1      28.049  42.310  53.668  1.00  0.00     0.118 C 
BRANCH  15  16
HETATM   16  C   UNL     1      28.784  43.379  54.440  1.00  0.00    -0.051 A 
HETATM   17  C   UNL     1      28.181  44.622  54.679  1.00  0.00     0.007 A 
HETATM   18  C   UNL     1      28.847  45.603  55.417  1.00  0.00     0.001 A 
HETATM   19  C   UNL     1      30.117  45.349  55.927  1.00  0.00     0.000 A 
HETATM   20  C   UNL     1      30.724  44.115  55.700  1.00  0.00     0.001 A 
HETATM   21  C   UNL     1      30.061  43.132  54.961  1.00  0.00     0.007 A 
ENDBRANCH  15  16
ENDBRANCH   8  15
ENDBRANCH   5   6
ENDBRANCH   1   5
BRANCH   2  22
HETATM   22  N   UNL     1      24.831  48.006  49.807  1.00  0.00    -0.249 N 
HETATM   23  C   UNL     1      24.013  48.901  49.149  1.00  0.00     0.339 C 
HETATM   24  N   UNL     1      22.686  48.842  49.512  1.00  0.00    -0.308 N 
HETATM   25  O   UNL     1      24.506  49.671  48.331  1.00  0.00    -0.245 OA
HETATM   26  H   UNL     1      22.500  48.415  50.410  1.00  0.00     0.170 HD
HETATM   27  H   UNL     1      25.802  47.999  49.492  1.00  0.00     0.192 HD
BRANCH  24  28
HETATM   28  C   UNL     1      21.613  49.537  48.913  1.00  0.00     0.038 A 
HETATM   29  C   UNL     1      20.816  49.010  47.893  1.00  0.00     0.055 A 
HETATM   30  C   UNL     1      19.757  49.756  47.355  1.00  0.00     0.058 A 
HETATM   31 CL   UNL     1      18.824  49.035  46.090  1.00  0.00    -0.082 Cl
HETATM   32  C   UNL     1      19.481  51.035  47.846  1.00  0.00     0.055 A 
HETATM   33 CL   UNL     1      18.190  52.007  47.240  1.00  0.00    -0.083 Cl
HETATM   34  C   UNL     1      20.268  51.563  48.872  1.00  0.00     0.028 A 
HETATM   35  C   UNL     1      21.328  50.819  49.399  1.00  0.00     0.031 A 
ENDBRANCH  24  28
ENDBRANCH   2  22
TORSDOF 6
ENDMDL
MODEL 7
REMARK VINA RESULT:      -9.8      3.381      5.091
REMARK  6 active torsions:
REMARK  status: ('A' for Active; 'I' for Inactive)
REMARK    1  A    between atoms: C_4  and  C_5 
REMARK    2  A    between atoms: C_5  and  C_6 
REMARK    3  A    between atoms: C_8  and  C_9 
REMARK    4  A    between atoms: C_9  and  C_10 
REMARK       I    between atoms: C_10  and  N_11 
REMARK    5  A    between atoms: N_11  and  N_12 
REMARK       I    between atoms: N_12  and  C_13 
REMARK       I    between atoms: C_13  and  N_14 
REMARK    6  A    between atoms: N_14  and  C_15 
ROOT
HETATM    1  C   UNL     1      25.776  41.661  49.474  1.00  0.00     0.238 C 
HETATM    2  N   UNL     1      25.676  41.087  50.724  1.00  0.00    -0.266 N 
HETATM    3  O   UNL     1      26.865  41.882  48.943  1.00  0.00    -0.272 OA
HETATM    4  H   UNL     1      24.790  40.715  51.046  1.00  0.00     0.190 HD
ENDROOT
BRANCH   1   5
HETATM    5  C   UNL     1      24.478  42.125  48.832  1.00  0.00     0.139 C 
BRANCH   5   6
HETATM    6  C   UNL     1      24.084  43.592  49.013  1.00  0.00     0.185 C 
HETATM    7  N   UNL     1      25.277  44.432  48.956  1.00  0.00    -0.363 N 
HETATM    8  C   UNL     1      25.748  45.106  50.051  1.00  0.00     0.125 C 
HETATM    9  H   UNL     1      25.622  44.685  48.035  1.00  0.00     0.161 HD
HETATM   10  N   UNL     1      25.189  45.055  51.229  1.00  0.00    -0.159 NA
HETATM   11  N   UNL     1      23.983  44.415  51.335  1.00  0.00    -0.244 N 
HETATM   12  C   UNL     1      23.294  43.814  50.300  1.00  0.00     0.261 C 
HETATM   13  H   UNL     1      23.468  44.553  52.201  1.00  0.00     0.192 HD
HETATM   14  O   UNL     1      22.145  43.404  50.449  1.00  0.00    -0.269 OA
BRANCH   8  15
HETATM   15  C   UNL     1      27.017  45.937  49.893  1.00  0.00     0.118 C 
BRANCH  15  16
HETATM   16  C   UNL     1      26.730  47.359  49.479  1.00  0.00    -0.051 A 
HETATM   17  C   UNL     1      27.782  48.230  49.159  1.00  0.00     0.007 A 
HETATM   18  C   UNL     1      27.519  49.538  48.749  1.00  0.00     0.001 A 
HETATM   19  C   UNL     1      26.205  49.987  48.650  1.00  0.00     0.000 A 
HETATM   20  C   UNL     1      25.151  49.129  48.962  1.00  0.00     0.001 A 
HETATM   21  C   UNL     1      25.412  47.820  49.373  1.00  0.00     0.007 A 
ENDBRANCH  15  16
ENDBRANCH   8  15
ENDBRANCH   5   6
ENDBRANCH   1   5
BRANCH   2  22
HETATM   22  N   UNL     1      26.844  40.509  51.253  1.00  0.00    -0.249 N 
HETATM   23  C   UNL     1      27.692  41.180  52.110  1.00  0.00     0.339 C 
HETATM   24  N   UNL     1      27.089  42.163  52.863  1.00  0.00    -0.308 N 
HETATM   25  O   UNL     1      28.874  40.856  52.155  1.00  0.00    -0.245 OA
HETATM   26  H   UNL     1      26.086  42.079  52.963  1.00  0.00     0.170 HD
HETATM   27  H   UNL     1      27.299  39.828  50.643  1.00  0.00     0.192 HD
BRANCH  24  28
HETATM   28  C   UNL     1      27.729  43.089  53.715  1.00  0.00     0.038 A 
HETATM   29  C   UNL     1      28.962  42.857  54.331  1.00  0.00     0.055 A 
HETATM   30  C   UNL     1      29.544  43.831  55.155  1.00  0.00     0.058 A 
HETATM   31 CL   UNL     1      31.068  43.463  55.886  1.00  0.00    -0.082 Cl
HETATM   32  C   UNL     1      28.898  45.053  55.358  1.00  0.00     0.055 A 
HETATM   33 CL   UNL     1      29.557  46.302  56.351  1.00  0.00    -0.083 Cl
HETATM   34  C   UNL     1      27.670  45.294  54.738  1.00  0.00     0.028 A 
HETATM   35  C   UNL     1      27.090  44.317  53.924  1.00  0.00     0.031 A 
ENDBRANCH  24  28
ENDBRANCH   2  22
TORSDOF 6
ENDMDL
MODEL 8
REMARK VINA RESULT:      -9.6      1.988      2.423
REMARK  6 active torsions:
REMARK  status: ('A' for Active; 'I' for Inactive)
REMARK    1  A    between atoms: C_4  and  C_5 
REMARK    2  A    between atoms: C_5  and  C_6 
REMARK    3  A    between atoms: C_8  and  C_9 
REMARK    4  A    between atoms: C_9  and  C_10 
REMARK       I    between atoms: C_10  and  N_11 
REMARK    5  A    between atoms: N_11  and  N_12 
REMARK       I    between atoms: N_12  and  C_13 
REMARK       I    between atoms: C_13  and  N_14 
REMARK    6  A    between atoms: N_14  and  C_15 
ROOT
HETATM    1  C   UNL     1      24.501  44.005  49.660  1.00  0.00     0.238 C 
HETATM    2  N   UNL     1      25.788  43.518  49.761  1.00  0.00    -0.266 N 
HETATM    3  O   UNL     1      23.523  43.336  49.993  1.00  0.00    -0.272 OA
HETATM    4  H   UNL     1      26.579  44.148  49.694  1.00  0.00     0.190 HD
ENDROOT
BRANCH   1   5
HETATM    5  C   UNL     1      24.338  45.365  48.999  1.00  0.00     0.139 C 
BRANCH   5   6
HETATM    6  C   UNL     1      24.200  46.583  49.912  1.00  0.00     0.185 C 
HETATM    7  N   UNL     1      23.736  47.729  49.134  1.00  0.00    -0.363 N 
HETATM    8  C   UNL     1      24.530  48.819  48.897  1.00  0.00     0.125 C 
HETATM    9  H   UNL     1      22.737  47.801  48.965  1.00  0.00     0.161 HD
HETATM   10  N   UNL     1      25.757  48.930  49.326  1.00  0.00    -0.159 NA
HETATM   11  N   UNL     1      26.219  47.971  50.189  1.00  0.00    -0.244 N 
HETATM   12  C   UNL     1      25.499  46.889  50.653  1.00  0.00     0.261 C 
HETATM   13  H   UNL     1      27.093  48.172  50.668  1.00  0.00     0.192 HD
HETATM   14  O   UNL     1      25.934  46.167  51.548  1.00  0.00    -0.269 OA
BRANCH   8  15
HETATM   15  C   UNL     1      23.960  49.954  48.052  1.00  0.00     0.118 C 
BRANCH  15  16
HETATM   16  C   UNL     1      22.598  50.400  48.525  1.00  0.00    -0.051 A 
HETATM   17  C   UNL     1      21.527  50.489  47.624  1.00  0.00     0.007 A 
HETATM   18  C   UNL     1      20.260  50.875  48.064  1.00  0.00     0.001 A 
HETATM   19  C   UNL     1      20.049  51.171  49.407  1.00  0.00     0.000 A 
HETATM   20  C   UNL     1      21.105  51.082  50.314  1.00  0.00     0.001 A 
HETATM   21  C   UNL     1      22.374  50.697  49.876  1.00  0.00     0.007 A 
ENDBRANCH  15  16
ENDBRANCH   8  15
ENDBRANCH   5   6
ENDBRANCH   1   5
BRANCH   2  22
HETATM   22  N   UNL     1      25.965  42.343  50.513  1.00  0.00    -0.249 N 
HETATM   23  C   UNL     1      26.864  42.246  51.554  1.00  0.00     0.339 C 
HETATM   24  N   UNL     1      27.141  43.437  52.188  1.00  0.00    -0.308 N 
HETATM   25  O   UNL     1      27.325  41.147  51.845  1.00  0.00    -0.245 OA
HETATM   26  H   UNL     1      26.449  44.165  52.064  1.00  0.00     0.170 HD
HETATM   27  H   UNL     1      25.810  41.476  49.995  1.00  0.00     0.192 HD
BRANCH  24  28
HETATM   28  C   UNL     1      28.113  43.659  53.187  1.00  0.00     0.038 A 
HETATM   29  C   UNL     1      27.961  44.572  54.234  1.00  0.00     0.055 A 
HETATM   30  C   UNL     1      28.966  44.728  55.199  1.00  0.00     0.058 A 
HETATM   31 CL   UNL     1      28.703  45.885  56.457  1.00  0.00    -0.082 Cl
HETATM   32  C   UNL     1      30.131  43.960  55.127  1.00  0.00     0.055 A 
HETATM   33 CL   UNL     1      31.407  44.092  56.282  1.00  0.00    -0.083 Cl
HETATM   34  C   UNL     1      30.286  43.039  54.088  1.00  0.00     0.028 A 
HETATM   35  C   UNL     1      29.284  42.892  53.124  1.00  0.00     0.031 A 
ENDBRANCH  24  28
ENDBRANCH   2  22
TORSDOF 6
ENDMDL
MODEL 9
REMARK VINA RESULT:      -9.5     12.978     14.977
REMARK  6 active torsions:
REMARK  status: ('A' for Active; 'I' for Inactive)
REMARK    1  A    between atoms: C_4  and  C_5 
REMARK    2  A    between atoms: C_5  and  C_6 
REMARK    3  A    between atoms: C_8  and  C_9 
REMARK    4  A    between atoms: C_9  and  C_10 
REMARK       I    between atoms: C_10  and  N_11 
REMARK    5  A    between atoms: N_11  and  N_12 
REMARK       I    between atoms: N_12  and  C_13 
REMARK       I    between atoms: C_13  and  N_14 
REMARK    6  A    between atoms: N_14  and  C_15 
ROOT
HETATM    1  C   UNL     1      34.208  51.774  39.596  1.00  0.00     0.238 C 
HETATM    2  N   UNL     1      33.462  51.078  38.668  1.00  0.00    -0.266 N 
HETATM    3  O   UNL     1      34.003  52.964  39.838  1.00  0.00    -0.272 OA
HETATM    4  H   UNL     1      33.494  50.065  38.643  1.00  0.00     0.190 HD
ENDROOT
BRANCH   1   5
HETATM    5  C   UNL     1      35.382  51.035  40.218  1.00  0.00     0.139 C 
BRANCH   5   6
HETATM    6  C   UNL     1      35.180  50.427  41.607  1.00  0.00     0.185 C 
HETATM    7  N   UNL     1      33.752  50.283  41.877  1.00  0.00    -0.363 N 
HETATM    8  C   UNL     1      33.111  51.027  42.831  1.00  0.00     0.125 C 
HETATM    9  H   UNL     1      33.290  49.461  41.500  1.00  0.00     0.161 HD
HETATM   10  N   UNL     1      33.704  51.925  43.568  1.00  0.00    -0.159 NA
HETATM   11  N   UNL     1      35.068  52.017  43.487  1.00  0.00    -0.244 N 
HETATM   12  C   UNL     1      35.884  51.238  42.691  1.00  0.00     0.261 C 
HETATM   13  H   UNL     1      35.532  52.573  44.202  1.00  0.00     0.192 HD
HETATM   14  O   UNL     1      37.108  51.277  42.798  1.00  0.00    -0.269 OA
BRANCH   8  15
HETATM   15  C   UNL     1      31.612  50.819  43.018  1.00  0.00     0.118 C 
BRANCH  15  16
HETATM   16  C   UNL     1      30.789  51.664  42.078  1.00  0.00    -0.051 A 
HETATM   17  C   UNL     1      29.479  51.287  41.748  1.00  0.00     0.007 A 
HETATM   18  C   UNL     1      28.705  52.082  40.901  1.00  0.00     0.001 A 
HETATM   19  C   UNL     1      29.228  53.262  40.380  1.00  0.00     0.000 A 
HETATM   20  C   UNL     1      30.528  53.649  40.705  1.00  0.00     0.001 A 
HETATM   21  C   UNL     1      31.305  52.856  41.552  1.00  0.00     0.007 A 
ENDBRANCH  15  16
ENDBRANCH   8  15
ENDBRANCH   5   6
ENDBRANCH   1   5
BRANCH   2  22
HETATM   22  N   UNL     1      32.283  51.694  38.211  1.00  0.00    -0.249 N 
HETATM   23  C   UNL     1      31.102  51.006  38.022  1.00  0.00     0.339 C 
HETATM   24  N   UNL     1      30.953  49.890  38.813  1.00  0.00    -0.308 N 
HETATM   25  O   UNL     1      30.288  51.430  37.207  1.00  0.00    -0.245 OA
HETATM   26  H   UNL     1      31.527  49.868  39.646  1.00  0.00     0.170 HD
HETATM   27  H   UNL     1      32.429  52.482  37.577  1.00  0.00     0.192 HD
BRANCH  24  28
HETATM   28  C   UNL     1      29.919  48.931  38.739  1.00  0.00     0.038 A 
HETATM   29  C   UNL     1      28.558  49.248  38.791  1.00  0.00     0.055 A 
HETATM   30  C   UNL     1      27.586  48.242  38.697  1.00  0.00     0.058 A 
HETATM   31 CL   UNL     1      25.925  48.716  38.778  1.00  0.00    -0.082 Cl
HETATM   32  C   UNL     1      27.972  46.908  38.540  1.00  0.00     0.055 A 
HETATM   33 CL   UNL     1      26.832  45.618  38.410  1.00  0.00    -0.083 Cl
HETATM   34  C   UNL     1      29.329  46.586  38.479  1.00  0.00     0.028 A 
HETATM   35  C   UNL     1      30.295  47.592  38.580  1.00  0.00     0.031 A 
ENDBRANCH  24  28
ENDBRANCH   2  22
TORSDOF 6
ENDMDL
MODEL 10
REMARK VINA RESULT:      -9.4      3.025      4.588
REMARK  6 active torsions:
REMARK  status: ('A' for Active; 'I' for Inactive)
REMARK    1  A    between atoms: C_4  and  C_5 
REMARK    2  A    between atoms: C_5  and  C_6 
REMARK    3  A    between atoms: C_8  and  C_9 
REMARK    4  A    between atoms: C_9  and  C_10 
REMARK       I    between atoms: C_10  and  N_11 
REMARK    5  A    between atoms: N_11  and  N_12 
REMARK       I    between atoms: N_12  and  C_13 
REMARK       I    between atoms: C_13  and  N_14 
REMARK    6  A    between atoms: N_14  and  C_15 
ROOT
HETATM    1  C   UNL     1      23.244  44.562  48.430  1.00  0.00     0.238 C 
HETATM    2  N   UNL     1      24.168  44.987  49.362  1.00  0.00    -0.266 N 
HETATM    3  O   UNL     1      23.577  44.184  47.307  1.00  0.00    -0.272 OA
HETATM    4  H   UNL     1      23.904  45.082  50.336  1.00  0.00     0.190 HD
ENDROOT
BRANCH   1   5
HETATM    5  C   UNL     1      21.778  44.703  48.811  1.00  0.00     0.139 C 
BRANCH   5   6
HETATM    6  C   UNL     1      20.924  45.673  47.994  1.00  0.00     0.185 C 
HETATM    7  N   UNL     1      21.352  47.044  48.255  1.00  0.00    -0.363 N 
HETATM    8  C   UNL     1      20.561  47.942  48.921  1.00  0.00     0.125 C 
HETATM    9  H   UNL     1      22.155  47.386  47.735  1.00  0.00     0.161 HD
HETATM   10  N   UNL     1      19.375  47.657  49.385  1.00  0.00    -0.159 NA
HETATM   11  N   UNL     1      18.835  46.442  49.053  1.00  0.00    -0.244 N 
HETATM   12  C   UNL     1      19.434  45.482  48.262  1.00  0.00     0.261 C 
HETATM   13  H   UNL     1      17.845  46.314  49.249  1.00  0.00     0.192 HD
HETATM   14  O   UNL     1      18.815  44.490  47.882  1.00  0.00    -0.269 OA
BRANCH   8  15
HETATM   15  C   UNL     1      21.110  49.343  49.165  1.00  0.00     0.118 C 
BRANCH  15  16
HETATM   16  C   UNL     1      20.078  50.418  48.931  1.00  0.00    -0.051 A 
HETATM   17  C   UNL     1      19.551  51.142  50.010  1.00  0.00     0.007 A 
HETATM   18  C   UNL     1      18.617  52.157  49.795  1.00  0.00     0.001 A 
HETATM   19  C   UNL     1      18.204  52.461  48.501  1.00  0.00     0.000 A 
HETATM   20  C   UNL     1      18.725  51.751  47.419  1.00  0.00     0.001 A 
HETATM   21  C   UNL     1      19.659  50.735  47.632  1.00  0.00     0.007 A 
ENDBRANCH  15  16
ENDBRANCH   8  15
ENDBRANCH   5   6
ENDBRANCH   1   5
BRANCH   2  22
HETATM   22  N   UNL     1      25.519  44.711  49.087  1.00  0.00    -0.249 N 
HETATM   23  C   UNL     1      26.518  44.837  50.030  1.00  0.00     0.339 C 
HETATM   24  N   UNL     1      26.104  44.674  51.333  1.00  0.00    -0.308 N 
HETATM   25  O   UNL     1      27.666  45.059  49.658  1.00  0.00    -0.245 OA
HETATM   26  H   UNL     1      25.233  44.173  51.451  1.00  0.00     0.170 HD
HETATM   27  H   UNL     1      25.808  44.901  48.125  1.00  0.00     0.192 HD
BRANCH  24  28
HETATM   28  C   UNL     1      26.873  44.879  52.498  1.00  0.00     0.038 A 
HETATM   29  C   UNL     1      27.924  44.048  52.895  1.00  0.00     0.055 A 
HETATM   30  C   UNL     1      28.654  44.323  54.060  1.00  0.00     0.058 A 
HETATM   31 CL   UNL     1      29.934  43.240  54.484  1.00  0.00    -0.082 Cl
HETATM   32  C   UNL     1      28.341  45.444  54.833  1.00  0.00     0.055 A 
HETATM   33 CL   UNL     1      29.200  45.851  56.274  1.00  0.00    -0.083 Cl
HETATM   34  C   UNL     1      27.298  46.284  54.437  1.00  0.00     0.028 A 
HETATM   35  C   UNL     1      26.568  46.001  53.279  1.00  0.00     0.031 A 
ENDBRANCH  24  28
ENDBRANCH   2  22
TORSDOF 6
ENDMDL
