MODEL 1
REMARK VINA RESULT:      -9.8      0.000      0.000
REMARK  5 active torsions:
REMARK  status: ('A' for Active; 'I' for Inactive)
REMARK    1  A    between atoms: O_2  and  C_3 
REMARK    2  A    between atoms: C_4  and  C_5 
REMARK    3  A    between atoms: C_9  and  S_10 
REMARK    4  A    between atoms: S_10  and  C_11 
REMARK    5  A    between atoms: C_11  and  C_12 
REMARK       I    between atoms: C_12  and  N_13 
ROOT
HETATM    1  C   UNL     1      24.519  47.500  50.010  1.00  0.00     0.185 A 
HETATM    2  N   UNL     1      24.792  47.680  51.313  1.00  0.00    -0.152 NA
HETATM    3  N   UNL     1      25.644  46.673  51.558  1.00  0.00    -0.253 N 
HETATM    4  H   UNL     1      26.051  46.593  52.480  1.00  0.00     0.191 HD
HETATM    5  C   UNL     1      25.856  45.920  50.447  1.00  0.00     0.185 A 
HETATM    6  N   UNL     1      25.181  46.427  49.446  1.00  0.00    -0.201 NA
ENDROOT
BRANCH   5   7
HETATM    7  S   UNL     1      26.943  44.583  50.364  1.00  0.00    -0.081 SA
BRANCH   7   8
HETATM    8  C   UNL     1      26.549  43.619  51.843  1.00  0.00     0.185 C 
BRANCH   8   9
HETATM    9  C   UNL     1      27.774  43.485  52.741  1.00  0.00     0.234 C 
HETATM   10  N   UNL     1      27.853  44.267  53.904  1.00  0.00    -0.317 N 
HETATM   11  C   UNL     1      29.007  44.244  54.781  1.00  0.00     0.043 A 
HETATM   12  C   UNL     1      26.771  45.163  54.346  1.00  0.00     0.132 C 
HETATM   13  C   UNL     1      29.213  45.298  55.701  1.00  0.00    -0.031 A 
HETATM   14  C   UNL     1      29.949  43.203  54.769  1.00  0.00     0.030 A 
HETATM   15  C   UNL     1      30.332  45.289  56.558  1.00  0.00     0.009 A 
HETATM   16  C   UNL     1      28.259  46.459  55.829  1.00  0.00     0.042 C 
HETATM   17  C   UNL     1      31.255  44.251  56.511  1.00  0.00     0.001 A 
HETATM   18  C   UNL     1      31.061  43.207  55.619  1.00  0.00     0.002 A 
HETATM   19  C   UNL     1      27.307  46.549  54.652  1.00  0.00     0.025 C 
HETATM   20  O   UNL     1      28.663  42.727  52.337  1.00  0.00    -0.272 OA
ENDBRANCH   8   9
ENDBRANCH   7   8
ENDBRANCH   5   7
BRANCH   1  21
HETATM   21  C   UNL     1      23.724  48.422  49.207  1.00  0.00     0.048 A 
HETATM   22  C   UNL     1      24.232  49.635  48.711  1.00  0.00     0.082 A 
HETATM   23  C   UNL     1      23.429  50.461  47.913  1.00  0.00     0.039 A 
HETATM   24  C   UNL     1      22.131  50.071  47.580  1.00  0.00     0.026 A 
HETATM   25  C   UNL     1      21.625  48.869  48.068  1.00  0.00     0.035 A 
HETATM   26  C   UNL     1      22.407  48.052  48.882  1.00  0.00     0.042 A 
HETATM   27 CL   UNL     1      20.023  48.392  47.660  1.00  0.00    -0.084 Cl
BRANCH  22  28
HETATM   28  O   UNL     1      25.480  50.052  49.105  1.00  0.00    -0.355 OA
HETATM   29  C   UNL     1      26.474  49.872  48.098  1.00  0.00     0.210 C 
ENDBRANCH  22  28
ENDBRANCH   1  21
TORSDOF 5
ENDMDL
MODEL 2
REMARK VINA RESULT:      -9.8      2.290      3.311
REMARK  5 active torsions:
REMARK  status: ('A' for Active; 'I' for Inactive)
REMARK    1  A    between atoms: O_2  and  C_3 
REMARK    2  A    between atoms: C_4  and  C_5 
REMARK    3  A    between atoms: C_9  and  S_10 
REMARK    4  A    between atoms: S_10  and  C_11 
REMARK    5  A    between atoms: C_11  and  C_12 
REMARK       I    between atoms: C_12  and  N_13 
ROOT
HETATM    1  C   UNL     1      23.481  49.606  48.236  1.00  0.00     0.185 A 
HETATM    2  N   UNL     1      24.413  50.209  47.480  1.00  0.00    -0.152 NA
HETATM    3  N   UNL     1      25.549  49.726  48.004  1.00  0.00    -0.253 N 
HETATM    4  H   UNL     1      26.430  49.991  47.586  1.00  0.00     0.191 HD
HETATM    5  C   UNL     1      25.300  48.881  49.039  1.00  0.00     0.185 A 
HETATM    6  N   UNL     1      24.005  48.763  49.197  1.00  0.00    -0.201 NA
ENDROOT
BRANCH   5   7
HETATM    7  S   UNL     1      26.511  48.017  49.911  1.00  0.00    -0.081 SA
BRANCH   7   8
HETATM    8  C   UNL     1      25.757  46.398  50.200  1.00  0.00     0.185 C 
BRANCH   8   9
HETATM    9  C   UNL     1      26.780  45.420  50.765  1.00  0.00     0.234 C 
HETATM   10  N   UNL     1      26.907  45.297  52.158  1.00  0.00    -0.317 N 
HETATM   11  C   UNL     1      27.894  44.435  52.777  1.00  0.00     0.043 A 
HETATM   12  C   UNL     1      26.044  46.015  53.110  1.00  0.00     0.132 C 
HETATM   13  C   UNL     1      28.243  44.625  54.134  1.00  0.00    -0.031 A 
HETATM   14  C   UNL     1      28.531  43.392  52.086  1.00  0.00     0.030 A 
HETATM   15  C   UNL     1      29.203  43.795  54.748  1.00  0.00     0.009 A 
HETATM   16  C   UNL     1      27.610  45.693  54.990  1.00  0.00     0.042 C 
HETATM   17  C   UNL     1      29.827  42.781  54.032  1.00  0.00     0.001 A 
HETATM   18  C   UNL     1      29.488  42.577  52.703  1.00  0.00     0.002 A 
HETATM   19  C   UNL     1      26.872  46.727  54.162  1.00  0.00     0.025 C 
HETATM   20  O   UNL     1      27.490  44.838  49.937  1.00  0.00    -0.272 OA
ENDBRANCH   8   9
ENDBRANCH   7   8
ENDBRANCH   5   7
BRANCH   1  21
HETATM   21  C   UNL     1      22.046  49.695  47.991  1.00  0.00     0.048 A 
HETATM   22  C   UNL     1      21.283  48.609  47.529  1.00  0.00     0.082 A 
HETATM   23  C   UNL     1      19.899  48.748  47.348  1.00  0.00     0.039 A 
HETATM   24  C   UNL     1      19.267  49.954  47.654  1.00  0.00     0.026 A 
HETATM   25  C   UNL     1      20.021  51.031  48.113  1.00  0.00     0.035 A 
HETATM   26  C   UNL     1      21.400  50.911  48.274  1.00  0.00     0.042 A 
HETATM   27 CL   UNL     1      19.241  52.518  48.485  1.00  0.00    -0.084 Cl
BRANCH  22  28
HETATM   28  O   UNL     1      21.918  47.451  47.155  1.00  0.00    -0.355 OA
HETATM   29  C   UNL     1      21.495  46.314  47.905  1.00  0.00     0.210 C 
ENDBRANCH  22  28
ENDBRANCH   1  21
TORSDOF 5
ENDMDL
MODEL 3
REMARK VINA RESULT:      -9.7      3.536      8.439
REMARK  5 active torsions:
REMARK  status: ('A' for Active; 'I' for Inactive)
REMARK    1  A    between atoms: O_2  and  C_3 
REMARK    2  A    between atoms: C_4  and  C_5 
REMARK    3  A    between atoms: C_9  and  S_10 
REMARK    4  A    between atoms: S_10  and  C_11 
REMARK    5  A    between atoms: C_11  and  C_12 
REMARK       I    between atoms: C_12  and  N_13 
ROOT
HETATM    1  C   UNL     1      28.228  43.142  53.708  1.00  0.00     0.185 A 
HETATM    2  N   UNL     1      27.931  41.840  53.847  1.00  0.00    -0.152 NA
HETATM    3  N   UNL     1      27.436  41.539  52.637  1.00  0.00    -0.253 N 
HETATM    4  H   UNL     1      27.163  40.584  52.447  1.00  0.00     0.191 HD
HETATM    5  C   UNL     1      27.427  42.624  51.819  1.00  0.00     0.185 A 
HETATM    6  N   UNL     1      27.943  43.647  52.454  1.00  0.00    -0.201 NA
ENDROOT
BRANCH   5   7
HETATM    7  S   UNL     1      26.925  42.602  50.169  1.00  0.00    -0.081 SA
BRANCH   7   8
HETATM    8  C   UNL     1      25.662  43.893  50.090  1.00  0.00     0.185 C 
BRANCH   8   9
HETATM    9  C   UNL     1      26.291  45.243  49.763  1.00  0.00     0.234 C 
HETATM   10  N   UNL     1      25.469  46.379  49.700  1.00  0.00    -0.317 N 
HETATM   11  C   UNL     1      25.975  47.688  49.340  1.00  0.00     0.043 A 
HETATM   12  C   UNL     1      24.030  46.348  50.010  1.00  0.00     0.132 C 
HETATM   13  C   UNL     1      25.079  48.699  48.919  1.00  0.00    -0.031 A 
HETATM   14  C   UNL     1      27.340  48.016  49.392  1.00  0.00     0.030 A 
HETATM   15  C   UNL     1      25.559  49.976  48.564  1.00  0.00     0.009 A 
HETATM   16  C   UNL     1      23.589  48.479  48.846  1.00  0.00     0.042 C 
HETATM   17  C   UNL     1      26.918  50.263  48.612  1.00  0.00     0.001 A 
HETATM   18  C   UNL     1      27.806  49.284  49.030  1.00  0.00     0.002 A 
HETATM   19  C   UNL     1      23.224  47.009  48.908  1.00  0.00     0.025 C 
HETATM   20  O   UNL     1      27.500  45.231  49.505  1.00  0.00    -0.272 OA
ENDBRANCH   8   9
ENDBRANCH   7   8
ENDBRANCH   5   7
BRANCH   1  21
HETATM   21  C   UNL     1      28.925  43.934  54.715  1.00  0.00     0.048 A 
HETATM   22  C   UNL     1      28.422  45.149  55.212  1.00  0.00     0.082 A 
HETATM   23  C   UNL     1      29.121  45.846  56.207  1.00  0.00     0.039 A 
HETATM   24  C   UNL     1      30.303  45.324  56.733  1.00  0.00     0.026 A 
HETATM   25  C   UNL     1      30.803  44.119  56.244  1.00  0.00     0.035 A 
HETATM   26  C   UNL     1      30.128  43.431  55.238  1.00  0.00     0.042 A 
HETATM   27 CL   UNL     1      32.263  43.479  56.891  1.00  0.00    -0.084 Cl
BRANCH  22  28
HETATM   28  O   UNL     1      27.302  45.699  54.638  1.00  0.00    -0.355 OA
HETATM   29  C   UNL     1      27.446  47.087  54.346  1.00  0.00     0.210 C 
ENDBRANCH  22  28
ENDBRANCH   1  21
TORSDOF 5
ENDMDL
MODEL 4
REMARK VINA RESULT:      -9.5      1.813      2.407
REMARK  5 active torsions:
REMARK  status: ('A' for Active; 'I' for Inactive)
REMARK    1  A    between atoms: O_2  and  C_3 
REMARK    2  A    between atoms: C_4  and  C_5 
REMARK    3  A    between atoms: C_9  and  S_10 
REMARK    4  A    between atoms: S_10  and  C_11 
REMARK    5  A    between atoms: C_11  and  C_12 
REMARK       I    between atoms: C_12  and  N_13 
ROOT
HETATM    1  C   UNL     1      22.468  47.403  48.454  1.00  0.00     0.185 A 
HETATM    2  N   UNL     1      22.033  46.463  47.599  1.00  0.00    -0.152 NA
HETATM    3  N   UNL     1      22.783  45.406  47.946  1.00  0.00    -0.253 N 
HETATM    4  H   UNL     1      22.629  44.524  47.475  1.00  0.00     0.191 HD
HETATM    5  C   UNL     1      23.636  45.713  48.958  1.00  0.00     0.185 A 
HETATM    6  N   UNL     1      23.448  46.957  49.320  1.00  0.00    -0.201 NA
ENDROOT
BRANCH   5   7
HETATM    7  S   UNL     1      24.705  44.588  49.712  1.00  0.00    -0.081 SA
BRANCH   7   8
HETATM    8  C   UNL     1      25.611  45.597  50.909  1.00  0.00     0.185 C 
BRANCH   8   9
HETATM    9  C   UNL     1      26.830  44.846  51.433  1.00  0.00     0.234 C 
HETATM   10  N   UNL     1      27.124  44.899  52.805  1.00  0.00    -0.317 N 
HETATM   11  C   UNL     1      28.295  44.264  53.376  1.00  0.00     0.043 A 
HETATM   12  C   UNL     1      26.266  45.586  53.785  1.00  0.00     0.132 C 
HETATM   13  C   UNL     1      28.754  44.654  54.656  1.00  0.00    -0.031 A 
HETATM   14  C   UNL     1      29.010  43.253  52.713  1.00  0.00     0.030 A 
HETATM   15  C   UNL     1      29.892  44.045  55.221  1.00  0.00     0.009 A 
HETATM   16  C   UNL     1      28.057  45.707  55.478  1.00  0.00     0.042 C 
HETATM   17  C   UNL     1      30.587  43.058  54.532  1.00  0.00     0.001 A 
HETATM   18  C   UNL     1      30.143  42.661  53.280  1.00  0.00     0.002 A 
HETATM   19  C   UNL     1      27.081  46.524  54.654  1.00  0.00     0.025 C 
HETATM   20  O   UNL     1      27.529  44.284  50.582  1.00  0.00    -0.272 OA
ENDBRANCH   8   9
ENDBRANCH   7   8
ENDBRANCH   5   7
BRANCH   1  21
HETATM   21  C   UNL     1      21.874  48.729  48.582  1.00  0.00     0.048 A 
HETATM   22  C   UNL     1      22.415  49.869  47.962  1.00  0.00     0.082 A 
HETATM   23  C   UNL     1      21.777  51.110  48.092  1.00  0.00     0.039 A 
HETATM   24  C   UNL     1      20.586  51.217  48.812  1.00  0.00     0.026 A 
HETATM   25  C   UNL     1      20.047  50.089  49.424  1.00  0.00     0.035 A 
HETATM   26  C   UNL     1      20.686  48.855  49.321  1.00  0.00     0.042 A 
HETATM   27 CL   UNL     1      18.580  50.223  50.314  1.00  0.00    -0.084 Cl
BRANCH  22  28
HETATM   28  O   UNL     1      23.627  49.776  47.323  1.00  0.00    -0.355 OA
HETATM   29  C   UNL     1      24.727  50.145  48.152  1.00  0.00     0.210 C 
ENDBRANCH  22  28
ENDBRANCH   1  21
TORSDOF 5
ENDMDL
MODEL 5
REMARK VINA RESULT:      -9.4      1.018      2.000
REMARK  5 active torsions:
REMARK  status: ('A' for Active; 'I' for Inactive)
REMARK    1  A    between atoms: O_2  and  C_3 
REMARK    2  A    between atoms: C_4  and  C_5 
REMARK    3  A    between atoms: C_9  and  S_10 
REMARK    4  A    between atoms: S_10  and  C_11 
REMARK    5  A    between atoms: C_11  and  C_12 
REMARK       I    between atoms: C_12  and  N_13 
ROOT
HETATM    1  C   UNL     1      24.435  47.440  49.847  1.00  0.00     0.185 A 
HETATM    2  N   UNL     1      25.148  47.814  50.922  1.00  0.00    -0.152 NA
HETATM    3  N   UNL     1      25.908  46.731  51.140  1.00  0.00    -0.253 N 
HETATM    4  H   UNL     1      26.588  46.756  51.888  1.00  0.00     0.191 HD
HETATM    5  C   UNL     1      25.646  45.749  50.239  1.00  0.00     0.185 A 
HETATM    6  N   UNL     1      24.739  46.171  49.393  1.00  0.00    -0.201 NA
ENDROOT
BRANCH   5   7
HETATM    7  S   UNL     1      26.476  44.239  50.165  1.00  0.00    -0.081 SA
BRANCH   7   8
HETATM    8  C   UNL     1      26.011  43.420  51.709  1.00  0.00     0.185 C 
BRANCH   8   9
HETATM    9  C   UNL     1      26.550  44.189  52.910  1.00  0.00     0.234 C 
HETATM   10  N   UNL     1      27.899  44.032  53.268  1.00  0.00    -0.317 N 
HETATM   11  C   UNL     1      28.477  44.680  54.429  1.00  0.00     0.043 A 
HETATM   12  C   UNL     1      28.847  43.216  52.492  1.00  0.00     0.132 C 
HETATM   13  C   UNL     1      29.698  44.206  54.965  1.00  0.00    -0.031 A 
HETATM   14  C   UNL     1      27.879  45.782  55.061  1.00  0.00     0.030 A 
HETATM   15  C   UNL     1      30.270  44.825  56.094  1.00  0.00     0.009 A 
HETATM   16  C   UNL     1      30.450  43.047  54.360  1.00  0.00     0.042 C 
HETATM   17  C   UNL     1      29.644  45.905  56.706  1.00  0.00     0.001 A 
HETATM   18  C   UNL     1      28.452  46.385  56.186  1.00  0.00     0.002 A 
HETATM   19  C   UNL     1      29.596  42.252  53.392  1.00  0.00     0.025 C 
HETATM   20  O   UNL     1      25.726  44.861  53.541  1.00  0.00    -0.272 OA
ENDBRANCH   8   9
ENDBRANCH   7   8
ENDBRANCH   5   7
BRANCH   1  21
HETATM   21  C   UNL     1      23.531  48.322  49.118  1.00  0.00     0.048 A 
HETATM   22  C   UNL     1      23.926  49.577  48.622  1.00  0.00     0.082 A 
HETATM   23  C   UNL     1      23.021  50.363  47.896  1.00  0.00     0.039 A 
HETATM   24  C   UNL     1      21.733  49.893  47.634  1.00  0.00     0.026 A 
HETATM   25  C   UNL     1      21.340  48.649  48.122  1.00  0.00     0.035 A 
HETATM   26  C   UNL     1      22.224  47.870  48.865  1.00  0.00     0.042 A 
HETATM   27 CL   UNL     1      19.751  48.074  47.802  1.00  0.00    -0.084 Cl
BRANCH  22  28
HETATM   28  O   UNL     1      25.165  50.070  48.949  1.00  0.00    -0.355 OA
HETATM   29  C   UNL     1      26.111  49.954  47.887  1.00  0.00     0.210 C 
ENDBRANCH  22  28
ENDBRANCH   1  21
TORSDOF 5
ENDMDL
MODEL 6
REMARK VINA RESULT:      -9.2      1.803      2.170
REMARK  5 active torsions:
REMARK  status: ('A' for Active; 'I' for Inactive)
REMARK    1  A    between atoms: O_2  and  C_3 
REMARK    2  A    between atoms: C_4  and  C_5 
REMARK    3  A    between atoms: C_9  and  S_10 
REMARK    4  A    between atoms: S_10  and  C_11 
REMARK    5  A    between atoms: C_11  and  C_12 
REMARK       I    between atoms: C_12  and  N_13 
ROOT
HETATM    1  C   UNL     1      24.298  44.770  50.014  1.00  0.00     0.185 A 
HETATM    2  N   UNL     1      23.758  44.052  51.013  1.00  0.00    -0.152 NA
HETATM    3  N   UNL     1      24.696  43.116  51.219  1.00  0.00    -0.253 N 
HETATM    4  H   UNL     1      24.561  42.448  51.966  1.00  0.00     0.191 HD
HETATM    5  C   UNL     1      25.744  43.266  50.367  1.00  0.00     0.185 A 
HETATM    6  N   UNL     1      25.538  44.314  49.609  1.00  0.00    -0.201 NA
ENDROOT
BRANCH   5   7
HETATM    7  S   UNL     1      27.166  42.289  50.382  1.00  0.00    -0.081 SA
BRANCH   7   8
HETATM    8  C   UNL     1      27.113  41.484  52.001  1.00  0.00     0.185 C 
BRANCH   8   9
HETATM    9  C   UNL     1      28.200  42.039  52.915  1.00  0.00     0.234 C 
HETATM   10  N   UNL     1      27.900  43.133  53.742  1.00  0.00    -0.317 N 
HETATM   11  C   UNL     1      28.891  43.758  54.596  1.00  0.00     0.043 A 
HETATM   12  C   UNL     1      26.557  43.730  53.830  1.00  0.00     0.132 C 
HETATM   13  C   UNL     1      28.662  45.058  55.105  1.00  0.00    -0.031 A 
HETATM   14  C   UNL     1      30.090  43.124  54.959  1.00  0.00     0.030 A 
HETATM   15  C   UNL     1      29.618  45.678  55.936  1.00  0.00     0.009 A 
HETATM   16  C   UNL     1      27.402  45.832  54.810  1.00  0.00     0.042 C 
HETATM   17  C   UNL     1      30.802  45.029  56.264  1.00  0.00     0.001 A 
HETATM   18  C   UNL     1      31.035  43.751  55.778  1.00  0.00     0.002 A 
HETATM   19  C   UNL     1      26.622  45.235  53.655  1.00  0.00     0.025 C 
HETATM   20  O   UNL     1      29.316  41.517  52.811  1.00  0.00    -0.272 OA
ENDBRANCH   8   9
ENDBRANCH   7   8
ENDBRANCH   5   7
BRANCH   1  21
HETATM   21  C   UNL     1      23.725  46.005  49.492  1.00  0.00     0.048 A 
HETATM   22  C   UNL     1      24.128  47.278  49.932  1.00  0.00     0.082 A 
HETATM   23  C   UNL     1      23.565  48.429  49.364  1.00  0.00     0.039 A 
HETATM   24  C   UNL     1      22.623  48.320  48.339  1.00  0.00     0.026 A 
HETATM   25  C   UNL     1      22.224  47.060  47.901  1.00  0.00     0.035 A 
HETATM   26  C   UNL     1      22.759  45.910  48.474  1.00  0.00     0.042 A 
HETATM   27 CL   UNL     1      21.060  46.928  46.640  1.00  0.00    -0.084 Cl
BRANCH  22  28
HETATM   28  O   UNL     1      24.994  47.380  50.992  1.00  0.00    -0.355 OA
HETATM   29  C   UNL     1      26.322  47.721  50.599  1.00  0.00     0.210 C 
ENDBRANCH  22  28
ENDBRANCH   1  21
TORSDOF 5
ENDMDL
MODEL 7
REMARK VINA RESULT:      -9.0      3.647     10.207
REMARK  5 active torsions:
REMARK  status: ('A' for Active; 'I' for Inactive)
REMARK    1  A    between atoms: O_2  and  C_3 
REMARK    2  A    between atoms: C_4  and  C_5 
REMARK    3  A    between atoms: C_9  and  S_10 
REMARK    4  A    between atoms: S_10  and  C_11 
REMARK    5  A    between atoms: C_11  and  C_12 
REMARK       I    between atoms: C_12  and  N_13 
ROOT
HETATM    1  C   UNL     1      25.888  46.201  52.564  1.00  0.00     0.185 A 
HETATM    2  N   UNL     1      24.957  45.294  52.225  1.00  0.00    -0.152 NA
HETATM    3  N   UNL     1      24.416  45.849  51.131  1.00  0.00    -0.253 N 
HETATM    4  H   UNL     1      23.695  45.343  50.634  1.00  0.00     0.191 HD
HETATM    5  C   UNL     1      24.994  47.044  50.841  1.00  0.00     0.185 A 
HETATM    6  N   UNL     1      25.944  47.286  51.710  1.00  0.00    -0.201 NA
ENDROOT
BRANCH   5   7
HETATM    7  S   UNL     1      24.605  48.013  49.468  1.00  0.00    -0.081 SA
BRANCH   7   8
HETATM    8  C   UNL     1      22.867  47.624  49.150  1.00  0.00     0.185 C 
BRANCH   8   9
HETATM    9  C   UNL     1      22.050  48.901  48.990  1.00  0.00     0.234 C 
HETATM   10  N   UNL     1      20.787  48.828  48.381  1.00  0.00    -0.317 N 
HETATM   11  C   UNL     1      19.971  50.001  48.138  1.00  0.00     0.043 A 
HETATM   12  C   UNL     1      20.173  47.560  47.952  1.00  0.00     0.132 C 
HETATM   13  C   UNL     1      18.912  49.940  47.201  1.00  0.00    -0.031 A 
HETATM   14  C   UNL     1      20.176  51.220  48.803  1.00  0.00     0.030 A 
HETATM   15  C   UNL     1      18.112  51.074  46.954  1.00  0.00     0.009 A 
HETATM   16  C   UNL     1      18.575  48.681  46.443  1.00  0.00     0.042 C 
HETATM   17  C   UNL     1      18.351  52.271  47.618  1.00  0.00     0.001 A 
HETATM   18  C   UNL     1      19.380  52.342  48.545  1.00  0.00     0.002 A 
HETATM   19  C   UNL     1      19.686  47.652  46.519  1.00  0.00     0.025 C 
HETATM   20  O   UNL     1      22.597  49.946  49.357  1.00  0.00    -0.272 OA
ENDBRANCH   8   9
ENDBRANCH   7   8
ENDBRANCH   5   7
BRANCH   1  21
HETATM   21  C   UNL     1      26.862  46.013  53.633  1.00  0.00     0.048 A 
HETATM   22  C   UNL     1      26.961  46.880  54.735  1.00  0.00     0.082 A 
HETATM   23  C   UNL     1      27.893  46.625  55.750  1.00  0.00     0.039 A 
HETATM   24  C   UNL     1      28.708  45.493  55.688  1.00  0.00     0.026 A 
HETATM   25  C   UNL     1      28.611  44.632  54.599  1.00  0.00     0.035 A 
HETATM   26  C   UNL     1      27.704  44.890  53.573  1.00  0.00     0.042 A 
HETATM   27 CL   UNL     1      29.620  43.240  54.522  1.00  0.00    -0.084 Cl
BRANCH  22  28
HETATM   28  O   UNL     1      26.214  48.032  54.754  1.00  0.00    -0.355 OA
HETATM   29  C   UNL     1      26.303  48.737  55.990  1.00  0.00     0.210 C 
ENDBRANCH  22  28
ENDBRANCH   1  21
TORSDOF 5
ENDMDL
MODEL 8
REMARK VINA RESULT:      -8.9      3.210      9.534
REMARK  5 active torsions:
REMARK  status: ('A' for Active; 'I' for Inactive)
REMARK    1  A    between atoms: O_2  and  C_3 
REMARK    2  A    between atoms: C_4  and  C_5 
REMARK    3  A    between atoms: C_9  and  S_10 
REMARK    4  A    between atoms: S_10  and  C_11 
REMARK    5  A    between atoms: C_11  and  C_12 
REMARK       I    between atoms: C_12  and  N_13 
ROOT
HETATM    1  C   UNL     1      27.428  45.427  53.692  1.00  0.00     0.185 A 
HETATM    2  N   UNL     1      26.928  46.669  53.800  1.00  0.00    -0.152 NA
HETATM    3  N   UNL     1      25.862  46.609  52.989  1.00  0.00    -0.253 N 
HETATM    4  H   UNL     1      25.262  47.419  52.911  1.00  0.00     0.191 HD
HETATM    5  C   UNL     1      25.743  45.384  52.413  1.00  0.00     0.185 A 
HETATM    6  N   UNL     1      26.701  44.606  52.852  1.00  0.00    -0.201 NA
ENDROOT
BRANCH   5   7
HETATM    7  S   UNL     1      24.456  44.914  51.366  1.00  0.00    -0.081 SA
BRANCH   7   8
HETATM    8  C   UNL     1      24.886  45.685  49.787  1.00  0.00     0.185 C 
BRANCH   8   9
HETATM    9  C   UNL     1      24.276  47.078  49.683  1.00  0.00     0.234 C 
HETATM   10  N   UNL     1      23.042  47.233  49.031  1.00  0.00    -0.317 N 
HETATM   11  C   UNL     1      22.420  48.528  48.838  1.00  0.00     0.043 A 
HETATM   12  C   UNL     1      22.263  46.099  48.505  1.00  0.00     0.132 C 
HETATM   13  C   UNL     1      21.403  48.683  47.867  1.00  0.00    -0.031 A 
HETATM   14  C   UNL     1      22.778  49.662  49.585  1.00  0.00     0.030 A 
HETATM   15  C   UNL     1      20.792  49.937  47.668  1.00  0.00     0.009 A 
HETATM   16  C   UNL     1      20.912  47.536  47.021  1.00  0.00     0.042 C 
HETATM   17  C   UNL     1      21.180  51.044  48.413  1.00  0.00     0.001 A 
HETATM   18  C   UNL     1      22.170  50.904  49.374  1.00  0.00     0.002 A 
HETATM   19  C   UNL     1      21.853  46.347  47.066  1.00  0.00     0.025 C 
HETATM   20  O   UNL     1      24.958  48.005  50.132  1.00  0.00    -0.272 OA
ENDBRANCH   8   9
ENDBRANCH   7   8
ENDBRANCH   5   7
BRANCH   1  21
HETATM   21  C   UNL     1      28.541  44.922  54.488  1.00  0.00     0.048 A 
HETATM   22  C   UNL     1      29.303  43.803  54.110  1.00  0.00     0.082 A 
HETATM   23  C   UNL     1      30.384  43.388  54.899  1.00  0.00     0.039 A 
HETATM   24  C   UNL     1      30.730  44.101  56.049  1.00  0.00     0.026 A 
HETATM   25  C   UNL     1      29.978  45.211  56.424  1.00  0.00     0.035 A 
HETATM   26  C   UNL     1      28.887  45.618  55.660  1.00  0.00     0.042 A 
HETATM   27 CL   UNL     1      30.404  46.086  57.844  1.00  0.00    -0.084 Cl
BRANCH  22  28
HETATM   28  O   UNL     1      28.912  43.059  53.024  1.00  0.00    -0.355 OA
HETATM   29  C   UNL     1      28.779  41.670  53.316  1.00  0.00     0.210 C 
ENDBRANCH  22  28
ENDBRANCH   1  21
TORSDOF 5
ENDMDL
MODEL 9
REMARK VINA RESULT:      -8.8      3.265      9.897
REMARK  5 active torsions:
REMARK  status: ('A' for Active; 'I' for Inactive)
REMARK    1  A    between atoms: O_2  and  C_3 
REMARK    2  A    between atoms: C_4  and  C_5 
REMARK    3  A    between atoms: C_9  and  S_10 
REMARK    4  A    between atoms: S_10  and  C_11 
REMARK    5  A    between atoms: C_11  and  C_12 
REMARK       I    between atoms: C_12  and  N_13 
ROOT
HETATM    1  C   UNL     1      26.676  44.508  52.884  1.00  0.00     0.185 A 
HETATM    2  N   UNL     1      25.409  44.479  53.329  1.00  0.00    -0.152 NA
HETATM    3  N   UNL     1      24.720  44.804  52.225  1.00  0.00    -0.253 N 
HETATM    4  H   UNL     1      23.710  44.817  52.268  1.00  0.00     0.191 HD
HETATM    5  C   UNL     1      25.547  45.030  51.171  1.00  0.00     0.185 A 
HETATM    6  N   UNL     1      26.787  44.829  51.544  1.00  0.00    -0.201 NA
ENDROOT
BRANCH   5   7
HETATM    7  S   UNL     1      25.017  45.403  49.573  1.00  0.00    -0.081 SA
BRANCH   7   8
HETATM    8  C   UNL     1      24.349  47.077  49.724  1.00  0.00     0.185 C 
BRANCH   8   9
HETATM    9  C   UNL     1      23.056  47.214  48.929  1.00  0.00     0.234 C 
HETATM   10  N   UNL     1      22.624  48.495  48.548  1.00  0.00    -0.317 N 
HETATM   11  C   UNL     1      21.378  48.720  47.843  1.00  0.00     0.043 A 
HETATM   12  C   UNL     1      23.401  49.717  48.814  1.00  0.00     0.132 C 
HETATM   13  C   UNL     1      20.804  50.012  47.821  1.00  0.00    -0.031 A 
HETATM   14  C   UNL     1      20.698  47.699  47.158  1.00  0.00     0.030 A 
HETATM   15  C   UNL     1      19.592  50.244  47.140  1.00  0.00     0.009 A 
HETATM   16  C   UNL     1      21.451  51.196  48.495  1.00  0.00     0.042 C 
HETATM   17  C   UNL     1      18.936  49.209  46.485  1.00  0.00     0.001 A 
HETATM   18  C   UNL     1      19.492  47.938  46.491  1.00  0.00     0.002 A 
HETATM   19  C   UNL     1      22.536  50.777  49.468  1.00  0.00     0.025 C 
HETATM   20  O   UNL     1      22.428  46.169  48.727  1.00  0.00    -0.272 OA
ENDBRANCH   8   9
ENDBRANCH   7   8
ENDBRANCH   5   7
BRANCH   1  21
HETATM   21  C   UNL     1      27.830  44.098  53.674  1.00  0.00     0.048 A 
HETATM   22  C   UNL     1      28.403  42.818  53.580  1.00  0.00     0.082 A 
HETATM   23  C   UNL     1      29.536  42.496  54.340  1.00  0.00     0.039 A 
HETATM   24  C   UNL     1      30.120  43.452  55.172  1.00  0.00     0.026 A 
HETATM   25  C   UNL     1      29.556  44.722  55.266  1.00  0.00     0.035 A 
HETATM   26  C   UNL     1      28.416  45.045  54.533  1.00  0.00     0.042 A 
HETATM   27 CL   UNL     1      30.275  45.898  56.295  1.00  0.00    -0.084 Cl
BRANCH  22  28
HETATM   28  O   UNL     1      27.781  41.857  52.822  1.00  0.00    -0.355 OA
HETATM   29  C   UNL     1      28.694  40.955  52.201  1.00  0.00     0.210 C 
ENDBRANCH  22  28
ENDBRANCH   1  21
TORSDOF 5
ENDMDL
MODEL 10
REMARK VINA RESULT:      -8.7      3.397      9.136
REMARK  5 active torsions:
REMARK  status: ('A' for Active; 'I' for Inactive)
REMARK    1  A    between atoms: O_2  and  C_3 
REMARK    2  A    between atoms: C_4  and  C_5 
REMARK    3  A    between atoms: C_9  and  S_10 
REMARK    4  A    between atoms: S_10  and  C_11 
REMARK    5  A    between atoms: C_11  and  C_12 
REMARK       I    between atoms: C_12  and  N_13 
ROOT
HETATM    1  C   UNL     1      26.657  44.688  53.126  1.00  0.00     0.185 A 
HETATM    2  N   UNL     1      25.543  43.981  53.379  1.00  0.00    -0.152 NA
HETATM    3  N   UNL     1      25.039  43.810  52.148  1.00  0.00    -0.253 N 
HETATM    4  H   UNL     1      24.197  43.260  52.039  1.00  0.00     0.191 HD
HETATM    5  C   UNL     1      25.816  44.404  51.205  1.00  0.00     0.185 A 
HETATM    6  N   UNL     1      26.858  44.946  51.784  1.00  0.00    -0.201 NA
ENDROOT
BRANCH   5   7
HETATM    7  S   UNL     1      25.520  44.335  49.507  1.00  0.00    -0.081 SA
BRANCH   7   8
HETATM    8  C   UNL     1      23.781  44.808  49.357  1.00  0.00     0.185 C 
BRANCH   8   9
HETATM    9  C   UNL     1      23.638  46.324  49.294  1.00  0.00     0.234 C 
HETATM   10  N   UNL     1      22.442  46.875  48.807  1.00  0.00    -0.317 N 
HETATM   11  C   UNL     1      22.246  48.304  48.659  1.00  0.00     0.043 A 
HETATM   12  C   UNL     1      21.279  46.059  48.422  1.00  0.00     0.132 C 
HETATM   13  C   UNL     1      21.211  48.790  47.826  1.00  0.00    -0.031 A 
HETATM   14  C   UNL     1      23.045  49.253  49.317  1.00  0.00     0.030 A 
HETATM   15  C   UNL     1      21.010  50.176  47.672  1.00  0.00     0.009 A 
HETATM   16  C   UNL     1      20.270  47.873  47.087  1.00  0.00     0.042 C 
HETATM   17  C   UNL     1      21.828  51.090  48.326  1.00  0.00     0.001 A 
HETATM   18  C   UNL     1      22.842  50.627  49.151  1.00  0.00     0.002 A 
HETATM   19  C   UNL     1      20.779  46.445  47.043  1.00  0.00     0.025 C 
HETATM   20  O   UNL     1      24.635  46.978  49.621  1.00  0.00    -0.272 OA
ENDBRANCH   8   9
ENDBRANCH   7   8
ENDBRANCH   5   7
BRANCH   1  21
HETATM   21  C   UNL     1      27.654  45.031  54.133  1.00  0.00     0.048 A 
HETATM   22  C   UNL     1      27.565  46.185  54.931  1.00  0.00     0.082 A 
HETATM   23  C   UNL     1      28.536  46.441  55.909  1.00  0.00     0.039 A 
HETATM   24  C   UNL     1      29.580  45.539  56.117  1.00  0.00     0.026 A 
HETATM   25  C   UNL     1      29.669  44.394  55.329  1.00  0.00     0.035 A 
HETATM   26  C   UNL     1      28.723  44.142  54.339  1.00  0.00     0.042 A 
HETATM   27 CL   UNL     1      30.960  43.285  55.585  1.00  0.00    -0.084 Cl
BRANCH  22  28
HETATM   28  O   UNL     1      26.583  47.109  54.671  1.00  0.00    -0.355 OA
HETATM   29  C   UNL     1      26.632  48.239  55.540  1.00  0.00     0.210 C 
ENDBRANCH  22  28
ENDBRANCH   1  21
TORSDOF 5
ENDMDL
