MODEL 1
REMARK VINA RESULT:      -8.4      0.000      0.000
REMARK  9 active torsions:
REMARK  status: ('A' for Active; 'I' for Inactive)
REMARK    1  A    between atoms: C_3  and  C_4 
REMARK       I    between atoms: C_4  and  N_5 
REMARK    2  A    between atoms: N_5  and  N_6 
REMARK    3  A    between atoms: N_6  and  C_7 
REMARK    4  A    between atoms: C_7  and  N_8 
REMARK    5  A    between atoms: N_8  and  C_9 
REMARK    6  A    between atoms: C_9  and  C_10 
REMARK    7  A    between atoms: C_18  and  C_19 
REMARK    8  A    between atoms: C_19  and  O_20 
REMARK    9  A    between atoms: O_20  and  C_21 
ROOT
HETATM    1  C   UNL     1      26.480  46.415  53.174  1.00  0.00     0.069 A 
HETATM    2  C   UNL     1      27.053  45.181  53.478  1.00  0.00     0.038 A 
HETATM    3  C   UNL     1      27.892  45.053  54.592  1.00  0.00     0.025 A 
HETATM    4  C   UNL     1      28.166  46.159  55.405  1.00  0.00     0.044 A 
HETATM    5  C   UNL     1      29.027  46.023  56.542  1.00  0.00     0.099 C 
HETATM    6  N   UNL     1      29.726  45.909  57.462  1.00  0.00    -0.191 NA
HETATM    7  C   UNL     1      27.593  47.395  55.099  1.00  0.00     0.025 A 
HETATM    8  C   UNL     1      26.754  47.519  53.990  1.00  0.00     0.038 A 
ENDROOT
BRANCH   1   9
HETATM    9  O   UNL     1      25.642  46.679  52.129  1.00  0.00    -0.347 OA
BRANCH   9  10
HETATM   10  C   UNL     1      26.061  46.272  50.829  1.00  0.00     0.214 C 
BRANCH  10  11
HETATM   11  C   UNL     1      26.163  47.517  49.981  1.00  0.00    -0.033 A 
HETATM   12  C   UNL     1      24.997  48.161  49.533  1.00  0.00     0.026 A 
HETATM   13  C   UNL     1      25.075  49.348  48.790  1.00  0.00     0.034 A 
HETATM   14  C   UNL     1      26.335  49.875  48.477  1.00  0.00     0.017 A 
HETATM   15  C   UNL     1      27.497  49.242  48.920  1.00  0.00     0.002 A 
HETATM   16  C   UNL     1      27.413  48.075  49.676  1.00  0.00     0.009 A 
BRANCH  13  17
HETATM   17  C   UNL     1      23.870  50.092  48.317  1.00  0.00     0.270 C 
HETATM   18  N   UNL     1      22.967  50.506  49.276  1.00  0.00    -0.264 N 
HETATM   19  H   UNL     1      23.102  50.421  50.278  1.00  0.00     0.190 HD
HETATM   20  O   UNL     1      23.713  50.343  47.123  1.00  0.00    -0.266 OA
BRANCH  18  21
HETATM   21  N   UNL     1      21.887  51.297  48.864  1.00  0.00    -0.274 N 
HETATM   22  H   UNL     1      22.046  51.789  47.988  1.00  0.00     0.189 HD
BRANCH  21  23
HETATM   23  C   UNL     1      20.606  50.996  49.254  1.00  0.00     0.186 C 
HETATM   24  S   UNL     1      19.238  51.848  48.804  1.00  0.00    -0.040 SA
BRANCH  23  25
HETATM   25  N   UNL     1      20.456  49.874  50.014  1.00  0.00    -0.364 N 
HETATM   26  H   UNL     1      20.655  50.027  51.001  1.00  0.00     0.162 HD
BRANCH  25  27
HETATM   27  C   UNL     1      19.552  48.762  49.739  1.00  0.00     0.154 C 
BRANCH  27  28
HETATM   28  C   UNL     1      20.064  47.900  48.585  1.00  0.00     0.139 C 
HETATM   29  O   UNL     1      21.497  47.985  48.503  1.00  0.00    -0.384 OA
HETATM   30  C   UNL     1      21.930  46.824  47.787  1.00  0.00     0.168 C 
HETATM   31  C   UNL     1      20.939  45.723  48.105  1.00  0.00     0.029 C 
HETATM   32  C   UNL     1      19.771  46.422  48.768  1.00  0.00     0.035 C 
ENDBRANCH  27  28
ENDBRANCH  25  27
ENDBRANCH  23  25
ENDBRANCH  21  23
ENDBRANCH  18  21
ENDBRANCH  13  17
ENDBRANCH  10  11
ENDBRANCH   9  10
ENDBRANCH   1   9
TORSDOF 9
ENDMDL
MODEL 2
REMARK VINA RESULT:      -8.3      2.665      4.165
REMARK  9 active torsions:
REMARK  status: ('A' for Active; 'I' for Inactive)
REMARK    1  A    between atoms: C_3  and  C_4 
REMARK       I    between atoms: C_4  and  N_5 
REMARK    2  A    between atoms: N_5  and  N_6 
REMARK    3  A    between atoms: N_6  and  C_7 
REMARK    4  A    between atoms: C_7  and  N_8 
REMARK    5  A    between atoms: N_8  and  C_9 
REMARK    6  A    between atoms: C_9  and  C_10 
REMARK    7  A    between atoms: C_18  and  C_19 
REMARK    8  A    between atoms: C_19  and  O_20 
REMARK    9  A    between atoms: O_20  and  C_21 
ROOT
HETATM    1  C   UNL     1      28.485  44.316  54.057  1.00  0.00     0.069 A 
HETATM    2  C   UNL     1      28.743  45.325  54.984  1.00  0.00     0.038 A 
HETATM    3  C   UNL     1      29.749  45.156  55.943  1.00  0.00     0.025 A 
HETATM    4  C   UNL     1      30.499  43.975  55.983  1.00  0.00     0.044 A 
HETATM    5  C   UNL     1      31.527  43.806  56.967  1.00  0.00     0.099 C 
HETATM    6  N   UNL     1      32.357  43.671  57.768  1.00  0.00    -0.191 NA
HETATM    7  C   UNL     1      30.240  42.963  55.056  1.00  0.00     0.025 A 
HETATM    8  C   UNL     1      29.238  43.137  54.098  1.00  0.00     0.038 A 
ENDROOT
BRANCH   1   9
HETATM    9  O   UNL     1      27.544  44.351  53.068  1.00  0.00    -0.347 OA
BRANCH   9  10
HETATM   10  C   UNL     1      27.966  44.033  51.744  1.00  0.00     0.214 C 
BRANCH  10  11
HETATM   11  C   UNL     1      26.794  44.287  50.827  1.00  0.00    -0.033 A 
HETATM   12  C   UNL     1      26.154  45.539  50.832  1.00  0.00     0.026 A 
HETATM   13  C   UNL     1      25.100  45.807  49.948  1.00  0.00     0.034 A 
HETATM   14  C   UNL     1      24.673  44.801  49.071  1.00  0.00     0.017 A 
HETATM   15  C   UNL     1      25.304  43.557  49.058  1.00  0.00     0.002 A 
HETATM   16  C   UNL     1      26.366  43.304  49.924  1.00  0.00     0.009 A 
BRANCH  13  17
HETATM   17  C   UNL     1      24.406  47.127  49.887  1.00  0.00     0.270 C 
HETATM   18  N   UNL     1      23.092  47.130  49.461  1.00  0.00    -0.264 N 
HETATM   19  H   UNL     1      22.540  46.300  49.271  1.00  0.00     0.190 HD
HETATM   20  O   UNL     1      24.981  48.159  50.229  1.00  0.00    -0.266 OA
BRANCH  18  21
HETATM   21  N   UNL     1      22.391  48.342  49.498  1.00  0.00    -0.274 N 
HETATM   22  H   UNL     1      22.989  49.166  49.475  1.00  0.00     0.189 HD
BRANCH  21  23
HETATM   23  C   UNL     1      21.100  48.424  49.038  1.00  0.00     0.186 C 
HETATM   24  S   UNL     1      20.591  47.953  47.515  1.00  0.00    -0.040 SA
BRANCH  23  25
HETATM   25  N   UNL     1      20.169  48.865  49.932  1.00  0.00    -0.364 N 
HETATM   26  H   UNL     1      19.963  48.189  50.664  1.00  0.00     0.162 HD
BRANCH  25  27
HETATM   27  C   UNL     1      19.915  50.254  50.295  1.00  0.00     0.154 C 
BRANCH  27  28
HETATM   28  C   UNL     1      18.865  50.887  49.380  1.00  0.00     0.139 C 
HETATM   29  O   UNL     1      17.682  50.070  49.348  1.00  0.00    -0.384 OA
HETATM   30  C   UNL     1      16.614  50.922  48.923  1.00  0.00     0.168 C 
HETATM   31  C   UNL     1      16.942  52.314  49.426  1.00  0.00     0.029 C 
HETATM   32  C   UNL     1      18.389  52.244  49.866  1.00  0.00     0.035 C 
ENDBRANCH  27  28
ENDBRANCH  25  27
ENDBRANCH  23  25
ENDBRANCH  21  23
ENDBRANCH  18  21
ENDBRANCH  13  17
ENDBRANCH  10  11
ENDBRANCH   9  10
ENDBRANCH   1   9
TORSDOF 9
ENDMDL
MODEL 3
REMARK VINA RESULT:      -8.2      2.694      3.915
REMARK  9 active torsions:
REMARK  status: ('A' for Active; 'I' for Inactive)
REMARK    1  A    between atoms: C_3  and  C_4 
REMARK       I    between atoms: C_4  and  N_5 
REMARK    2  A    between atoms: N_5  and  N_6 
REMARK    3  A    between atoms: N_6  and  C_7 
REMARK    4  A    between atoms: C_7  and  N_8 
REMARK    5  A    between atoms: N_8  and  C_9 
REMARK    6  A    between atoms: C_9  and  C_10 
REMARK    7  A    between atoms: C_18  and  C_19 
REMARK    8  A    between atoms: C_19  and  O_20 
REMARK    9  A    between atoms: O_20  and  C_21 
ROOT
HETATM    1  C   UNL     1      28.691  43.912  53.396  1.00  0.00     0.069 A 
HETATM    2  C   UNL     1      28.591  44.801  54.465  1.00  0.00     0.038 A 
HETATM    3  C   UNL     1      29.472  44.697  55.549  1.00  0.00     0.025 A 
HETATM    4  C   UNL     1      30.455  43.702  55.570  1.00  0.00     0.044 A 
HETATM    5  C   UNL     1      31.354  43.599  56.681  1.00  0.00     0.099 C 
HETATM    6  N   UNL     1      32.079  43.517  57.585  1.00  0.00    -0.191 NA
HETATM    7  C   UNL     1      30.555  42.810  54.499  1.00  0.00     0.025 A 
HETATM    8  C   UNL     1      29.676  42.919  53.419  1.00  0.00     0.038 A 
ENDROOT
BRANCH   1   9
HETATM    9  O   UNL     1      27.906  43.904  52.278  1.00  0.00    -0.347 OA
BRANCH   9  10
HETATM   10  C   UNL     1      26.494  43.849  52.465  1.00  0.00     0.214 C 
BRANCH  10  11
HETATM   11  C   UNL     1      25.903  45.051  51.768  1.00  0.00    -0.033 A 
HETATM   12  C   UNL     1      24.951  44.875  50.748  1.00  0.00     0.026 A 
HETATM   13  C   UNL     1      24.353  45.982  50.130  1.00  0.00     0.034 A 
HETATM   14  C   UNL     1      24.734  47.272  50.524  1.00  0.00     0.017 A 
HETATM   15  C   UNL     1      25.677  47.454  51.536  1.00  0.00     0.002 A 
HETATM   16  C   UNL     1      26.251  46.349  52.163  1.00  0.00     0.009 A 
BRANCH  13  17
HETATM   17  C   UNL     1      23.314  45.856  49.066  1.00  0.00     0.270 C 
HETATM   18  N   UNL     1      22.381  46.870  48.972  1.00  0.00    -0.264 N 
HETATM   19  H   UNL     1      22.399  47.729  49.510  1.00  0.00     0.190 HD
HETATM   20  O   UNL     1      23.315  44.898  48.294  1.00  0.00    -0.266 OA
BRANCH  18  21
HETATM   21  N   UNL     1      21.463  46.823  47.914  1.00  0.00    -0.274 N 
HETATM   22  H   UNL     1      21.870  46.531  47.028  1.00  0.00     0.189 HD
BRANCH  21  23
HETATM   23  C   UNL     1      20.126  46.623  48.150  1.00  0.00     0.186 C 
HETATM   24  S   UNL     1      19.360  45.135  48.139  1.00  0.00    -0.040 SA
BRANCH  23  25
HETATM   25  N   UNL     1      19.400  47.729  48.481  1.00  0.00    -0.364 N 
HETATM   26  H   UNL     1      18.588  47.871  47.883  1.00  0.00     0.162 HD
BRANCH  25  27
HETATM   27  C   UNL     1      19.292  48.323  49.808  1.00  0.00     0.154 C 
BRANCH  27  28
HETATM   28  C   UNL     1      19.985  49.685  49.870  1.00  0.00     0.139 C 
HETATM   29  O   UNL     1      21.368  49.552  49.500  1.00  0.00    -0.384 OA
HETATM   30  C   UNL     1      21.804  50.852  49.094  1.00  0.00     0.168 C 
HETATM   31  C   UNL     1      20.598  51.549  48.497  1.00  0.00     0.029 C 
HETATM   32  C   UNL     1      19.413  50.690  48.887  1.00  0.00     0.035 C 
ENDBRANCH  27  28
ENDBRANCH  25  27
ENDBRANCH  23  25
ENDBRANCH  21  23
ENDBRANCH  18  21
ENDBRANCH  13  17
ENDBRANCH  10  11
ENDBRANCH   9  10
ENDBRANCH   1   9
TORSDOF 9
ENDMDL
MODEL 4
REMARK VINA RESULT:      -8.0      3.655      9.409
REMARK  9 active torsions:
REMARK  status: ('A' for Active; 'I' for Inactive)
REMARK    1  A    between atoms: C_3  and  C_4 
REMARK       I    between atoms: C_4  and  N_5 
REMARK    2  A    between atoms: N_5  and  N_6 
REMARK    3  A    between atoms: N_6  and  C_7 
REMARK    4  A    between atoms: C_7  and  N_8 
REMARK    5  A    between atoms: N_8  and  C_9 
REMARK    6  A    between atoms: C_9  and  C_10 
REMARK    7  A    between atoms: C_18  and  C_19 
REMARK    8  A    between atoms: C_19  and  O_20 
REMARK    9  A    between atoms: O_20  and  C_21 
ROOT
HETATM    1  C   UNL     1      20.610  51.084  49.184  1.00  0.00     0.069 A 
HETATM    2  C   UNL     1      19.849  50.328  50.075  1.00  0.00     0.038 A 
HETATM    3  C   UNL     1      18.478  50.579  50.214  1.00  0.00     0.025 A 
HETATM    4  C   UNL     1      17.863  51.589  49.466  1.00  0.00     0.044 A 
HETATM    5  C   UNL     1      16.460  51.843  49.613  1.00  0.00     0.099 C 
HETATM    6  N   UNL     1      15.324  52.047  49.737  1.00  0.00    -0.191 NA
HETATM    7  C   UNL     1      18.626  52.347  48.575  1.00  0.00     0.025 A 
HETATM    8  C   UNL     1      19.992  52.092  48.437  1.00  0.00     0.038 A 
ENDROOT
BRANCH   1   9
HETATM    9  O   UNL     1      21.947  50.942  48.945  1.00  0.00    -0.347 OA
BRANCH   9  10
HETATM   10  C   UNL     1      22.355  49.873  48.095  1.00  0.00     0.214 C 
BRANCH  10  11
HETATM   11  C   UNL     1      23.727  49.436  48.551  1.00  0.00    -0.033 A 
HETATM   12  C   UNL     1      23.857  48.453  49.548  1.00  0.00     0.026 A 
HETATM   13  C   UNL     1      25.123  47.998  49.943  1.00  0.00     0.034 A 
HETATM   14  C   UNL     1      26.263  48.554  49.348  1.00  0.00     0.017 A 
HETATM   15  C   UNL     1      26.142  49.529  48.357  1.00  0.00     0.002 A 
HETATM   16  C   UNL     1      24.880  49.961  47.953  1.00  0.00     0.009 A 
BRANCH  13  17
HETATM   17  C   UNL     1      25.321  46.934  50.971  1.00  0.00     0.270 C 
HETATM   18  N   UNL     1      25.059  45.632  50.590  1.00  0.00    -0.264 N 
HETATM   19  H   UNL     1      24.828  45.337  49.648  1.00  0.00     0.190 HD
HETATM   20  O   UNL     1      25.725  47.214  52.098  1.00  0.00    -0.266 OA
BRANCH  18  21
HETATM   21  N   UNL     1      25.340  44.610  51.506  1.00  0.00    -0.274 N 
HETATM   22  H   UNL     1      24.514  44.121  51.844  1.00  0.00     0.189 HD
BRANCH  21  23
HETATM   23  C   UNL     1      26.555  43.972  51.498  1.00  0.00     0.186 C 
HETATM   24  S   UNL     1      26.972  42.709  50.482  1.00  0.00    -0.040 SA
BRANCH  23  25
HETATM   25  N   UNL     1      27.500  44.467  52.348  1.00  0.00    -0.364 N 
HETATM   26  H   UNL     1      27.248  45.368  52.749  1.00  0.00     0.162 HD
BRANCH  25  27
HETATM   27  C   UNL     1      28.434  43.683  53.148  1.00  0.00     0.154 C 
BRANCH  27  28
HETATM   28  C   UNL     1      28.520  44.208  54.581  1.00  0.00     0.139 C 
HETATM   29  O   UNL     1      29.894  44.290  54.996  1.00  0.00    -0.384 OA
HETATM   30  C   UNL     1      29.935  45.220  56.081  1.00  0.00     0.168 C 
HETATM   31  C   UNL     1      28.829  46.227  55.832  1.00  0.00     0.029 C 
HETATM   32  C   UNL     1      27.982  45.619  54.733  1.00  0.00     0.035 C 
ENDBRANCH  27  28
ENDBRANCH  25  27
ENDBRANCH  23  25
ENDBRANCH  21  23
ENDBRANCH  18  21
ENDBRANCH  13  17
ENDBRANCH  10  11
ENDBRANCH   9  10
ENDBRANCH   1   9
TORSDOF 9
ENDMDL
MODEL 5
REMARK VINA RESULT:      -7.8      4.736      9.266
REMARK  9 active torsions:
REMARK  status: ('A' for Active; 'I' for Inactive)
REMARK    1  A    between atoms: C_3  and  C_4 
REMARK       I    between atoms: C_4  and  N_5 
REMARK    2  A    between atoms: N_5  and  N_6 
REMARK    3  A    between atoms: N_6  and  C_7 
REMARK    4  A    between atoms: C_7  and  N_8 
REMARK    5  A    between atoms: N_8  and  C_9 
REMARK    6  A    between atoms: C_9  and  C_10 
REMARK    7  A    between atoms: C_18  and  C_19 
REMARK    8  A    between atoms: C_19  and  O_20 
REMARK    9  A    between atoms: O_20  and  C_21 
ROOT
HETATM    1  C   UNL     1      24.101  48.775  48.884  1.00  0.00     0.069 A 
HETATM    2  C   UNL     1      24.274  50.119  48.556  1.00  0.00     0.038 A 
HETATM    3  C   UNL     1      23.163  50.966  48.455  1.00  0.00     0.025 A 
HETATM    4  C   UNL     1      21.873  50.471  48.677  1.00  0.00     0.044 A 
HETATM    5  C   UNL     1      20.739  51.341  48.571  1.00  0.00     0.099 C 
HETATM    6  N   UNL     1      19.822  52.048  48.482  1.00  0.00    -0.191 NA
HETATM    7  C   UNL     1      21.699  49.124  49.004  1.00  0.00     0.025 A 
HETATM    8  C   UNL     1      22.810  48.284  49.107  1.00  0.00     0.038 A 
ENDROOT
BRANCH   1   9
HETATM    9  O   UNL     1      25.091  47.845  49.022  1.00  0.00    -0.347 OA
BRANCH   9  10
HETATM   10  C   UNL     1      26.039  48.042  50.068  1.00  0.00     0.214 C 
BRANCH  10  11
HETATM   11  C   UNL     1      25.778  46.987  51.116  1.00  0.00    -0.033 A 
HETATM   12  C   UNL     1      25.512  45.662  50.729  1.00  0.00     0.026 A 
HETATM   13  C   UNL     1      25.321  44.661  51.691  1.00  0.00     0.034 A 
HETATM   14  C   UNL     1      25.374  45.001  53.049  1.00  0.00     0.017 A 
HETATM   15  C   UNL     1      25.639  46.314  53.441  1.00  0.00     0.002 A 
HETATM   16  C   UNL     1      25.850  47.301  52.480  1.00  0.00     0.009 A 
BRANCH  13  17
HETATM   17  C   UNL     1      25.068  43.232  51.339  1.00  0.00     0.270 C 
HETATM   18  N   UNL     1      26.166  42.457  51.022  1.00  0.00    -0.264 N 
HETATM   19  H   UNL     1      27.132  42.758  51.094  1.00  0.00     0.190 HD
HETATM   20  O   UNL     1      23.929  42.769  51.360  1.00  0.00    -0.266 OA
BRANCH  18  21
HETATM   21  N   UNL     1      25.962  41.089  50.794  1.00  0.00    -0.274 N 
HETATM   22  H   UNL     1      25.007  40.853  50.533  1.00  0.00     0.189 HD
BRANCH  21  23
HETATM   23  C   UNL     1      26.997  40.280  50.398  1.00  0.00     0.186 C 
HETATM   24  S   UNL     1      26.831  38.866  49.518  1.00  0.00    -0.040 SA
BRANCH  23  25
HETATM   25  N   UNL     1      28.253  40.717  50.701  1.00  0.00    -0.364 N 
HETATM   26  H   UNL     1      28.454  41.647  50.339  1.00  0.00     0.162 HD
BRANCH  25  27
HETATM   27  C   UNL     1      29.039  40.334  51.869  1.00  0.00     0.154 C 
BRANCH  27  28
HETATM   28  C   UNL     1      29.221  41.510  52.829  1.00  0.00     0.139 C 
HETATM   29  O   UNL     1      29.085  42.753  52.119  1.00  0.00    -0.384 OA
HETATM   30  C   UNL     1      28.764  43.745  53.099  1.00  0.00     0.168 C 
HETATM   31  C   UNL     1      27.979  43.042  54.188  1.00  0.00     0.029 C 
HETATM   32  C   UNL     1      28.163  41.563  53.916  1.00  0.00     0.035 C 
ENDBRANCH  27  28
ENDBRANCH  25  27
ENDBRANCH  23  25
ENDBRANCH  21  23
ENDBRANCH  18  21
ENDBRANCH  13  17
ENDBRANCH  10  11
ENDBRANCH   9  10
ENDBRANCH   1   9
TORSDOF 9
ENDMDL
MODEL 6
REMARK VINA RESULT:      -7.7      2.610      3.836
REMARK  9 active torsions:
REMARK  status: ('A' for Active; 'I' for Inactive)
REMARK    1  A    between atoms: C_3  and  C_4 
REMARK       I    between atoms: C_4  and  N_5 
REMARK    2  A    between atoms: N_5  and  N_6 
REMARK    3  A    between atoms: N_6  and  C_7 
REMARK    4  A    between atoms: C_7  and  N_8 
REMARK    5  A    between atoms: N_8  and  C_9 
REMARK    6  A    between atoms: C_9  and  C_10 
REMARK    7  A    between atoms: C_18  and  C_19 
REMARK    8  A    between atoms: C_19  and  O_20 
REMARK    9  A    between atoms: O_20  and  C_21 
ROOT
HETATM    1  C   UNL     1      28.427  44.455  53.679  1.00  0.00     0.069 A 
HETATM    2  C   UNL     1      28.604  45.316  54.762  1.00  0.00     0.038 A 
HETATM    3  C   UNL     1      29.565  45.028  55.739  1.00  0.00     0.025 A 
HETATM    4  C   UNL     1      30.352  43.875  55.640  1.00  0.00     0.044 A 
HETATM    5  C   UNL     1      31.334  43.583  56.642  1.00  0.00     0.099 C 
HETATM    6  N   UNL     1      32.126  43.349  57.458  1.00  0.00    -0.191 NA
HETATM    7  C   UNL     1      30.174  43.012  54.556  1.00  0.00     0.025 A 
HETATM    8  C   UNL     1      29.217  43.305  53.582  1.00  0.00     0.038 A 
ENDROOT
BRANCH   1   9
HETATM    9  O   UNL     1      27.537  44.618  52.657  1.00  0.00    -0.347 OA
BRANCH   9  10
HETATM   10  C   UNL     1      26.213  45.026  52.995  1.00  0.00     0.214 C 
BRANCH  10  11
HETATM   11  C   UNL     1      25.328  44.693  51.818  1.00  0.00    -0.033 A 
HETATM   12  C   UNL     1      24.693  45.723  51.101  1.00  0.00     0.026 A 
HETATM   13  C   UNL     1      23.911  45.433  49.974  1.00  0.00     0.034 A 
HETATM   14  C   UNL     1      23.749  44.097  49.582  1.00  0.00     0.017 A 
HETATM   15  C   UNL     1      24.378  43.070  50.287  1.00  0.00     0.002 A 
HETATM   16  C   UNL     1      25.171  43.367  51.394  1.00  0.00     0.009 A 
BRANCH  13  17
HETATM   17  C   UNL     1      23.241  46.486  49.156  1.00  0.00     0.270 C 
HETATM   18  N   UNL     1      23.219  47.767  49.673  1.00  0.00    -0.264 N 
HETATM   19  H   UNL     1      23.695  48.062  50.518  1.00  0.00     0.190 HD
HETATM   20  O   UNL     1      22.756  46.219  48.058  1.00  0.00    -0.266 OA
BRANCH  18  21
HETATM   21  N   UNL     1      22.690  48.790  48.874  1.00  0.00    -0.274 N 
HETATM   22  H   UNL     1      23.085  48.826  47.936  1.00  0.00     0.189 HD
BRANCH  21  23
HETATM   23  C   UNL     1      21.429  49.280  49.103  1.00  0.00     0.186 C 
HETATM   24  S   UNL     1      21.083  50.712  49.897  1.00  0.00    -0.040 SA
BRANCH  23  25
HETATM   25  N   UNL     1      20.398  48.559  48.576  1.00  0.00    -0.364 N 
HETATM   26  H   UNL     1      20.515  48.354  47.586  1.00  0.00     0.162 HD
BRANCH  25  27
HETATM   27  C   UNL     1      19.547  47.619  49.297  1.00  0.00     0.154 C 
BRANCH  27  28
HETATM   28  C   UNL     1      18.090  48.082  49.312  1.00  0.00     0.139 C 
HETATM   29  O   UNL     1      17.952  49.300  48.559  1.00  0.00    -0.384 OA
HETATM   30  C   UNL     1      16.572  49.393  48.193  1.00  0.00     0.168 C 
HETATM   31  C   UNL     1      16.067  47.973  48.035  1.00  0.00     0.029 C 
HETATM   32  C   UNL     1      17.145  47.100  48.643  1.00  0.00     0.035 C 
ENDBRANCH  27  28
ENDBRANCH  25  27
ENDBRANCH  23  25
ENDBRANCH  21  23
ENDBRANCH  18  21
ENDBRANCH  13  17
ENDBRANCH  10  11
ENDBRANCH   9  10
ENDBRANCH   1   9
TORSDOF 9
ENDMDL
MODEL 7
REMARK VINA RESULT:      -7.7      2.570      3.534
REMARK  9 active torsions:
REMARK  status: ('A' for Active; 'I' for Inactive)
REMARK    1  A    between atoms: C_3  and  C_4 
REMARK       I    between atoms: C_4  and  N_5 
REMARK    2  A    between atoms: N_5  and  N_6 
REMARK    3  A    between atoms: N_6  and  C_7 
REMARK    4  A    between atoms: C_7  and  N_8 
REMARK    5  A    between atoms: N_8  and  C_9 
REMARK    6  A    between atoms: C_9  and  C_10 
REMARK    7  A    between atoms: C_18  and  C_19 
REMARK    8  A    between atoms: C_19  and  O_20 
REMARK    9  A    between atoms: O_20  and  C_21 
ROOT
HETATM    1  C   UNL     1      26.906  45.228  53.037  1.00  0.00     0.069 A 
HETATM    2  C   UNL     1      27.224  45.860  54.238  1.00  0.00     0.038 A 
HETATM    3  C   UNL     1      28.278  45.379  55.027  1.00  0.00     0.025 A 
HETATM    4  C   UNL     1      29.015  44.262  54.619  1.00  0.00     0.044 A 
HETATM    5  C   UNL     1      30.091  43.773  55.429  1.00  0.00     0.099 C 
HETATM    6  N   UNL     1      30.960  43.378  56.090  1.00  0.00    -0.191 NA
HETATM    7  C   UNL     1      28.695  43.628  53.416  1.00  0.00     0.025 A 
HETATM    8  C   UNL     1      27.646  44.113  52.631  1.00  0.00     0.038 A 
ENDROOT
BRANCH   1   9
HETATM    9  O   UNL     1      25.914  45.594  52.172  1.00  0.00    -0.347 OA
BRANCH   9  10
HETATM   10  C   UNL     1      26.164  45.435  50.778  1.00  0.00     0.214 C 
BRANCH  10  11
HETATM   11  C   UNL     1      25.869  46.759  50.116  1.00  0.00    -0.033 A 
HETATM   12  C   UNL     1      24.561  47.273  50.122  1.00  0.00     0.026 A 
HETATM   13  C   UNL     1      24.281  48.527  49.559  1.00  0.00     0.034 A 
HETATM   14  C   UNL     1      25.322  49.254  48.966  1.00  0.00     0.017 A 
HETATM   15  C   UNL     1      26.624  48.752  48.958  1.00  0.00     0.002 A 
HETATM   16  C   UNL     1      26.899  47.515  49.539  1.00  0.00     0.009 A 
BRANCH  13  17
HETATM   17  C   UNL     1      22.919  49.136  49.566  1.00  0.00     0.270 C 
HETATM   18  N   UNL     1      21.841  48.273  49.527  1.00  0.00    -0.264 N 
HETATM   19  H   UNL     1      21.903  47.262  49.581  1.00  0.00     0.190 HD
HETATM   20  O   UNL     1      22.774  50.356  49.630  1.00  0.00    -0.266 OA
BRANCH  18  21
HETATM   21  N   UNL     1      20.556  48.820  49.640  1.00  0.00    -0.274 N 
HETATM   22  H   UNL     1      20.404  49.340  50.501  1.00  0.00     0.189 HD
BRANCH  21  23
HETATM   23  C   UNL     1      19.819  49.119  48.522  1.00  0.00     0.186 C 
HETATM   24  S   UNL     1      19.143  47.994  47.484  1.00  0.00    -0.040 SA
BRANCH  23  25
HETATM   25  N   UNL     1      19.576  50.443  48.298  1.00  0.00    -0.364 N 
HETATM   26  H   UNL     1      19.204  50.632  47.369  1.00  0.00     0.162 HD
BRANCH  25  27
HETATM   27  C   UNL     1      19.234  51.439  49.307  1.00  0.00     0.154 C 
BRANCH  27  28
HETATM   28  C   UNL     1      17.736  51.428  49.616  1.00  0.00     0.139 C 
HETATM   29  O   UNL     1      17.329  52.708  50.129  1.00  0.00    -0.384 OA
HETATM   30  C   UNL     1      15.917  52.797  49.918  1.00  0.00     0.168 C 
HETATM   31  C   UNL     1      15.613  51.999  48.667  1.00  0.00     0.029 C 
HETATM   32  C   UNL     1      16.874  51.207  48.387  1.00  0.00     0.035 C 
ENDBRANCH  27  28
ENDBRANCH  25  27
ENDBRANCH  23  25
ENDBRANCH  21  23
ENDBRANCH  18  21
ENDBRANCH  13  17
ENDBRANCH  10  11
ENDBRANCH   9  10
ENDBRANCH   1   9
TORSDOF 9
ENDMDL
MODEL 8
REMARK VINA RESULT:      -7.6      3.282      5.004
REMARK  9 active torsions:
REMARK  status: ('A' for Active; 'I' for Inactive)
REMARK    1  A    between atoms: C_3  and  C_4 
REMARK       I    between atoms: C_4  and  N_5 
REMARK    2  A    between atoms: N_5  and  N_6 
REMARK    3  A    between atoms: N_6  and  C_7 
REMARK    4  A    between atoms: C_7  and  N_8 
REMARK    5  A    between atoms: N_8  and  C_9 
REMARK    6  A    between atoms: C_9  and  C_10 
REMARK    7  A    between atoms: C_18  and  C_19 
REMARK    8  A    between atoms: C_19  and  O_20 
REMARK    9  A    between atoms: O_20  and  C_21 
ROOT
HETATM    1  C   UNL     1      28.687  44.112  53.727  1.00  0.00     0.069 A 
HETATM    2  C   UNL     1      29.786  43.519  54.348  1.00  0.00     0.038 A 
HETATM    3  C   UNL     1      30.304  44.067  55.528  1.00  0.00     0.025 A 
HETATM    4  C   UNL     1      29.729  45.212  56.090  1.00  0.00     0.044 A 
HETATM    5  C   UNL     1      30.264  45.770  57.297  1.00  0.00     0.099 C 
HETATM    6  N   UNL     1      30.702  46.221  58.274  1.00  0.00    -0.191 NA
HETATM    7  C   UNL     1      28.629  45.806  55.468  1.00  0.00     0.025 A 
HETATM    8  C   UNL     1      28.113  45.255  54.293  1.00  0.00     0.038 A 
ENDROOT
BRANCH   1   9
HETATM    9  O   UNL     1      28.078  43.681  52.583  1.00  0.00    -0.347 OA
BRANCH   9  10
HETATM   10  C   UNL     1      27.798  42.288  52.470  1.00  0.00     0.214 C 
BRANCH  10  11
HETATM   11  C   UNL     1      26.765  42.125  51.381  1.00  0.00    -0.033 A 
HETATM   12  C   UNL     1      26.034  43.239  50.932  1.00  0.00     0.026 A 
HETATM   13  C   UNL     1      25.110  43.114  49.885  1.00  0.00     0.034 A 
HETATM   14  C   UNL     1      24.905  41.855  49.304  1.00  0.00     0.017 A 
HETATM   15  C   UNL     1      25.628  40.746  49.743  1.00  0.00     0.002 A 
HETATM   16  C   UNL     1      26.561  40.881  50.769  1.00  0.00     0.009 A 
BRANCH  13  17
HETATM   17  C   UNL     1      24.331  44.267  49.346  1.00  0.00     0.270 C 
HETATM   18  N   UNL     1      24.035  45.294  50.222  1.00  0.00    -0.264 N 
HETATM   19  H   UNL     1      24.379  45.364  51.174  1.00  0.00     0.190 HD
HETATM   20  O   UNL     1      23.994  44.303  48.164  1.00  0.00    -0.266 OA
BRANCH  18  21
HETATM   21  N   UNL     1      23.398  46.432  49.711  1.00  0.00    -0.274 N 
HETATM   22  H   UNL     1      22.406  46.485  49.935  1.00  0.00     0.189 HD
BRANCH  21  23
HETATM   23  C   UNL     1      24.104  47.582  49.463  1.00  0.00     0.186 C 
HETATM   24  S   UNL     1      25.723  47.813  49.820  1.00  0.00    -0.040 SA
BRANCH  23  25
HETATM   25  N   UNL     1      23.429  48.576  48.818  1.00  0.00    -0.364 N 
HETATM   26  H   UNL     1      22.423  48.421  48.781  1.00  0.00     0.162 HD
BRANCH  25  27
HETATM   27  C   UNL     1      23.834  49.974  48.726  1.00  0.00     0.154 C 
BRANCH  27  28
HETATM   28  C   UNL     1      22.623  50.907  48.709  1.00  0.00     0.139 C 
HETATM   29  O   UNL     1      21.651  50.436  47.760  1.00  0.00    -0.384 OA
HETATM   30  C   UNL     1      20.399  51.014  48.143  1.00  0.00     0.168 C 
HETATM   31  C   UNL     1      20.436  51.172  49.650  1.00  0.00     0.029 C 
HETATM   32  C   UNL     1      21.885  50.951  50.034  1.00  0.00     0.035 C 
ENDBRANCH  27  28
ENDBRANCH  25  27
ENDBRANCH  23  25
ENDBRANCH  21  23
ENDBRANCH  18  21
ENDBRANCH  13  17
ENDBRANCH  10  11
ENDBRANCH   9  10
ENDBRANCH   1   9
TORSDOF 9
ENDMDL
MODEL 9
REMARK VINA RESULT:      -7.5      7.330      9.397
REMARK  9 active torsions:
REMARK  status: ('A' for Active; 'I' for Inactive)
REMARK    1  A    between atoms: C_3  and  C_4 
REMARK       I    between atoms: C_4  and  N_5 
REMARK    2  A    between atoms: N_5  and  N_6 
REMARK    3  A    between atoms: N_6  and  C_7 
REMARK    4  A    between atoms: C_7  and  N_8 
REMARK    5  A    between atoms: N_8  and  C_9 
REMARK    6  A    between atoms: C_9  and  C_10 
REMARK    7  A    between atoms: C_18  and  C_19 
REMARK    8  A    between atoms: C_19  and  O_20 
REMARK    9  A    between atoms: O_20  and  C_21 
ROOT
HETATM    1  C   UNL     1      28.184  44.391  53.939  1.00  0.00     0.069 A 
HETATM    2  C   UNL     1      28.525  45.360  54.881  1.00  0.00     0.038 A 
HETATM    3  C   UNL     1      29.571  45.125  55.783  1.00  0.00     0.025 A 
HETATM    4  C   UNL     1      30.278  43.918  55.748  1.00  0.00     0.044 A 
HETATM    5  C   UNL     1      31.347  43.682  56.673  1.00  0.00     0.099 C 
HETATM    6  N   UNL     1      32.211  43.493  57.426  1.00  0.00    -0.191 NA
HETATM    7  C   UNL     1      29.936  42.946  54.805  1.00  0.00     0.025 A 
HETATM    8  C   UNL     1      28.894  43.186  53.906  1.00  0.00     0.038 A 
ENDROOT
BRANCH   1   9
HETATM    9  O   UNL     1      27.196  44.491  53.001  1.00  0.00    -0.347 OA
BRANCH   9  10
HETATM   10  C   UNL     1      27.582  44.443  51.630  1.00  0.00     0.214 C 
BRANCH  10  11
HETATM   11  C   UNL     1      26.787  43.338  50.978  1.00  0.00    -0.033 A 
HETATM   12  C   UNL     1      27.324  42.042  50.890  1.00  0.00     0.026 A 
HETATM   13  C   UNL     1      26.576  40.993  50.337  1.00  0.00     0.034 A 
HETATM   14  C   UNL     1      25.290  41.258  49.848  1.00  0.00     0.017 A 
HETATM   15  C   UNL     1      24.749  42.541  49.932  1.00  0.00     0.002 A 
HETATM   16  C   UNL     1      25.490  43.575  50.504  1.00  0.00     0.009 A 
BRANCH  13  17
HETATM   17  C   UNL     1      27.082  39.592  50.248  1.00  0.00     0.270 C 
HETATM   18  N   UNL     1      26.144  38.592  50.079  1.00  0.00    -0.264 N 
HETATM   19  H   UNL     1      25.153  38.743  49.925  1.00  0.00     0.190 HD
HETATM   20  O   UNL     1      28.287  39.352  50.298  1.00  0.00    -0.266 OA
BRANCH  18  21
HETATM   21  N   UNL     1      26.606  37.283  49.887  1.00  0.00    -0.274 N 
HETATM   22  H   UNL     1      26.343  36.640  50.631  1.00  0.00     0.189 HD
BRANCH  21  23
HETATM   23  C   UNL     1      26.854  36.802  48.626  1.00  0.00     0.186 C 
HETATM   24  S   UNL     1      25.811  35.837  47.742  1.00  0.00    -0.040 SA
BRANCH  23  25
HETATM   25  N   UNL     1      28.019  37.210  48.045  1.00  0.00    -0.364 N 
HETATM   26  H   UNL     1      28.836  37.053  48.630  1.00  0.00     0.162 HD
BRANCH  25  27
HETATM   27  C   UNL     1      28.294  37.262  46.613  1.00  0.00     0.154 C 
BRANCH  27  28
HETATM   28  C   UNL     1      27.940  38.629  46.026  1.00  0.00     0.139 C 
HETATM   29  O   UNL     1      26.516  38.743  45.866  1.00  0.00    -0.384 OA
HETATM   30  C   UNL     1      26.227  40.143  45.810  1.00  0.00     0.168 C 
HETATM   31  C   UNL     1      27.268  40.837  46.666  1.00  0.00     0.029 C 
HETATM   32  C   UNL     1      28.326  39.785  46.931  1.00  0.00     0.035 C 
ENDBRANCH  27  28
ENDBRANCH  25  27
ENDBRANCH  23  25
ENDBRANCH  21  23
ENDBRANCH  18  21
ENDBRANCH  13  17
ENDBRANCH  10  11
ENDBRANCH   9  10
ENDBRANCH   1   9
TORSDOF 9
ENDMDL
MODEL 10
REMARK VINA RESULT:      -7.4      5.730      9.383
REMARK  9 active torsions:
REMARK  status: ('A' for Active; 'I' for Inactive)
REMARK    1  A    between atoms: C_3  and  C_4 
REMARK       I    between atoms: C_4  and  N_5 
REMARK    2  A    between atoms: N_5  and  N_6 
REMARK    3  A    between atoms: N_6  and  C_7 
REMARK    4  A    between atoms: C_7  and  N_8 
REMARK    5  A    between atoms: N_8  and  C_9 
REMARK    6  A    between atoms: C_9  and  C_10 
REMARK    7  A    between atoms: C_18  and  C_19 
REMARK    8  A    between atoms: C_19  and  O_20 
REMARK    9  A    between atoms: O_20  and  C_21 
ROOT
HETATM    1  C   UNL     1      25.451  45.975  53.237  1.00  0.00     0.069 A 
HETATM    2  C   UNL     1      25.439  46.933  52.224  1.00  0.00     0.038 A 
HETATM    3  C   UNL     1      25.042  46.580  50.928  1.00  0.00     0.025 A 
HETATM    4  C   UNL     1      24.657  45.266  50.639  1.00  0.00     0.044 A 
HETATM    5  C   UNL     1      24.252  44.909  49.311  1.00  0.00     0.099 C 
HETATM    6  N   UNL     1      23.927  44.623  48.234  1.00  0.00    -0.191 NA
HETATM    7  C   UNL     1      24.670  44.306  51.653  1.00  0.00     0.025 A 
HETATM    8  C   UNL     1      25.065  44.663  52.944  1.00  0.00     0.038 A 
ENDROOT
BRANCH   1   9
HETATM    9  O   UNL     1      25.808  46.183  54.539  1.00  0.00    -0.347 OA
BRANCH   9  10
HETATM   10  C   UNL     1      26.986  46.946  54.786  1.00  0.00     0.214 C 
BRANCH  10  11
HETATM   11  C   UNL     1      28.100  45.970  55.078  1.00  0.00    -0.033 A 
HETATM   12  C   UNL     1      28.335  44.889  54.210  1.00  0.00     0.026 A 
HETATM   13  C   UNL     1      29.399  44.006  54.439  1.00  0.00     0.034 A 
HETATM   14  C   UNL     1      30.216  44.199  55.561  1.00  0.00     0.017 A 
HETATM   15  C   UNL     1      29.990  45.271  56.426  1.00  0.00     0.002 A 
HETATM   16  C   UNL     1      28.944  46.158  56.181  1.00  0.00     0.009 A 
BRANCH  13  17
HETATM   17  C   UNL     1      29.716  42.862  53.534  1.00  0.00     0.270 C 
HETATM   18  N   UNL     1      28.673  42.028  53.184  1.00  0.00    -0.264 N 
HETATM   19  H   UNL     1      27.699  42.181  53.422  1.00  0.00     0.190 HD
HETATM   20  O   UNL     1      30.856  42.696  53.103  1.00  0.00    -0.266 OA
BRANCH  18  21
HETATM   21  N   UNL     1      28.927  41.013  52.252  1.00  0.00    -0.274 N 
HETATM   22  H   UNL     1      29.487  40.246  52.620  1.00  0.00     0.189 HD
BRANCH  21  23
HETATM   23  C   UNL     1      28.070  40.789  51.203  1.00  0.00     0.186 C 
HETATM   24  S   UNL     1      27.227  41.977  50.380  1.00  0.00    -0.040 SA
BRANCH  23  25
HETATM   25  N   UNL     1      27.966  39.498  50.776  1.00  0.00    -0.364 N 
HETATM   26  H   UNL     1      27.023  39.122  50.860  1.00  0.00     0.162 HD
BRANCH  25  27
HETATM   27  C   UNL     1      28.789  38.859  49.756  1.00  0.00     0.154 C 
BRANCH  27  28
HETATM   28  C   UNL     1      28.002  38.634  48.464  1.00  0.00     0.139 C 
HETATM   29  O   UNL     1      27.998  39.835  47.673  1.00  0.00    -0.384 OA
HETATM   30  C   UNL     1      27.715  39.434  46.330  1.00  0.00     0.168 C 
HETATM   31  C   UNL     1      28.292  38.042  46.161  1.00  0.00     0.029 C 
HETATM   32  C   UNL     1      28.619  37.578  47.565  1.00  0.00     0.035 C 
ENDBRANCH  27  28
ENDBRANCH  25  27
ENDBRANCH  23  25
ENDBRANCH  21  23
ENDBRANCH  18  21
ENDBRANCH  13  17
ENDBRANCH  10  11
ENDBRANCH   9  10
ENDBRANCH   1   9
TORSDOF 9
ENDMDL
