MODEL 1
REMARK VINA RESULT:      -9.3      0.000      0.000
REMARK  8 active torsions:
REMARK  status: ('A' for Active; 'I' for Inactive)
REMARK    1  A    between atoms: O_2  and  C_3 
REMARK    2  A    between atoms: C_4  and  O_5 
REMARK    3  A    between atoms: C_8  and  C_9 
REMARK    4  A    between atoms: C_9  and  C_10 
REMARK    5  A    between atoms: C_10  and  N_11 
REMARK       I    between atoms: N_11  and  C_12 
REMARK    6  A    between atoms: C_12  and  C_13 
REMARK    7  A    between atoms: C_14  and  N_15 
REMARK       I    between atoms: N_15  and  C_16 
REMARK    8  A    between atoms: C_16  and  C_17 
ROOT
HETATM    1  C   UNL     1      25.318  47.894  49.878  1.00  0.00     0.058 A 
HETATM    2  C   UNL     1      24.276  48.619  49.268  1.00  0.00     0.050 A 
HETATM    3  C   UNL     1      24.614  49.702  48.436  1.00  0.00     0.030 A 
HETATM    4  C   UNL     1      25.946  50.007  48.143  1.00  0.00     0.002 A 
HETATM    5  C   UNL     1      26.967  49.240  48.689  1.00  0.00     0.001 A 
HETATM    6  C   UNL     1      26.656  48.197  49.559  1.00  0.00     0.019 A 
ENDROOT
BRANCH   1   7
HETATM    7  C   UNL     1      25.160  46.909  50.984  1.00  0.00     0.253 C 
HETATM    8  N   UNL     1      26.004  47.080  52.064  1.00  0.00    -0.356 N 
HETATM    9  H   UNL     1      26.570  47.916  52.107  1.00  0.00     0.162 HD
HETATM   10  O   UNL     1      24.402  45.953  50.858  1.00  0.00    -0.268 OA
BRANCH   8  11
HETATM   11  C   UNL     1      25.865  46.267  53.254  1.00  0.00     0.127 C 
BRANCH  11  12
HETATM   12  C   UNL     1      26.663  46.809  54.443  1.00  0.00     0.058 C 
BRANCH  12  13
HETATM   13  C   UNL     1      27.801  45.885  54.806  1.00  0.00    -0.054 A 
HETATM   14  C   UNL     1      27.845  44.574  54.308  1.00  0.00     0.046 A 
HETATM   15  C   UNL     1      28.923  43.731  54.607  1.00  0.00     0.102 A 
HETATM   16  C   UNL     1      29.973  44.213  55.407  1.00  0.00     0.101 A 
HETATM   17  C   UNL     1      29.920  45.512  55.923  1.00  0.00     0.040 A 
HETATM   18  C   UNL     1      28.845  46.345  55.617  1.00  0.00     0.010 A 
BRANCH  15  19
HETATM   19  O   UNL     1      29.051  42.439  54.159  1.00  0.00    -0.353 OA
HETATM   20  C   UNL     1      27.975  41.894  53.411  1.00  0.00     0.210 C 
ENDBRANCH  15  19
BRANCH  16  21
HETATM   21  O   UNL     1      31.001  43.343  55.686  1.00  0.00    -0.353 OA
HETATM   22  C   UNL     1      31.431  43.340  57.042  1.00  0.00     0.210 C 
ENDBRANCH  16  21
ENDBRANCH  12  13
ENDBRANCH  11  12
ENDBRANCH   8  11
ENDBRANCH   1   7
BRANCH   2  23
HETATM   23  N   UNL     1      22.887  48.365  49.374  1.00  0.00    -0.320 N 
HETATM   24  C   UNL     1      22.096  47.734  48.431  1.00  0.00     0.280 C 
HETATM   25  O   UNL     1      22.470  47.224  47.385  1.00  0.00    -0.265 OA
HETATM   26  H   UNL     1      22.361  48.940  50.024  1.00  0.00     0.169 HD
BRANCH  24  27
HETATM   27  C   UNL     1      20.632  47.814  48.800  1.00  0.00     0.143 C 
HETATM   28  O   UNL     1      20.270  48.790  49.717  1.00  0.00    -0.345 OA
HETATM   29  C   UNL     1      18.942  48.691  50.247  1.00  0.00     0.186 C 
HETATM   30  C   UNL     1      17.881  48.548  49.169  1.00  0.00     0.105 C 
HETATM   31  S   UNL     1      18.086  46.927  48.385  1.00  0.00    -0.136 SA
HETATM   32  C   UNL     1      19.805  46.952  48.179  1.00  0.00     0.087 C 
ENDBRANCH  24  27
ENDBRANCH   2  23
TORSDOF 8
ENDMDL
MODEL 2
REMARK VINA RESULT:      -9.1      1.067      1.873
REMARK  8 active torsions:
REMARK  status: ('A' for Active; 'I' for Inactive)
REMARK    1  A    between atoms: O_2  and  C_3 
REMARK    2  A    between atoms: C_4  and  O_5 
REMARK    3  A    between atoms: C_8  and  C_9 
REMARK    4  A    between atoms: C_9  and  C_10 
REMARK    5  A    between atoms: C_10  and  N_11 
REMARK       I    between atoms: N_11  and  C_12 
REMARK    6  A    between atoms: C_12  and  C_13 
REMARK    7  A    between atoms: C_14  and  N_15 
REMARK       I    between atoms: N_15  and  C_16 
REMARK    8  A    between atoms: C_16  and  C_17 
ROOT
HETATM    1  C   UNL     1      25.483  47.611  49.868  1.00  0.00     0.058 A 
HETATM    2  C   UNL     1      24.520  48.518  49.384  1.00  0.00     0.050 A 
HETATM    3  C   UNL     1      24.965  49.660  48.694  1.00  0.00     0.030 A 
HETATM    4  C   UNL     1      26.319  49.857  48.411  1.00  0.00     0.002 A 
HETATM    5  C   UNL     1      27.257  48.921  48.826  1.00  0.00     0.001 A 
HETATM    6  C   UNL     1      26.843  47.810  49.559  1.00  0.00     0.019 A 
ENDROOT
BRANCH   1   7
HETATM    7  C   UNL     1      25.230  46.511  50.839  1.00  0.00     0.253 C 
HETATM    8  N   UNL     1      26.269  46.222  51.701  1.00  0.00    -0.356 N 
HETATM    9  H   UNL     1      27.068  46.840  51.719  1.00  0.00     0.162 HD
HETATM   10  O   UNL     1      24.200  45.850  50.770  1.00  0.00    -0.268 OA
BRANCH   8  11
HETATM   11  C   UNL     1      26.104  45.260  52.771  1.00  0.00     0.127 C 
BRANCH  11  12
HETATM   12  C   UNL     1      27.069  44.076  52.663  1.00  0.00     0.058 C 
BRANCH  12  13
HETATM   13  C   UNL     1      28.178  44.178  53.683  1.00  0.00    -0.054 A 
HETATM   14  C   UNL     1      28.228  45.255  54.581  1.00  0.00     0.046 A 
HETATM   15  C   UNL     1      29.230  45.326  55.557  1.00  0.00     0.102 A 
HETATM   16  C   UNL     1      30.189  44.301  55.637  1.00  0.00     0.101 A 
HETATM   17  C   UNL     1      30.155  43.239  54.727  1.00  0.00     0.040 A 
HETATM   18  C   UNL     1      29.150  43.174  53.762  1.00  0.00     0.010 A 
BRANCH  15  19
HETATM   19  O   UNL     1      29.351  46.337  56.479  1.00  0.00    -0.353 OA
HETATM   20  C   UNL     1      28.706  46.163  57.732  1.00  0.00     0.210 C 
ENDBRANCH  15  19
BRANCH  16  21
HETATM   21  O   UNL     1      31.161  44.424  56.600  1.00  0.00    -0.353 OA
HETATM   22  C   UNL     1      31.709  43.193  57.058  1.00  0.00     0.210 C 
ENDBRANCH  16  21
ENDBRANCH  12  13
ENDBRANCH  11  12
ENDBRANCH   8  11
ENDBRANCH   1   7
BRANCH   2  23
HETATM   23  N   UNL     1      23.113  48.401  49.489  1.00  0.00    -0.320 N 
HETATM   24  C   UNL     1      22.252  47.957  48.502  1.00  0.00     0.280 C 
HETATM   25  O   UNL     1      22.562  47.519  47.404  1.00  0.00    -0.265 OA
HETATM   26  H   UNL     1      22.656  48.960  50.203  1.00  0.00     0.169 HD
BRANCH  24  27
HETATM   27  C   UNL     1      20.807  48.151  48.905  1.00  0.00     0.143 C 
HETATM   28  O   UNL     1      20.523  49.248  49.704  1.00  0.00    -0.345 OA
HETATM   29  C   UNL     1      19.213  49.279  50.284  1.00  0.00     0.186 C 
HETATM   30  C   UNL     1      18.107  49.057  49.266  1.00  0.00     0.105 C 
HETATM   31  S   UNL     1      18.211  47.344  48.683  1.00  0.00    -0.136 SA
HETATM   32  C   UNL     1      19.921  47.260  48.421  1.00  0.00     0.087 C 
ENDBRANCH  24  27
ENDBRANCH   2  23
TORSDOF 8
ENDMDL
MODEL 3
REMARK VINA RESULT:      -8.4      3.175      5.232
REMARK  8 active torsions:
REMARK  status: ('A' for Active; 'I' for Inactive)
REMARK    1  A    between atoms: O_2  and  C_3 
REMARK    2  A    between atoms: C_4  and  O_5 
REMARK    3  A    between atoms: C_8  and  C_9 
REMARK    4  A    between atoms: C_9  and  C_10 
REMARK    5  A    between atoms: C_10  and  N_11 
REMARK       I    between atoms: N_11  and  C_12 
REMARK    6  A    between atoms: C_12  and  C_13 
REMARK    7  A    between atoms: C_14  and  N_15 
REMARK       I    between atoms: N_15  and  C_16 
REMARK    8  A    between atoms: C_16  and  C_17 
ROOT
HETATM    1  C   UNL     1      25.939  42.920  49.987  1.00  0.00     0.058 A 
HETATM    2  C   UNL     1      25.302  43.861  49.155  1.00  0.00     0.050 A 
HETATM    3  C   UNL     1      24.277  43.413  48.302  1.00  0.00     0.030 A 
HETATM    4  C   UNL     1      23.831  42.089  48.334  1.00  0.00     0.002 A 
HETATM    5  C   UNL     1      24.414  41.184  49.211  1.00  0.00     0.001 A 
HETATM    6  C   UNL     1      25.468  41.594  50.026  1.00  0.00     0.019 A 
ENDROOT
BRANCH   1   7
HETATM    7  C   UNL     1      27.203  43.143  50.743  1.00  0.00     0.253 C 
HETATM    8  N   UNL     1      27.654  42.070  51.486  1.00  0.00    -0.356 N 
HETATM    9  H   UNL     1      27.194  41.177  51.374  1.00  0.00     0.162 HD
HETATM   10  O   UNL     1      27.718  44.255  50.772  1.00  0.00    -0.268 OA
BRANCH   8  11
HETATM   11  C   UNL     1      28.933  42.118  52.163  1.00  0.00     0.127 C 
BRANCH  11  12
HETATM   12  C   UNL     1      28.825  41.827  53.663  1.00  0.00     0.058 C 
BRANCH  12  13
HETATM   13  C   UNL     1      29.254  43.019  54.485  1.00  0.00    -0.054 A 
HETATM   14  C   UNL     1      28.386  44.105  54.679  1.00  0.00     0.046 A 
HETATM   15  C   UNL     1      28.766  45.190  55.479  1.00  0.00     0.102 A 
HETATM   16  C   UNL     1      30.029  45.182  56.097  1.00  0.00     0.101 A 
HETATM   17  C   UNL     1      30.904  44.112  55.885  1.00  0.00     0.040 A 
HETATM   18  C   UNL     1      30.515  43.033  55.091  1.00  0.00     0.010 A 
BRANCH  15  19
HETATM   19  O   UNL     1      27.980  46.288  55.728  1.00  0.00    -0.353 OA
HETATM   20  C   UNL     1      27.620  47.103  54.623  1.00  0.00     0.210 C 
ENDBRANCH  15  19
BRANCH  16  21
HETATM   21  O   UNL     1      30.362  46.276  56.858  1.00  0.00    -0.353 OA
HETATM   22  C   UNL     1      30.553  46.006  58.242  1.00  0.00     0.210 C 
ENDBRANCH  16  21
ENDBRANCH  12  13
ENDBRANCH  11  12
ENDBRANCH   8  11
ENDBRANCH   1   7
BRANCH   2  23
HETATM   23  N   UNL     1      25.560  45.252  49.090  1.00  0.00    -0.320 N 
HETATM   24  C   UNL     1      25.139  46.207  49.998  1.00  0.00     0.280 C 
HETATM   25  O   UNL     1      24.541  46.006  51.045  1.00  0.00    -0.265 OA
HETATM   26  H   UNL     1      25.795  45.635  48.179  1.00  0.00     0.169 HD
BRANCH  24  27
HETATM   27  C   UNL     1      25.434  47.604  49.502  1.00  0.00     0.143 C 
HETATM   28  O   UNL     1      26.769  47.936  49.321  1.00  0.00    -0.345 OA
HETATM   29  C   UNL     1      27.046  49.324  49.102  1.00  0.00     0.186 C 
HETATM   30  C   UNL     1      26.189  49.935  48.007  1.00  0.00     0.105 C 
HETATM   31  S   UNL     1      24.475  49.991  48.594  1.00  0.00    -0.136 SA
HETATM   32  C   UNL     1      24.371  48.391  49.248  1.00  0.00     0.087 C 
ENDBRANCH  24  27
ENDBRANCH   2  23
TORSDOF 8
ENDMDL
MODEL 4
REMARK VINA RESULT:      -8.4      1.771      2.840
REMARK  8 active torsions:
REMARK  status: ('A' for Active; 'I' for Inactive)
REMARK    1  A    between atoms: O_2  and  C_3 
REMARK    2  A    between atoms: C_4  and  O_5 
REMARK    3  A    between atoms: C_8  and  C_9 
REMARK    4  A    between atoms: C_9  and  C_10 
REMARK    5  A    between atoms: C_10  and  N_11 
REMARK       I    between atoms: N_11  and  C_12 
REMARK    6  A    between atoms: C_12  and  C_13 
REMARK    7  A    between atoms: C_14  and  N_15 
REMARK       I    between atoms: N_15  and  C_16 
REMARK    8  A    between atoms: C_16  and  C_17 
ROOT
HETATM    1  C   UNL     1      25.525  48.056  49.750  1.00  0.00     0.058 A 
HETATM    2  C   UNL     1      24.700  48.946  49.038  1.00  0.00     0.050 A 
HETATM    3  C   UNL     1      25.307  49.996  48.325  1.00  0.00     0.030 A 
HETATM    4  C   UNL     1      26.698  50.111  48.244  1.00  0.00     0.002 A 
HETATM    5  C   UNL     1      27.507  49.184  48.888  1.00  0.00     0.001 A 
HETATM    6  C   UNL     1      26.925  48.169  49.645  1.00  0.00     0.019 A 
ENDROOT
BRANCH   1   7
HETATM    7  C   UNL     1      25.066  47.068  50.765  1.00  0.00     0.253 C 
HETATM    8  N   UNL     1      24.632  45.855  50.268  1.00  0.00    -0.356 N 
HETATM    9  H   UNL     1      24.773  45.657  49.286  1.00  0.00     0.162 HD
HETATM   10  O   UNL     1      24.982  47.387  51.946  1.00  0.00    -0.268 OA
BRANCH   8  11
HETATM   11  C   UNL     1      24.279  44.767  51.157  1.00  0.00     0.127 C 
BRANCH  11  12
HETATM   12  C   UNL     1      25.077  43.489  50.882  1.00  0.00     0.058 C 
BRANCH  12  13
HETATM   13  C   UNL     1      26.190  43.312  51.887  1.00  0.00    -0.054 A 
HETATM   14  C   UNL     1      26.383  44.247  52.915  1.00  0.00     0.046 A 
HETATM   15  C   UNL     1      27.386  44.059  53.874  1.00  0.00     0.102 A 
HETATM   16  C   UNL     1      28.200  42.915  53.804  1.00  0.00     0.101 A 
HETATM   17  C   UNL     1      28.025  41.994  52.767  1.00  0.00     0.040 A 
HETATM   18  C   UNL     1      27.020  42.187  51.819  1.00  0.00     0.010 A 
BRANCH  15  19
HETATM   19  O   UNL     1      27.640  44.917  54.915  1.00  0.00    -0.353 OA
HETATM   20  C   UNL     1      27.185  46.256  54.789  1.00  0.00     0.210 C 
ENDBRANCH  15  19
BRANCH  16  21
HETATM   21  O   UNL     1      29.181  42.784  54.758  1.00  0.00    -0.353 OA
HETATM   22  C   UNL     1      30.493  43.117  54.318  1.00  0.00     0.210 C 
ENDBRANCH  16  21
ENDBRANCH  12  13
ENDBRANCH  11  12
ENDBRANCH   8  11
ENDBRANCH   1   7
BRANCH   2  23
HETATM   23  N   UNL     1      23.289  48.896  48.927  1.00  0.00    -0.320 N 
HETATM   24  C   UNL     1      22.392  49.791  49.481  1.00  0.00     0.280 C 
HETATM   25  O   UNL     1      22.663  50.815  50.093  1.00  0.00    -0.265 OA
HETATM   26  H   UNL     1      22.876  47.996  48.701  1.00  0.00     0.169 HD
BRANCH  24  27
HETATM   27  C   UNL     1      20.967  49.313  49.319  1.00  0.00     0.143 C 
HETATM   28  O   UNL     1      20.789  47.982  48.968  1.00  0.00    -0.345 OA
HETATM   29  C   UNL     1      19.464  47.609  48.570  1.00  0.00     0.186 C 
HETATM   30  C   UNL     1      18.401  48.049  49.563  1.00  0.00     0.105 C 
HETATM   31  S   UNL     1      18.302  49.857  49.522  1.00  0.00    -0.136 SA
HETATM   32  C   UNL     1      19.996  50.213  49.563  1.00  0.00     0.087 C 
ENDBRANCH  24  27
ENDBRANCH   2  23
TORSDOF 8
ENDMDL
MODEL 5
REMARK VINA RESULT:      -8.3      3.009      5.010
REMARK  8 active torsions:
REMARK  status: ('A' for Active; 'I' for Inactive)
REMARK    1  A    between atoms: O_2  and  C_3 
REMARK    2  A    between atoms: C_4  and  O_5 
REMARK    3  A    between atoms: C_8  and  C_9 
REMARK    4  A    between atoms: C_9  and  C_10 
REMARK    5  A    between atoms: C_10  and  N_11 
REMARK       I    between atoms: N_11  and  C_12 
REMARK    6  A    between atoms: C_12  and  C_13 
REMARK    7  A    between atoms: C_14  and  N_15 
REMARK       I    between atoms: N_15  and  C_16 
REMARK    8  A    between atoms: C_16  and  C_17 
ROOT
HETATM    1  C   UNL     1      24.301  47.224  49.695  1.00  0.00     0.058 A 
HETATM    2  C   UNL     1      23.810  45.996  49.213  1.00  0.00     0.050 A 
HETATM    3  C   UNL     1      22.533  45.971  48.623  1.00  0.00     0.030 A 
HETATM    4  C   UNL     1      21.797  47.144  48.434  1.00  0.00     0.002 A 
HETATM    5  C   UNL     1      22.320  48.363  48.845  1.00  0.00     0.001 A 
HETATM    6  C   UNL     1      23.560  48.402  49.481  1.00  0.00     0.019 A 
ENDROOT
BRANCH   1   7
HETATM    7  C   UNL     1      25.488  47.399  50.578  1.00  0.00     0.253 C 
HETATM    8  N   UNL     1      25.312  47.032  51.898  1.00  0.00    -0.356 N 
HETATM    9  H   UNL     1      24.461  46.553  52.157  1.00  0.00     0.162 HD
HETATM   10  O   UNL     1      26.500  47.944  50.153  1.00  0.00    -0.268 OA
BRANCH   8  11
HETATM   11  C   UNL     1      26.423  47.037  52.827  1.00  0.00     0.127 C 
BRANCH  11  12
HETATM   12  C   UNL     1      26.171  46.166  54.062  1.00  0.00     0.058 C 
BRANCH  12  13
HETATM   13  C   UNL     1      27.407  45.387  54.444  1.00  0.00    -0.054 A 
HETATM   14  C   UNL     1      27.745  44.204  53.767  1.00  0.00     0.046 A 
HETATM   15  C   UNL     1      28.914  43.505  54.091  1.00  0.00     0.102 A 
HETATM   16  C   UNL     1      29.759  44.003  55.099  1.00  0.00     0.101 A 
HETATM   17  C   UNL     1      29.411  45.168  55.790  1.00  0.00     0.040 A 
HETATM   18  C   UNL     1      28.246  45.860  55.458  1.00  0.00     0.010 A 
BRANCH  15  19
HETATM   19  O   UNL     1      29.326  42.347  53.478  1.00  0.00    -0.353 OA
HETATM   20  C   UNL     1      28.422  41.253  53.468  1.00  0.00     0.210 C 
ENDBRANCH  15  19
BRANCH  16  21
HETATM   21  O   UNL     1      30.886  43.273  55.390  1.00  0.00    -0.353 OA
HETATM   22  C   UNL     1      31.381  43.440  56.714  1.00  0.00     0.210 C 
ENDBRANCH  16  21
ENDBRANCH  12  13
ENDBRANCH  11  12
ENDBRANCH   8  11
ENDBRANCH   1   7
BRANCH   2  23
HETATM   23  N   UNL     1      24.479  44.747  49.226  1.00  0.00    -0.320 N 
HETATM   24  C   UNL     1      24.651  43.922  50.322  1.00  0.00     0.280 C 
HETATM   25  O   UNL     1      24.194  44.091  51.444  1.00  0.00    -0.265 OA
HETATM   26  H   UNL     1      25.144  44.572  48.479  1.00  0.00     0.169 HD
BRANCH  24  27
HETATM   27  C   UNL     1      25.578  42.771  50.004  1.00  0.00     0.143 C 
HETATM   28  O   UNL     1      26.602  43.022  49.102  1.00  0.00    -0.345 OA
HETATM   29  C   UNL     1      27.307  41.873  48.618  1.00  0.00     0.186 C 
HETATM   30  C   UNL     1      27.786  40.958  49.731  1.00  0.00     0.105 C 
HETATM   31  S   UNL     1      26.334  40.198  50.504  1.00  0.00    -0.136 SA
HETATM   32  C   UNL     1      25.346  41.613  50.651  1.00  0.00     0.087 C 
ENDBRANCH  24  27
ENDBRANCH   2  23
TORSDOF 8
ENDMDL
MODEL 6
REMARK VINA RESULT:      -8.2      3.180     10.369
REMARK  8 active torsions:
REMARK  status: ('A' for Active; 'I' for Inactive)
REMARK    1  A    between atoms: O_2  and  C_3 
REMARK    2  A    between atoms: C_4  and  O_5 
REMARK    3  A    between atoms: C_8  and  C_9 
REMARK    4  A    between atoms: C_9  and  C_10 
REMARK    5  A    between atoms: C_10  and  N_11 
REMARK       I    between atoms: N_11  and  C_12 
REMARK    6  A    between atoms: C_12  and  C_13 
REMARK    7  A    between atoms: C_14  and  N_15 
REMARK       I    between atoms: N_15  and  C_16 
REMARK    8  A    between atoms: C_16  and  C_17 
ROOT
HETATM    1  C   UNL     1      25.003  48.600  49.194  1.00  0.00     0.058 A 
HETATM    2  C   UNL     1      26.128  47.950  49.735  1.00  0.00     0.050 A 
HETATM    3  C   UNL     1      27.403  48.477  49.458  1.00  0.00     0.030 A 
HETATM    4  C   UNL     1      27.558  49.666  48.740  1.00  0.00     0.002 A 
HETATM    5  C   UNL     1      26.439  50.343  48.273  1.00  0.00     0.001 A 
HETATM    6  C   UNL     1      25.170  49.808  48.489  1.00  0.00     0.019 A 
ENDROOT
BRANCH   1   7
HETATM    7  C   UNL     1      23.620  48.050  49.147  1.00  0.00     0.253 C 
HETATM    8  N   UNL     1      22.603  48.970  49.316  1.00  0.00    -0.356 N 
HETATM    9  H   UNL     1      22.838  49.953  49.326  1.00  0.00     0.162 HD
HETATM   10  O   UNL     1      23.437  46.840  49.077  1.00  0.00    -0.268 OA
BRANCH   8  11
HETATM   11  C   UNL     1      21.216  48.583  49.167  1.00  0.00     0.127 C 
BRANCH  11  12
HETATM   12  C   UNL     1      20.612  49.031  47.833  1.00  0.00     0.058 C 
BRANCH  12  13
HETATM   13  C   UNL     1      19.501  50.032  48.043  1.00  0.00    -0.054 A 
HETATM   14  C   UNL     1      18.157  49.634  47.974  1.00  0.00     0.046 A 
HETATM   15  C   UNL     1      17.126  50.552  48.214  1.00  0.00     0.102 A 
HETATM   16  C   UNL     1      17.449  51.882  48.535  1.00  0.00     0.101 A 
HETATM   17  C   UNL     1      18.788  52.286  48.581  1.00  0.00     0.040 A 
HETATM   18  C   UNL     1      19.807  51.363  48.345  1.00  0.00     0.010 A 
BRANCH  15  19
HETATM   19  O   UNL     1      15.787  50.250  48.175  1.00  0.00    -0.353 OA
HETATM   20  C   UNL     1      15.241  49.850  46.927  1.00  0.00     0.210 C 
ENDBRANCH  15  19
BRANCH  16  21
HETATM   21  O   UNL     1      16.403  52.748  48.746  1.00  0.00    -0.353 OA
HETATM   22  C   UNL     1      16.239  53.171  50.095  1.00  0.00     0.210 C 
ENDBRANCH  16  21
ENDBRANCH  12  13
ENDBRANCH  11  12
ENDBRANCH   8  11
ENDBRANCH   1   7
BRANCH   2  23
HETATM   23  N   UNL     1      26.130  46.808  50.573  1.00  0.00    -0.320 N 
HETATM   24  C   UNL     1      25.735  46.763  51.898  1.00  0.00     0.280 C 
HETATM   25  O   UNL     1      25.249  47.678  52.547  1.00  0.00    -0.265 OA
HETATM   26  H   UNL     1      26.740  46.042  50.306  1.00  0.00     0.169 HD
BRANCH  24  27
HETATM   27  C   UNL     1      26.057  45.424  52.522  1.00  0.00     0.143 C 
HETATM   28  O   UNL     1      26.712  44.501  51.721  1.00  0.00    -0.345 OA
HETATM   29  C   UNL     1      26.781  43.164  52.231  1.00  0.00     0.186 C 
HETATM   30  C   UNL     1      27.300  43.100  53.658  1.00  0.00     0.105 C 
HETATM   31  S   UNL     1      26.058  43.846  54.746  1.00  0.00    -0.136 SA
HETATM   32  C   UNL     1      25.708  45.261  53.812  1.00  0.00     0.087 C 
ENDBRANCH  24  27
ENDBRANCH   2  23
TORSDOF 8
ENDMDL
MODEL 7
REMARK VINA RESULT:      -8.2      1.359      2.077
REMARK  8 active torsions:
REMARK  status: ('A' for Active; 'I' for Inactive)
REMARK    1  A    between atoms: O_2  and  C_3 
REMARK    2  A    between atoms: C_4  and  O_5 
REMARK    3  A    between atoms: C_8  and  C_9 
REMARK    4  A    between atoms: C_9  and  C_10 
REMARK    5  A    between atoms: C_10  and  N_11 
REMARK       I    between atoms: N_11  and  C_12 
REMARK    6  A    between atoms: C_12  and  C_13 
REMARK    7  A    between atoms: C_14  and  N_15 
REMARK       I    between atoms: N_15  and  C_16 
REMARK    8  A    between atoms: C_16  and  C_17 
ROOT
HETATM    1  C   UNL     1      25.150  48.075  49.744  1.00  0.00     0.058 A 
HETATM    2  C   UNL     1      24.135  48.797  49.087  1.00  0.00     0.050 A 
HETATM    3  C   UNL     1      24.509  49.849  48.231  1.00  0.00     0.030 A 
HETATM    4  C   UNL     1      25.853  50.122  47.960  1.00  0.00     0.002 A 
HETATM    5  C   UNL     1      26.848  49.357  48.553  1.00  0.00     0.001 A 
HETATM    6  C   UNL     1      26.500  48.347  49.447  1.00  0.00     0.019 A 
ENDROOT
BRANCH   1   7
HETATM    7  C   UNL     1      24.950  47.128  50.875  1.00  0.00     0.253 C 
HETATM    8  N   UNL     1      24.432  45.893  50.539  1.00  0.00    -0.356 N 
HETATM    9  H   UNL     1      24.346  45.655  49.560  1.00  0.00     0.162 HD
HETATM   10  O   UNL     1      25.135  47.496  52.030  1.00  0.00    -0.268 OA
BRANCH   8  11
HETATM   11  C   UNL     1      24.308  44.842  51.528  1.00  0.00     0.127 C 
BRANCH  11  12
HETATM   12  C   UNL     1      25.122  43.593  51.176  1.00  0.00     0.058 C 
BRANCH  12  13
HETATM   13  C   UNL     1      26.229  43.361  52.175  1.00  0.00    -0.054 A 
HETATM   14  C   UNL     1      27.184  42.355  51.965  1.00  0.00     0.046 A 
HETATM   15  C   UNL     1      28.238  42.168  52.869  1.00  0.00     0.102 A 
HETATM   16  C   UNL     1      28.339  43.007  53.992  1.00  0.00     0.101 A 
HETATM   17  C   UNL     1      27.375  43.996  54.216  1.00  0.00     0.040 A 
HETATM   18  C   UNL     1      26.332  44.176  53.308  1.00  0.00     0.010 A 
BRANCH  15  19
HETATM   19  O   UNL     1      29.219  41.216  52.738  1.00  0.00    -0.353 OA
HETATM   20  C   UNL     1      28.993  40.163  51.813  1.00  0.00     0.210 C 
ENDBRANCH  15  19
BRANCH  16  21
HETATM   21  O   UNL     1      29.381  42.775  54.857  1.00  0.00    -0.353 OA
HETATM   22  C   UNL     1      30.139  43.928  55.204  1.00  0.00     0.210 C 
ENDBRANCH  16  21
ENDBRANCH  12  13
ENDBRANCH  11  12
ENDBRANCH   8  11
ENDBRANCH   1   7
BRANCH   2  23
HETATM   23  N   UNL     1      22.740  48.568  49.168  1.00  0.00    -0.320 N 
HETATM   24  C   UNL     1      21.984  47.801  48.300  1.00  0.00     0.280 C 
HETATM   25  O   UNL     1      22.399  47.132  47.365  1.00  0.00    -0.265 OA
HETATM   26  H   UNL     1      22.192  49.241  49.695  1.00  0.00     0.169 HD
BRANCH  24  27
HETATM   27  C   UNL     1      20.506  47.944  48.585  1.00  0.00     0.143 C 
HETATM   28  O   UNL     1      20.154  48.637  49.734  1.00  0.00    -0.345 OA
HETATM   29  C   UNL     1      18.779  48.546  50.125  1.00  0.00     0.186 C 
HETATM   30  C   UNL     1      17.817  48.862  48.992  1.00  0.00     0.105 C 
HETATM   31  S   UNL     1      17.938  47.538  47.761  1.00  0.00    -0.136 SA
HETATM   32  C   UNL     1      19.663  47.414  47.678  1.00  0.00     0.087 C 
ENDBRANCH  24  27
ENDBRANCH   2  23
TORSDOF 8
ENDMDL
MODEL 8
REMARK VINA RESULT:      -8.1      3.397      9.488
REMARK  8 active torsions:
REMARK  status: ('A' for Active; 'I' for Inactive)
REMARK    1  A    between atoms: O_2  and  C_3 
REMARK    2  A    between atoms: C_4  and  O_5 
REMARK    3  A    between atoms: C_8  and  C_9 
REMARK    4  A    between atoms: C_9  and  C_10 
REMARK    5  A    between atoms: C_10  and  N_11 
REMARK       I    between atoms: N_11  and  C_12 
REMARK    6  A    between atoms: C_12  and  C_13 
REMARK    7  A    between atoms: C_14  and  N_15 
REMARK       I    between atoms: N_15  and  C_16 
REMARK    8  A    between atoms: C_16  and  C_17 
ROOT
HETATM    1  C   UNL     1      28.154  44.129  53.468  1.00  0.00     0.058 A 
HETATM    2  C   UNL     1      29.018  43.184  52.882  1.00  0.00     0.050 A 
HETATM    3  C   UNL     1      30.241  42.910  53.520  1.00  0.00     0.030 A 
HETATM    4  C   UNL     1      30.564  43.487  54.751  1.00  0.00     0.002 A 
HETATM    5  C   UNL     1      29.674  44.361  55.361  1.00  0.00     0.001 A 
HETATM    6  C   UNL     1      28.481  44.688  54.719  1.00  0.00     0.019 A 
ENDROOT
BRANCH   1   7
HETATM    7  C   UNL     1      26.965  44.743  52.814  1.00  0.00     0.253 C 
HETATM    8  N   UNL     1      26.800  46.098  53.022  1.00  0.00    -0.356 N 
HETATM    9  H   UNL     1      27.543  46.611  53.477  1.00  0.00     0.162 HD
HETATM   10  O   UNL     1      26.145  44.039  52.235  1.00  0.00    -0.268 OA
BRANCH   8  11
HETATM   11  C   UNL     1      25.757  46.835  52.340  1.00  0.00     0.127 C 
BRANCH  11  12
HETATM   12  C   UNL     1      26.199  47.369  50.974  1.00  0.00     0.058 C 
BRANCH  12  13
HETATM   13  C   UNL     1      25.026  47.501  50.032  1.00  0.00    -0.054 A 
HETATM   14  C   UNL     1      24.855  48.660  49.259  1.00  0.00     0.046 A 
HETATM   15  C   UNL     1      23.793  48.764  48.352  1.00  0.00     0.102 A 
HETATM   16  C   UNL     1      22.898  47.689  48.212  1.00  0.00     0.101 A 
HETATM   17  C   UNL     1      23.054  46.542  48.997  1.00  0.00     0.040 A 
HETATM   18  C   UNL     1      24.117  46.446  49.895  1.00  0.00     0.010 A 
BRANCH  15  19
HETATM   19  O   UNL     1      23.554  49.855  47.553  1.00  0.00    -0.353 OA
HETATM   20  C   UNL     1      23.213  51.075  48.193  1.00  0.00     0.210 C 
ENDBRANCH  15  19
BRANCH  16  21
HETATM   21  O   UNL     1      21.864  47.845  47.320  1.00  0.00    -0.353 OA
HETATM   22  C   UNL     1      21.339  46.632  46.795  1.00  0.00     0.210 C 
ENDBRANCH  16  21
ENDBRANCH  12  13
ENDBRANCH  11  12
ENDBRANCH   8  11
ENDBRANCH   1   7
BRANCH   2  23
HETATM   23  N   UNL     1      28.785  42.434  51.704  1.00  0.00    -0.320 N 
HETATM   24  C   UNL     1      28.010  41.293  51.599  1.00  0.00     0.280 C 
HETATM   25  O   UNL     1      27.337  40.782  52.482  1.00  0.00    -0.265 OA
HETATM   26  H   UNL     1      29.459  42.536  50.951  1.00  0.00     0.169 HD
BRANCH  24  27
HETATM   27  C   UNL     1      28.149  40.657  50.234  1.00  0.00     0.143 C 
HETATM   28  O   UNL     1      28.757  39.411  50.183  1.00  0.00    -0.345 OA
HETATM   29  C   UNL     1      29.111  38.939  48.877  1.00  0.00     0.186 C 
HETATM   30  C   UNL     1      27.962  39.016  47.886  1.00  0.00     0.105 C 
HETATM   31  S   UNL     1      27.611  40.764  47.562  1.00  0.00    -0.136 SA
HETATM   32  C   UNL     1      27.639  41.343  49.194  1.00  0.00     0.087 C 
ENDBRANCH  24  27
ENDBRANCH   2  23
TORSDOF 8
ENDMDL
MODEL 9
REMARK VINA RESULT:      -8.1      4.132      5.727
REMARK  8 active torsions:
REMARK  status: ('A' for Active; 'I' for Inactive)
REMARK    1  A    between atoms: O_2  and  C_3 
REMARK    2  A    between atoms: C_4  and  O_5 
REMARK    3  A    between atoms: C_8  and  C_9 
REMARK    4  A    between atoms: C_9  and  C_10 
REMARK    5  A    between atoms: C_10  and  N_11 
REMARK       I    between atoms: N_11  and  C_12 
REMARK    6  A    between atoms: C_12  and  C_13 
REMARK    7  A    between atoms: C_14  and  N_15 
REMARK       I    between atoms: N_15  and  C_16 
REMARK    8  A    between atoms: C_16  and  C_17 
ROOT
HETATM    1  C   UNL     1      25.365  44.978  51.315  1.00  0.00     0.058 A 
HETATM    2  C   UNL     1      24.801  44.609  50.079  1.00  0.00     0.050 A 
HETATM    3  C   UNL     1      24.190  45.607  49.298  1.00  0.00     0.030 A 
HETATM    4  C   UNL     1      24.214  46.949  49.685  1.00  0.00     0.002 A 
HETATM    5  C   UNL     1      24.839  47.317  50.870  1.00  0.00     0.001 A 
HETATM    6  C   UNL     1      25.402  46.337  51.685  1.00  0.00     0.019 A 
ENDROOT
BRANCH   1   7
HETATM    7  C   UNL     1      25.804  44.040  52.385  1.00  0.00     0.253 C 
HETATM    8  N   UNL     1      26.935  43.299  52.105  1.00  0.00    -0.356 N 
HETATM    9  H   UNL     1      27.466  43.522  51.275  1.00  0.00     0.162 HD
HETATM   10  O   UNL     1      25.116  43.879  53.387  1.00  0.00    -0.268 OA
BRANCH   8  11
HETATM   11  C   UNL     1      27.534  42.445  53.111  1.00  0.00     0.127 C 
BRANCH  11  12
HETATM   12  C   UNL     1      29.059  42.572  53.170  1.00  0.00     0.058 C 
BRANCH  12  13
HETATM   13  C   UNL     1      29.488  43.520  54.265  1.00  0.00    -0.054 A 
HETATM   14  C   UNL     1      28.742  44.676  54.544  1.00  0.00     0.046 A 
HETATM   15  C   UNL     1      29.114  45.531  55.589  1.00  0.00     0.102 A 
HETATM   16  C   UNL     1      30.241  45.218  56.368  1.00  0.00     0.101 A 
HETATM   17  C   UNL     1      30.999  44.078  56.077  1.00  0.00     0.040 A 
HETATM   18  C   UNL     1      30.618  43.231  55.036  1.00  0.00     0.010 A 
BRANCH  15  19
HETATM   19  O   UNL     1      28.441  46.676  55.937  1.00  0.00    -0.353 OA
HETATM   20  C   UNL     1      27.780  47.389  54.902  1.00  0.00     0.210 C 
ENDBRANCH  15  19
BRANCH  16  21
HETATM   21  O   UNL     1      30.574  46.095  57.372  1.00  0.00    -0.353 OA
HETATM   22  C   UNL     1      30.573  45.536  58.680  1.00  0.00     0.210 C 
ENDBRANCH  16  21
ENDBRANCH  12  13
ENDBRANCH  11  12
ENDBRANCH   8  11
ENDBRANCH   1   7
BRANCH   2  23
HETATM   23  N   UNL     1      24.796  43.318  49.497  1.00  0.00    -0.320 N 
HETATM   24  C   UNL     1      25.895  42.638  49.002  1.00  0.00     0.280 C 
HETATM   25  O   UNL     1      27.062  43.001  49.051  1.00  0.00    -0.265 OA
HETATM   26  H   UNL     1      23.912  42.982  49.127  1.00  0.00     0.169 HD
BRANCH  24  27
HETATM   27  C   UNL     1      25.482  41.374  48.284  1.00  0.00     0.143 C 
HETATM   28  O   UNL     1      24.327  41.438  47.518  1.00  0.00    -0.345 OA
HETATM   29  C   UNL     1      23.810  40.184  47.057  1.00  0.00     0.186 C 
HETATM   30  C   UNL     1      24.860  39.325  46.372  1.00  0.00     0.105 C 
HETATM   31  S   UNL     1      26.057  38.791  47.623  1.00  0.00    -0.136 SA
HETATM   32  C   UNL     1      26.292  40.308  48.425  1.00  0.00     0.087 C 
ENDBRANCH  24  27
ENDBRANCH   2  23
TORSDOF 8
ENDMDL
MODEL 10
REMARK VINA RESULT:      -8.0      3.082      8.965
REMARK  8 active torsions:
REMARK  status: ('A' for Active; 'I' for Inactive)
REMARK    1  A    between atoms: O_2  and  C_3 
REMARK    2  A    between atoms: C_4  and  O_5 
REMARK    3  A    between atoms: C_8  and  C_9 
REMARK    4  A    between atoms: C_9  and  C_10 
REMARK    5  A    between atoms: C_10  and  N_11 
REMARK       I    between atoms: N_11  and  C_12 
REMARK    6  A    between atoms: C_12  and  C_13 
REMARK    7  A    between atoms: C_14  and  N_15 
REMARK       I    between atoms: N_15  and  C_16 
REMARK    8  A    between atoms: C_16  and  C_17 
ROOT
HETATM    1  C   UNL     1      28.472  44.496  54.336  1.00  0.00     0.058 A 
HETATM    2  C   UNL     1      29.104  43.428  53.670  1.00  0.00     0.050 A 
HETATM    3  C   UNL     1      30.378  43.025  54.112  1.00  0.00     0.030 A 
HETATM    4  C   UNL     1      30.972  43.602  55.238  1.00  0.00     0.002 A 
HETATM    5  C   UNL     1      30.309  44.603  55.935  1.00  0.00     0.001 A 
HETATM    6  C   UNL     1      29.071  45.054  55.481  1.00  0.00     0.019 A 
ENDROOT
BRANCH   1   7
HETATM    7  C   UNL     1      27.270  45.231  53.853  1.00  0.00     0.253 C 
HETATM    8  N   UNL     1      26.305  44.461  53.233  1.00  0.00    -0.356 N 
HETATM    9  H   UNL     1      26.399  43.455  53.260  1.00  0.00     0.162 HD
HETATM   10  O   UNL     1      27.227  46.455  53.915  1.00  0.00    -0.268 OA
BRANCH   8  11
HETATM   11  C   UNL     1      25.037  45.035  52.832  1.00  0.00     0.127 C 
BRANCH  11  12
HETATM   12  C   UNL     1      24.726  44.816  51.349  1.00  0.00     0.058 C 
BRANCH  12  13
HETATM   13  C   UNL     1      24.844  46.103  50.568  1.00  0.00    -0.054 A 
HETATM   14  C   UNL     1      23.772  46.570  49.791  1.00  0.00     0.046 A 
HETATM   15  C   UNL     1      23.864  47.786  49.103  1.00  0.00     0.102 A 
HETATM   16  C   UNL     1      25.042  48.547  49.203  1.00  0.00     0.101 A 
HETATM   17  C   UNL     1      26.119  48.073  49.958  1.00  0.00     0.040 A 
HETATM   18  C   UNL     1      26.017  46.862  50.643  1.00  0.00     0.010 A 
BRANCH  15  19
HETATM   19  O   UNL     1      22.865  48.321  48.328  1.00  0.00    -0.353 OA
HETATM   20  C   UNL     1      21.708  48.808  48.991  1.00  0.00     0.210 C 
ENDBRANCH  15  19
BRANCH  16  21
HETATM   21  O   UNL     1      25.090  49.725  48.497  1.00  0.00    -0.353 OA
HETATM   22  C   UNL     1      26.371  50.059  47.977  1.00  0.00     0.210 C 
ENDBRANCH  16  21
ENDBRANCH  12  13
ENDBRANCH  11  12
ENDBRANCH   8  11
ENDBRANCH   1   7
BRANCH   2  23
HETATM   23  N   UNL     1      28.587  42.671  52.592  1.00  0.00    -0.320 N 
HETATM   24  C   UNL     1      27.971  41.435  52.679  1.00  0.00     0.280 C 
HETATM   25  O   UNL     1      27.703  40.823  53.703  1.00  0.00    -0.265 OA
HETATM   26  H   UNL     1      28.951  42.877  51.666  1.00  0.00     0.169 HD
BRANCH  24  27
HETATM   27  C   UNL     1      27.724  40.846  51.309  1.00  0.00     0.143 C 
HETATM   28  O   UNL     1      28.737  40.066  50.771  1.00  0.00    -0.345 OA
HETATM   29  C   UNL     1      28.601  39.729  49.385  1.00  0.00     0.186 C 
HETATM   30  C   UNL     1      27.239  39.147  49.046  1.00  0.00     0.105 C 
HETATM   31  S   UNL     1      26.002  40.459  49.229  1.00  0.00    -0.136 SA
HETATM   32  C   UNL     1      26.527  41.103  50.748  1.00  0.00     0.087 C 
ENDBRANCH  24  27
ENDBRANCH   2  23
TORSDOF 8
ENDMDL
