MODEL 1
REMARK VINA RESULT:      -9.8      0.000      0.000
REMARK  8 active torsions:
REMARK  status: ('A' for Active; 'I' for Inactive)
REMARK    1  A    between atoms: C_2  and  O_3 
REMARK    2  A    between atoms: O_3  and  C_4 
REMARK    3  A    between atoms: C_5  and  C_6 
REMARK    4  A    between atoms: C_6  and  N_7 
REMARK    5  A    between atoms: C_23  and  C_24 
REMARK    6  A    between atoms: N_25  and  N_26 
REMARK       I    between atoms: N_26  and  C_27 
REMARK    7  A    between atoms: C_27  and  C_28 
REMARK    8  A    between atoms: C_31  and  N_32 
REMARK       I    between atoms: N_32  and  C_33 
ROOT
HETATM    1  C   UNL     1      21.733  49.875  48.105  1.00  0.00     0.076 A 
HETATM    2  C   UNL     1      21.485  48.584  48.606  1.00  0.00     0.002 A 
HETATM    3  C   UNL     1      22.537  47.849  49.170  1.00  0.00     0.024 A 
HETATM    4  C   UNL     1      23.822  48.391  49.248  1.00  0.00    -0.016 A 
HETATM    5  C   UNL     1      24.073  49.660  48.731  1.00  0.00     0.016 A 
HETATM    6  C   UNL     1      23.029  50.400  48.160  1.00  0.00     0.038 A 
ENDROOT
BRANCH   4   7
HETATM    7  C   UNL     1      24.902  47.634  49.917  1.00  0.00     0.150 C 
HETATM    8  N   UNL     1      24.729  47.209  51.127  1.00  0.00    -0.184 NA
BRANCH   8   9
HETATM    9  N   UNL     1      25.720  46.505  51.750  1.00  0.00    -0.243 N 
HETATM   10  C   UNL     1      26.000  45.152  51.608  1.00  0.00     0.271 C 
HETATM   11  O   UNL     1      25.410  44.364  50.875  1.00  0.00    -0.266 OA
HETATM   12  H   UNL     1      26.080  46.980  52.573  1.00  0.00     0.192 HD
BRANCH  10  13
HETATM   13  C   UNL     1      27.096  44.647  52.486  1.00  0.00     0.033 A 
HETATM   14  C   UNL     1      28.148  43.871  51.986  1.00  0.00     0.019 A 
HETATM   15  C   UNL     1      29.169  43.433  52.838  1.00  0.00     0.030 A 
HETATM   16  C   UNL     1      29.149  43.752  54.197  1.00  0.00     0.034 A 
HETATM   17  C   UNL     1      28.080  44.506  54.698  1.00  0.00     0.030 A 
HETATM   18  C   UNL     1      27.058  44.949  53.851  1.00  0.00     0.019 A 
BRANCH  16  19
HETATM   19  N   UNL     1      30.144  43.352  55.113  1.00  0.00    -0.328 N 
HETATM   20  C   UNL     1      30.835  44.152  56.006  1.00  0.00     0.218 C 
HETATM   21  C   UNL     1      31.831  43.367  56.824  1.00  0.00     0.117 C 
HETATM   22  O   UNL     1      30.682  45.354  56.187  1.00  0.00    -0.274 OA
HETATM   23  H   UNL     1      30.358  42.362  55.132  1.00  0.00     0.169 HD
ENDBRANCH  16  19
ENDBRANCH  10  13
ENDBRANCH   8   9
ENDBRANCH   4   7
BRANCH   2  24
HETATM   24  C   UNL     1      20.108  47.980  48.573  1.00  0.00     0.276 C 
BRANCH  24  25
HETATM   25  N   UNL     1      20.018  46.691  47.774  1.00  0.00    -0.066 N 
HETATM   26  H   UNL     1      20.768  46.147  48.231  1.00  0.00     0.280 HD
HETATM   27  C   UNL     1      18.745  45.911  48.021  1.00  0.00     0.246 C 
HETATM   28  C   UNL     1      17.629  46.223  47.002  1.00  0.00     0.062 C 
HETATM   29  C   UNL     1      18.152  45.988  45.589  1.00  0.00     0.020 C 
HETATM   30  C   UNL     1      17.098  47.637  47.146  1.00  0.00     0.020 A 
HETATM   31  C   UNL     1      19.271  46.988  45.345  1.00  0.00     0.031 C 
HETATM   32  C   UNL     1      18.702  48.407  45.385  1.00  0.00     0.138 C 
HETATM   33  C   UNL     1      20.430  46.765  46.324  1.00  0.00     0.241 C 
HETATM   34  N   UNL     1      17.689  48.665  46.407  1.00  0.00    -0.317 N 
HETATM   35  C   UNL     1      17.262  49.999  46.506  1.00  0.00     0.247 A 
HETATM   36  O   UNL     1      17.769  50.927  45.883  1.00  0.00    -0.268 OA
HETATM   37  C   UNL     1      16.151  50.268  47.450  1.00  0.00     0.074 A 
HETATM   38  C   UNL     1      15.600  49.263  48.137  1.00  0.00     0.007 A 
HETATM   39  C   UNL     1      16.079  47.914  47.979  1.00  0.00     0.026 A 
ENDBRANCH  24  25
ENDBRANCH   2  24
BRANCH   1  40
HETATM   40  O   UNL     1      20.628  50.537  47.632  1.00  0.00    -0.351 OA
BRANCH  40  41
HETATM   41  C   UNL     1      20.264  51.745  48.312  1.00  0.00     0.171 C 
HETATM   42  C   UNL     1      19.286  51.378  49.413  1.00  0.00     0.034 C 
ENDBRANCH  40  41
ENDBRANCH   1  40
TORSDOF 8
ENDMDL
MODEL 2
REMARK VINA RESULT:      -9.6      1.541      2.734
REMARK  8 active torsions:
REMARK  status: ('A' for Active; 'I' for Inactive)
REMARK    1  A    between atoms: C_2  and  O_3 
REMARK    2  A    between atoms: O_3  and  C_4 
REMARK    3  A    between atoms: C_5  and  C_6 
REMARK    4  A    between atoms: C_6  and  N_7 
REMARK    5  A    between atoms: C_23  and  C_24 
REMARK    6  A    between atoms: N_25  and  N_26 
REMARK       I    between atoms: N_26  and  C_27 
REMARK    7  A    between atoms: C_27  and  C_28 
REMARK    8  A    between atoms: C_31  and  N_32 
REMARK       I    between atoms: N_32  and  C_33 
ROOT
HETATM    1  C   UNL     1      21.541  50.236  48.120  1.00  0.00     0.076 A 
HETATM    2  C   UNL     1      21.373  48.840  48.107  1.00  0.00     0.002 A 
HETATM    3  C   UNL     1      22.367  48.020  48.659  1.00  0.00     0.024 A 
HETATM    4  C   UNL     1      23.513  48.578  49.230  1.00  0.00    -0.016 A 
HETATM    5  C   UNL     1      23.690  49.960  49.224  1.00  0.00     0.016 A 
HETATM    6  C   UNL     1      22.705  50.787  48.668  1.00  0.00     0.038 A 
ENDROOT
BRANCH   4   7
HETATM    7  C   UNL     1      24.514  47.703  49.879  1.00  0.00     0.150 C 
HETATM    8  N   UNL     1      24.650  47.734  51.165  1.00  0.00    -0.184 NA
BRANCH   8   9
HETATM    9  N   UNL     1      25.569  46.926  51.773  1.00  0.00    -0.243 N 
HETATM   10  C   UNL     1      25.392  45.604  52.161  1.00  0.00     0.271 C 
HETATM   11  O   UNL     1      24.378  44.933  52.001  1.00  0.00    -0.266 OA
HETATM   12  H   UNL     1      26.329  47.448  52.200  1.00  0.00     0.192 HD
BRANCH  10  13
HETATM   13  C   UNL     1      26.554  45.005  52.879  1.00  0.00     0.033 A 
HETATM   14  C   UNL     1      27.484  44.183  52.231  1.00  0.00     0.019 A 
HETATM   15  C   UNL     1      28.573  43.656  52.935  1.00  0.00     0.030 A 
HETATM   16  C   UNL     1      28.744  43.931  54.293  1.00  0.00     0.034 A 
HETATM   17  C   UNL     1      27.797  44.731  54.945  1.00  0.00     0.030 A 
HETATM   18  C   UNL     1      26.707  45.263  54.245  1.00  0.00     0.019 A 
BRANCH  16  19
HETATM   19  N   UNL     1      29.817  43.441  55.064  1.00  0.00    -0.328 N 
HETATM   20  C   UNL     1      30.651  44.164  55.900  1.00  0.00     0.218 C 
HETATM   21  C   UNL     1      31.694  43.295  56.558  1.00  0.00     0.117 C 
HETATM   22  O   UNL     1      30.584  45.362  56.148  1.00  0.00    -0.274 OA
HETATM   23  H   UNL     1      29.980  42.442  55.016  1.00  0.00     0.169 HD
ENDBRANCH  16  19
ENDBRANCH  10  13
ENDBRANCH   8   9
ENDBRANCH   4   7
BRANCH   2  24
HETATM   24  C   UNL     1      20.136  48.203  47.533  1.00  0.00     0.276 C 
BRANCH  24  25
HETATM   25  N   UNL     1      18.840  48.842  47.999  1.00  0.00    -0.066 N 
HETATM   26  H   UNL     1      19.202  49.746  48.344  1.00  0.00     0.280 HD
HETATM   27  C   UNL     1      17.894  49.190  46.870  1.00  0.00     0.246 C 
HETATM   28  C   UNL     1      16.853  48.089  46.582  1.00  0.00     0.062 C 
HETATM   29  C   UNL     1      16.086  47.769  47.860  1.00  0.00     0.020 C 
HETATM   30  C   UNL     1      17.487  46.834  46.011  1.00  0.00     0.020 A 
HETATM   31  C   UNL     1      17.082  47.193  48.856  1.00  0.00     0.031 C 
HETATM   32  C   UNL     1      17.631  45.872  48.318  1.00  0.00     0.138 C 
HETATM   33  C   UNL     1      18.171  48.217  49.198  1.00  0.00     0.241 C 
HETATM   34  N   UNL     1      17.912  45.828  46.884  1.00  0.00    -0.317 N 
HETATM   35  C   UNL     1      18.524  44.650  46.426  1.00  0.00     0.247 A 
HETATM   36  O   UNL     1      18.921  43.755  47.166  1.00  0.00    -0.268 OA
HETATM   37  C   UNL     1      18.709  44.528  44.961  1.00  0.00     0.074 A 
HETATM   38  C   UNL     1      18.285  45.503  44.151  1.00  0.00     0.007 A 
HETATM   39  C   UNL     1      17.654  46.682  44.685  1.00  0.00     0.026 A 
ENDBRANCH  24  25
ENDBRANCH   2  24
BRANCH   1  40
HETATM   40  O   UNL     1      20.485  50.953  47.614  1.00  0.00    -0.351 OA
BRANCH  40  41
HETATM   41  C   UNL     1      19.993  52.029  48.424  1.00  0.00     0.171 C 
HETATM   42  C   UNL     1      18.635  52.431  47.880  1.00  0.00     0.034 C 
ENDBRANCH  40  41
ENDBRANCH   1  40
TORSDOF 8
ENDMDL
MODEL 3
REMARK VINA RESULT:      -9.1      3.153     11.553
REMARK  8 active torsions:
REMARK  status: ('A' for Active; 'I' for Inactive)
REMARK    1  A    between atoms: C_2  and  O_3 
REMARK    2  A    between atoms: O_3  and  C_4 
REMARK    3  A    between atoms: C_5  and  C_6 
REMARK    4  A    between atoms: C_6  and  N_7 
REMARK    5  A    between atoms: C_23  and  C_24 
REMARK    6  A    between atoms: N_25  and  N_26 
REMARK       I    between atoms: N_26  and  C_27 
REMARK    7  A    between atoms: C_27  and  C_28 
REMARK    8  A    between atoms: C_31  and  N_32 
REMARK       I    between atoms: N_32  and  C_33 
ROOT
HETATM    1  C   UNL     1      25.390  41.228  48.959  1.00  0.00     0.076 A 
HETATM    2  C   UNL     1      25.356  41.877  50.206  1.00  0.00     0.002 A 
HETATM    3  C   UNL     1      24.551  43.013  50.371  1.00  0.00     0.024 A 
HETATM    4  C   UNL     1      23.777  43.495  49.313  1.00  0.00    -0.016 A 
HETATM    5  C   UNL     1      23.827  42.866  48.072  1.00  0.00     0.016 A 
HETATM    6  C   UNL     1      24.634  41.734  47.895  1.00  0.00     0.038 A 
ENDROOT
BRANCH   4   7
HETATM    7  C   UNL     1      22.872  44.646  49.527  1.00  0.00     0.150 C 
HETATM    8  N   UNL     1      22.793  45.572  48.627  1.00  0.00    -0.184 NA
BRANCH   8   9
HETATM    9  N   UNL     1      21.957  46.636  48.814  1.00  0.00    -0.243 N 
HETATM   10  C   UNL     1      22.192  47.956  48.454  1.00  0.00     0.271 C 
HETATM   11  O   UNL     1      23.190  48.384  47.885  1.00  0.00    -0.266 OA
HETATM   12  H   UNL     1      21.242  46.454  49.514  1.00  0.00     0.192 HD
BRANCH  10  13
HETATM   13  C   UNL     1      21.123  48.913  48.865  1.00  0.00     0.033 A 
HETATM   14  C   UNL     1      19.950  48.486  49.498  1.00  0.00     0.019 A 
HETATM   15  C   UNL     1      18.978  49.417  49.887  1.00  0.00     0.030 A 
HETATM   16  C   UNL     1      19.158  50.779  49.641  1.00  0.00     0.034 A 
HETATM   17  C   UNL     1      20.321  51.199  48.983  1.00  0.00     0.030 A 
HETATM   18  C   UNL     1      21.296  50.274  48.594  1.00  0.00     0.019 A 
BRANCH  16  19
HETATM   19  N   UNL     1      18.228  51.773  50.009  1.00  0.00    -0.328 N 
HETATM   20  C   UNL     1      17.096  52.162  49.314  1.00  0.00     0.218 C 
HETATM   21  C   UNL     1      16.344  53.265  50.018  1.00  0.00     0.117 C 
HETATM   22  O   UNL     1      16.676  51.687  48.266  1.00  0.00    -0.274 OA
HETATM   23  H   UNL     1      18.399  52.237  50.892  1.00  0.00     0.169 HD
ENDBRANCH  16  19
ENDBRANCH  10  13
ENDBRANCH   8   9
ENDBRANCH   4   7
BRANCH   2  24
HETATM   24  C   UNL     1      26.148  41.367  51.379  1.00  0.00     0.276 C 
BRANCH  24  25
HETATM   25  N   UNL     1      27.652  41.452  51.193  1.00  0.00    -0.066 N 
HETATM   26  H   UNL     1      27.772  40.791  50.408  1.00  0.00     0.280 HD
HETATM   27  C   UNL     1      28.124  42.792  50.668  1.00  0.00     0.246 C 
HETATM   28  C   UNL     1      28.546  43.771  51.783  1.00  0.00     0.062 C 
HETATM   29  C   UNL     1      29.612  43.118  52.656  1.00  0.00     0.020 C 
HETATM   30  C   UNL     1      27.370  44.224  52.626  1.00  0.00     0.020 A 
HETATM   31  C   UNL     1      28.971  41.917  53.335  1.00  0.00     0.031 C 
HETATM   32  C   UNL     1      27.858  42.397  54.267  1.00  0.00     0.138 C 
HETATM   33  C   UNL     1      28.504  40.886  52.302  1.00  0.00     0.241 C 
HETATM   34  N   UNL     1      27.029  43.494  53.768  1.00  0.00    -0.317 N 
HETATM   35  C   UNL     1      25.941  43.844  54.583  1.00  0.00     0.247 A 
HETATM   36  O   UNL     1      25.607  43.216  55.584  1.00  0.00    -0.268 OA
HETATM   37  C   UNL     1      25.156  45.029  54.164  1.00  0.00     0.074 A 
HETATM   38  C   UNL     1      25.511  45.712  53.072  1.00  0.00     0.007 A 
HETATM   39  C   UNL     1      26.647  45.305  52.285  1.00  0.00     0.026 A 
ENDBRANCH  24  25
ENDBRANCH   2  24
BRANCH   1  40
HETATM   40  O   UNL     1      26.157  40.090  48.916  1.00  0.00    -0.351 OA
BRANCH  40  41
HETATM   41  C   UNL     1      27.198  40.055  47.932  1.00  0.00     0.171 C 
HETATM   42  C   UNL     1      28.260  39.085  48.417  1.00  0.00     0.034 C 
ENDBRANCH  40  41
ENDBRANCH   1  40
TORSDOF 8
ENDMDL
MODEL 4
REMARK VINA RESULT:      -9.1      1.810      3.619
REMARK  8 active torsions:
REMARK  status: ('A' for Active; 'I' for Inactive)
REMARK    1  A    between atoms: C_2  and  O_3 
REMARK    2  A    between atoms: O_3  and  C_4 
REMARK    3  A    between atoms: C_5  and  C_6 
REMARK    4  A    between atoms: C_6  and  N_7 
REMARK    5  A    between atoms: C_23  and  C_24 
REMARK    6  A    between atoms: N_25  and  N_26 
REMARK       I    between atoms: N_26  and  C_27 
REMARK    7  A    between atoms: C_27  and  C_28 
REMARK    8  A    between atoms: C_31  and  N_32 
REMARK       I    between atoms: N_32  and  C_33 
ROOT
HETATM    1  C   UNL     1      20.996  46.392  46.557  1.00  0.00     0.076 A 
HETATM    2  C   UNL     1      21.105  47.321  47.607  1.00  0.00     0.002 A 
HETATM    3  C   UNL     1      22.064  47.121  48.610  1.00  0.00     0.024 A 
HETATM    4  C   UNL     1      22.915  46.015  48.568  1.00  0.00    -0.016 A 
HETATM    5  C   UNL     1      22.794  45.082  47.541  1.00  0.00     0.016 A 
HETATM    6  C   UNL     1      21.834  45.271  46.537  1.00  0.00     0.038 A 
ENDROOT
BRANCH   4   7
HETATM    7  C   UNL     1      23.974  45.861  49.590  1.00  0.00     0.150 C 
HETATM    8  N   UNL     1      24.358  44.675  49.937  1.00  0.00    -0.184 NA
BRANCH   8   9
HETATM    9  N   UNL     1      25.339  44.524  50.877  1.00  0.00    -0.243 N 
HETATM   10  C   UNL     1      26.710  44.518  50.659  1.00  0.00     0.271 C 
HETATM   11  O   UNL     1      27.272  44.670  49.580  1.00  0.00    -0.266 OA
HETATM   12  H   UNL     1      24.993  44.117  51.742  1.00  0.00     0.192 HD
BRANCH  10  13
HETATM   13  C   UNL     1      27.532  44.249  51.875  1.00  0.00     0.033 A 
HETATM   14  C   UNL     1      27.169  44.733  53.138  1.00  0.00     0.019 A 
HETATM   15  C   UNL     1      27.955  44.442  54.259  1.00  0.00     0.030 A 
HETATM   16  C   UNL     1      29.116  43.677  54.135  1.00  0.00     0.034 A 
HETATM   17  C   UNL     1      29.491  43.217  52.867  1.00  0.00     0.030 A 
HETATM   18  C   UNL     1      28.707  43.503  51.743  1.00  0.00     0.019 A 
BRANCH  16  19
HETATM   19  N   UNL     1      29.953  43.339  55.219  1.00  0.00    -0.328 N 
HETATM   20  C   UNL     1      30.663  44.204  56.034  1.00  0.00     0.218 C 
HETATM   21  C   UNL     1      31.455  43.473  57.089  1.00  0.00     0.117 C 
HETATM   22  O   UNL     1      30.665  45.428  55.982  1.00  0.00    -0.274 OA
HETATM   23  H   UNL     1      30.023  42.352  55.437  1.00  0.00     0.169 HD
ENDBRANCH  16  19
ENDBRANCH  10  13
ENDBRANCH   8   9
ENDBRANCH   4   7
BRANCH   2  24
HETATM   24  C   UNL     1      20.229  48.544  47.668  1.00  0.00     0.276 C 
BRANCH  24  25
HETATM   25  N   UNL     1      20.683  49.578  48.683  1.00  0.00    -0.066 N 
HETATM   26  H   UNL     1      21.660  49.272  48.823  1.00  0.00     0.280 HD
HETATM   27  C   UNL     1      20.775  50.981  48.122  1.00  0.00     0.246 C 
HETATM   28  C   UNL     1      19.496  51.814  48.348  1.00  0.00     0.062 C 
HETATM   29  C   UNL     1      19.163  51.839  49.836  1.00  0.00     0.020 C 
HETATM   30  C   UNL     1      18.320  51.292  47.546  1.00  0.00     0.020 A 
HETATM   31  C   UNL     1      18.845  50.412  50.255  1.00  0.00     0.031 C 
HETATM   32  C   UNL     1      17.592  49.935  49.520  1.00  0.00     0.138 C 
HETATM   33  C   UNL     1      20.059  49.497  50.055  1.00  0.00     0.241 C 
HETATM   34  N   UNL     1      17.475  50.338  48.120  1.00  0.00    -0.317 N 
HETATM   35  C   UNL     1      16.379  49.796  47.428  1.00  0.00     0.247 A 
HETATM   36  O   UNL     1      15.627  48.947  47.897  1.00  0.00    -0.268 OA
HETATM   37  C   UNL     1      16.167  50.280  46.043  1.00  0.00     0.074 A 
HETATM   38  C   UNL     1      16.987  51.200  45.525  1.00  0.00     0.007 A 
HETATM   39  C   UNL     1      18.087  51.723  46.294  1.00  0.00     0.026 A 
ENDBRANCH  24  25
ENDBRANCH   2  24
BRANCH   1  40
HETATM   40  O   UNL     1      20.073  46.710  45.592  1.00  0.00    -0.351 OA
BRANCH  40  41
HETATM   41  C   UNL     1      18.921  45.861  45.503  1.00  0.00     0.171 C 
HETATM   42  C   UNL     1      17.690  46.749  45.544  1.00  0.00     0.034 C 
ENDBRANCH  40  41
ENDBRANCH   1  40
TORSDOF 8
ENDMDL
MODEL 5
REMARK VINA RESULT:      -9.1      2.307      3.699
REMARK  8 active torsions:
REMARK  status: ('A' for Active; 'I' for Inactive)
REMARK    1  A    between atoms: C_2  and  O_3 
REMARK    2  A    between atoms: O_3  and  C_4 
REMARK    3  A    between atoms: C_5  and  C_6 
REMARK    4  A    between atoms: C_6  and  N_7 
REMARK    5  A    between atoms: C_23  and  C_24 
REMARK    6  A    between atoms: N_25  and  N_26 
REMARK       I    between atoms: N_26  and  C_27 
REMARK    7  A    between atoms: C_27  and  C_28 
REMARK    8  A    between atoms: C_31  and  N_32 
REMARK       I    between atoms: N_32  and  C_33 
ROOT
HETATM    1  C   UNL     1      21.348  45.090  46.316  1.00  0.00     0.076 A 
HETATM    2  C   UNL     1      21.232  46.165  47.215  1.00  0.00     0.002 A 
HETATM    3  C   UNL     1      22.143  46.282  48.273  1.00  0.00     0.024 A 
HETATM    4  C   UNL     1      23.169  45.347  48.434  1.00  0.00    -0.016 A 
HETATM    5  C   UNL     1      23.271  44.270  47.558  1.00  0.00     0.016 A 
HETATM    6  C   UNL     1      22.360  44.141  46.500  1.00  0.00     0.038 A 
ENDROOT
BRANCH   4   7
HETATM    7  C   UNL     1      24.169  45.529  49.509  1.00  0.00     0.150 C 
HETATM    8  N   UNL     1      23.978  44.971  50.660  1.00  0.00    -0.184 NA
BRANCH   8   9
HETATM    9  N   UNL     1      24.900  45.131  51.656  1.00  0.00    -0.243 N 
HETATM   10  C   UNL     1      25.378  46.330  52.168  1.00  0.00     0.271 C 
HETATM   11  O   UNL     1      25.031  47.454  51.820  1.00  0.00    -0.266 OA
HETATM   12  H   UNL     1      25.451  44.292  51.818  1.00  0.00     0.192 HD
BRANCH  10  13
HETATM   13  C   UNL     1      26.447  46.185  53.199  1.00  0.00     0.033 A 
HETATM   14  C   UNL     1      27.072  44.958  53.451  1.00  0.00     0.019 A 
HETATM   15  C   UNL     1      28.085  44.865  54.413  1.00  0.00     0.030 A 
HETATM   16  C   UNL     1      28.479  45.989  55.142  1.00  0.00     0.034 A 
HETATM   17  C   UNL     1      27.832  47.208  54.907  1.00  0.00     0.030 A 
HETATM   18  C   UNL     1      26.820  47.307  53.945  1.00  0.00     0.019 A 
BRANCH  16  19
HETATM   19  N   UNL     1      29.494  45.973  56.121  1.00  0.00    -0.328 N 
HETATM   20  C   UNL     1      29.340  46.075  57.493  1.00  0.00     0.218 C 
HETATM   21  C   UNL     1      30.660  46.024  58.221  1.00  0.00     0.117 C 
HETATM   22  O   UNL     1      28.285  46.163  58.110  1.00  0.00    -0.274 OA
HETATM   23  H   UNL     1      30.439  45.851  55.779  1.00  0.00     0.169 HD
ENDBRANCH  16  19
ENDBRANCH  10  13
ENDBRANCH   8   9
ENDBRANCH   4   7
BRANCH   2  24
HETATM   24  C   UNL     1      20.162  47.212  47.053  1.00  0.00     0.276 C 
BRANCH  24  25
HETATM   25  N   UNL     1      18.761  46.645  46.905  1.00  0.00    -0.066 N 
HETATM   26  H   UNL     1      18.981  45.749  46.440  1.00  0.00     0.280 HD
HETATM   27  C   UNL     1      18.115  46.270  48.222  1.00  0.00     0.246 C 
HETATM   28  C   UNL     1      17.235  47.391  48.812  1.00  0.00     0.062 C 
HETATM   29  C   UNL     1      16.186  47.807  47.786  1.00  0.00     0.020 C 
HETATM   30  C   UNL     1      18.051  48.589  49.257  1.00  0.00     0.020 A 
HETATM   31  C   UNL     1      16.925  48.399  46.596  1.00  0.00     0.031 C 
HETATM   32  C   UNL     1      17.656  49.669  47.033  1.00  0.00     0.138 C 
HETATM   33  C   UNL     1      17.842  47.358  45.944  1.00  0.00     0.241 C 
HETATM   34  N   UNL     1      18.290  49.625  48.350  1.00  0.00    -0.317 N 
HETATM   35  C   UNL     1      19.054  50.754  48.687  1.00  0.00     0.247 A 
HETATM   36  O   UNL     1      19.294  51.674  47.910  1.00  0.00    -0.268 OA
HETATM   37  C   UNL     1      19.609  50.789  50.061  1.00  0.00     0.074 A 
HETATM   38  C   UNL     1      19.356  49.788  50.909  1.00  0.00     0.007 A 
HETATM   39  C   UNL     1      18.555  48.663  50.502  1.00  0.00     0.026 A 
ENDBRANCH  24  25
ENDBRANCH   2  24
BRANCH   1  40
HETATM   40  O   UNL     1      20.449  45.099  45.279  1.00  0.00    -0.351 OA
BRANCH  40  41
HETATM   41  C   UNL     1      20.068  43.823  44.748  1.00  0.00     0.171 C 
HETATM   42  C   UNL     1      18.552  43.756  44.752  1.00  0.00     0.034 C 
ENDBRANCH  40  41
ENDBRANCH   1  40
TORSDOF 8
ENDMDL
MODEL 6
REMARK VINA RESULT:      -9.0      2.534      3.872
REMARK  8 active torsions:
REMARK  status: ('A' for Active; 'I' for Inactive)
REMARK    1  A    between atoms: C_2  and  O_3 
REMARK    2  A    between atoms: O_3  and  C_4 
REMARK    3  A    between atoms: C_5  and  C_6 
REMARK    4  A    between atoms: C_6  and  N_7 
REMARK    5  A    between atoms: C_23  and  C_24 
REMARK    6  A    between atoms: N_25  and  N_26 
REMARK       I    between atoms: N_26  and  C_27 
REMARK    7  A    between atoms: C_27  and  C_28 
REMARK    8  A    between atoms: C_31  and  N_32 
REMARK       I    between atoms: N_32  and  C_33 
ROOT
HETATM    1  C   UNL     1      21.529  49.737  48.254  1.00  0.00     0.076 A 
HETATM    2  C   UNL     1      21.127  48.475  47.781  1.00  0.00     0.002 A 
HETATM    3  C   UNL     1      21.914  47.349  48.062  1.00  0.00     0.024 A 
HETATM    4  C   UNL     1      23.083  47.470  48.816  1.00  0.00    -0.016 A 
HETATM    5  C   UNL     1      23.493  48.722  49.267  1.00  0.00     0.016 A 
HETATM    6  C   UNL     1      22.717  49.855  48.985  1.00  0.00     0.038 A 
ENDROOT
BRANCH   4   7
HETATM    7  C   UNL     1      23.859  46.262  49.172  1.00  0.00     0.150 C 
HETATM    8  N   UNL     1      24.755  46.329  50.102  1.00  0.00    -0.184 NA
BRANCH   8   9
HETATM    9  N   UNL     1      25.473  45.216  50.439  1.00  0.00    -0.243 N 
HETATM   10  C   UNL     1      26.280  45.051  51.557  1.00  0.00     0.271 C 
HETATM   11  O   UNL     1      26.467  45.877  52.444  1.00  0.00    -0.266 OA
HETATM   12  H   UNL     1      25.616  44.589  49.653  1.00  0.00     0.192 HD
BRANCH  10  13
HETATM   13  C   UNL     1      27.006  43.748  51.613  1.00  0.00     0.033 A 
HETATM   14  C   UNL     1      28.275  43.630  52.193  1.00  0.00     0.019 A 
HETATM   15  C   UNL     1      28.915  42.386  52.244  1.00  0.00     0.030 A 
HETATM   16  C   UNL     1      28.307  41.249  51.708  1.00  0.00     0.034 A 
HETATM   17  C   UNL     1      27.050  41.377  51.104  1.00  0.00     0.030 A 
HETATM   18  C   UNL     1      26.404  42.617  51.053  1.00  0.00     0.019 A 
BRANCH  16  19
HETATM   19  N   UNL     1      28.888  39.965  51.728  1.00  0.00    -0.328 N 
HETATM   20  C   UNL     1      29.173  39.154  50.644  1.00  0.00     0.218 C 
HETATM   21  C   UNL     1      29.790  37.841  51.057  1.00  0.00     0.117 C 
HETATM   22  O   UNL     1      29.001  39.422  49.460  1.00  0.00    -0.274 OA
HETATM   23  H   UNL     1      29.146  39.607  52.640  1.00  0.00     0.169 HD
ENDBRANCH  16  19
ENDBRANCH  10  13
ENDBRANCH   8   9
ENDBRANCH   4   7
BRANCH   2  24
HETATM   24  C   UNL     1      19.855  48.299  46.995  1.00  0.00     0.276 C 
BRANCH  24  25
HETATM   25  N   UNL     1      18.639  48.943  47.638  1.00  0.00    -0.066 N 
HETATM   26  H   UNL     1      19.034  49.867  47.877  1.00  0.00     0.280 HD
HETATM   27  C   UNL     1      17.515  49.224  46.664  1.00  0.00     0.246 C 
HETATM   28  C   UNL     1      16.464  48.096  46.602  1.00  0.00     0.062 C 
HETATM   29  C   UNL     1      15.923  47.828  48.002  1.00  0.00     0.020 C 
HETATM   30  C   UNL     1      17.022  46.823  45.993  1.00  0.00     0.020 A 
HETATM   31  C   UNL     1      17.079  47.315  48.847  1.00  0.00     0.031 C 
HETATM   32  C   UNL     1      17.561  45.977  48.287  1.00  0.00     0.138 C 
HETATM   33  C   UNL     1      18.188  48.368  48.958  1.00  0.00     0.241 C 
HETATM   34  N   UNL     1      17.604  45.867  46.829  1.00  0.00    -0.317 N 
HETATM   35  C   UNL     1      18.158  44.676  46.332  1.00  0.00     0.247 A 
HETATM   36  O   UNL     1      18.689  43.823  47.037  1.00  0.00    -0.268 OA
HETATM   37  C   UNL     1      18.104  44.486  44.863  1.00  0.00     0.074 A 
HETATM   38  C   UNL     1      17.533  45.414  44.090  1.00  0.00     0.007 A 
HETATM   39  C   UNL     1      16.974  46.610  44.666  1.00  0.00     0.026 A 
ENDBRANCH  24  25
ENDBRANCH   2  24
BRANCH   1  40
HETATM   40  O   UNL     1      20.660  50.764  47.981  1.00  0.00    -0.351 OA
BRANCH  40  41
HETATM   41  C   UNL     1      20.246  51.567  49.094  1.00  0.00     0.171 C 
HETATM   42  C   UNL     1      19.021  52.354  48.664  1.00  0.00     0.034 C 
ENDBRANCH  40  41
ENDBRANCH   1  40
TORSDOF 8
ENDMDL
MODEL 7
REMARK VINA RESULT:      -8.7      2.222      3.948
REMARK  8 active torsions:
REMARK  status: ('A' for Active; 'I' for Inactive)
REMARK    1  A    between atoms: C_2  and  O_3 
REMARK    2  A    between atoms: O_3  and  C_4 
REMARK    3  A    between atoms: C_5  and  C_6 
REMARK    4  A    between atoms: C_6  and  N_7 
REMARK    5  A    between atoms: C_23  and  C_24 
REMARK    6  A    between atoms: N_25  and  N_26 
REMARK       I    between atoms: N_26  and  C_27 
REMARK    7  A    between atoms: C_27  and  C_28 
REMARK    8  A    between atoms: C_31  and  N_32 
REMARK       I    between atoms: N_32  and  C_33 
ROOT
HETATM    1  C   UNL     1      18.811  51.245  48.092  1.00  0.00     0.076 A 
HETATM    2  C   UNL     1      18.804  49.852  47.902  1.00  0.00     0.002 A 
HETATM    3  C   UNL     1      19.941  49.103  48.237  1.00  0.00     0.024 A 
HETATM    4  C   UNL     1      21.072  49.728  48.767  1.00  0.00    -0.016 A 
HETATM    5  C   UNL     1      21.088  51.110  48.935  1.00  0.00     0.016 A 
HETATM    6  C   UNL     1      19.959  51.868  48.597  1.00  0.00     0.038 A 
ENDROOT
BRANCH   4   7
HETATM    7  C   UNL     1      22.233  48.914  49.189  1.00  0.00     0.150 C 
HETATM    8  N   UNL     1      22.234  47.639  48.969  1.00  0.00    -0.184 NA
BRANCH   8   9
HETATM    9  N   UNL     1      23.304  46.882  49.351  1.00  0.00    -0.243 N 
HETATM   10  C   UNL     1      23.357  45.497  49.442  1.00  0.00     0.271 C 
HETATM   11  O   UNL     1      22.449  44.718  49.171  1.00  0.00    -0.266 OA
HETATM   12  H   UNL     1      24.003  47.418  49.858  1.00  0.00     0.192 HD
BRANCH  10  13
HETATM   13  C   UNL     1      24.644  44.957  49.972  1.00  0.00     0.033 A 
HETATM   14  C   UNL     1      25.885  45.429  49.527  1.00  0.00     0.019 A 
HETATM   15  C   UNL     1      27.070  44.911  50.062  1.00  0.00     0.030 A 
HETATM   16  C   UNL     1      27.035  43.911  51.037  1.00  0.00     0.034 A 
HETATM   17  C   UNL     1      25.792  43.423  51.458  1.00  0.00     0.030 A 
HETATM   18  C   UNL     1      24.604  43.938  50.929  1.00  0.00     0.019 A 
BRANCH  16  19
HETATM   19  N   UNL     1      28.186  43.347  51.625  1.00  0.00    -0.328 N 
HETATM   20  C   UNL     1      28.766  43.690  52.833  1.00  0.00     0.218 C 
HETATM   21  C   UNL     1      29.995  42.868  53.131  1.00  0.00     0.117 C 
HETATM   22  O   UNL     1      28.363  44.528  53.631  1.00  0.00    -0.274 OA
HETATM   23  H   UNL     1      28.621  42.590  51.112  1.00  0.00     0.169 HD
ENDBRANCH  16  19
ENDBRANCH  10  13
ENDBRANCH   8   9
ENDBRANCH   4   7
BRANCH   2  24
HETATM   24  C   UNL     1      17.592  49.138  47.367  1.00  0.00     0.276 C 
BRANCH  24  25
HETATM   25  N   UNL     1      17.215  49.538  45.951  1.00  0.00    -0.066 N 
HETATM   26  H   UNL     1      16.980  50.532  46.104  1.00  0.00     0.280 HD
HETATM   27  C   UNL     1      18.384  49.542  44.990  1.00  0.00     0.246 C 
HETATM   28  C   UNL     1      18.542  48.219  44.213  1.00  0.00     0.062 C 
HETATM   29  C   UNL     1      17.239  47.895  43.490  1.00  0.00     0.020 C 
HETATM   30  C   UNL     1      18.952  47.069  45.113  1.00  0.00     0.020 A 
HETATM   31  C   UNL     1      16.175  47.666  44.552  1.00  0.00     0.031 C 
HETATM   32  C   UNL     1      16.545  46.437  45.384  1.00  0.00     0.138 C 
HETATM   33  C   UNL     1      15.953  48.930  45.390  1.00  0.00     0.241 C 
HETATM   34  N   UNL     1      17.962  46.286  45.712  1.00  0.00    -0.317 N 
HETATM   35  C   UNL     1      18.269  45.220  46.573  1.00  0.00     0.247 A 
HETATM   36  O   UNL     1      17.423  44.522  47.125  1.00  0.00    -0.268 OA
HETATM   37  C   UNL     1      19.708  44.969  46.826  1.00  0.00     0.074 A 
HETATM   38  C   UNL     1      20.633  45.729  46.232  1.00  0.00     0.007 A 
HETATM   39  C   UNL     1      20.249  46.802  45.351  1.00  0.00     0.026 A 
ENDBRANCH  24  25
ENDBRANCH   2  24
BRANCH   1  40
HETATM   40  O   UNL     1      17.631  51.879  47.794  1.00  0.00    -0.351 OA
BRANCH  40  41
HETATM   41  C   UNL     1      16.940  52.497  48.888  1.00  0.00     0.171 C 
HETATM   42  C   UNL     1      15.546  51.901  48.949  1.00  0.00     0.034 C 
ENDBRANCH  40  41
ENDBRANCH   1  40
TORSDOF 8
ENDMDL
MODEL 8
REMARK VINA RESULT:      -8.6      4.091     11.461
REMARK  8 active torsions:
REMARK  status: ('A' for Active; 'I' for Inactive)
REMARK    1  A    between atoms: C_2  and  O_3 
REMARK    2  A    between atoms: O_3  and  C_4 
REMARK    3  A    between atoms: C_5  and  C_6 
REMARK    4  A    between atoms: C_6  and  N_7 
REMARK    5  A    between atoms: C_23  and  C_24 
REMARK    6  A    between atoms: N_25  and  N_26 
REMARK       I    between atoms: N_26  and  C_27 
REMARK    7  A    between atoms: C_27  and  C_28 
REMARK    8  A    between atoms: C_31  and  N_32 
REMARK       I    between atoms: N_32  and  C_33 
ROOT
HETATM    1  C   UNL     1      27.567  43.618  51.961  1.00  0.00     0.076 A 
HETATM    2  C   UNL     1      27.005  43.226  50.733  1.00  0.00     0.002 A 
HETATM    3  C   UNL     1      25.898  43.922  50.227  1.00  0.00     0.024 A 
HETATM    4  C   UNL     1      25.358  45.003  50.926  1.00  0.00    -0.016 A 
HETATM    5  C   UNL     1      25.900  45.378  52.153  1.00  0.00     0.016 A 
HETATM    6  C   UNL     1      27.003  44.684  52.670  1.00  0.00     0.038 A 
ENDROOT
BRANCH   4   7
HETATM    7  C   UNL     1      24.240  45.776  50.341  1.00  0.00     0.150 C 
HETATM    8  N   UNL     1      24.344  47.060  50.223  1.00  0.00    -0.184 NA
BRANCH   8   9
HETATM    9  N   UNL     1      23.318  47.780  49.679  1.00  0.00    -0.243 N 
HETATM   10  C   UNL     1      23.375  49.081  49.196  1.00  0.00     0.271 C 
HETATM   11  O   UNL     1      24.371  49.796  49.160  1.00  0.00    -0.266 OA
HETATM   12  H   UNL     1      22.406  47.399  49.913  1.00  0.00     0.192 HD
BRANCH  10  13
HETATM   13  C   UNL     1      22.067  49.631  48.737  1.00  0.00     0.033 A 
HETATM   14  C   UNL     1      21.097  48.827  48.126  1.00  0.00     0.019 A 
HETATM   15  C   UNL     1      19.873  49.376  47.727  1.00  0.00     0.030 A 
HETATM   16  C   UNL     1      19.605  50.733  47.919  1.00  0.00     0.034 A 
HETATM   17  C   UNL     1      20.588  51.540  48.504  1.00  0.00     0.030 A 
HETATM   18  C   UNL     1      21.813  50.996  48.908  1.00  0.00     0.019 A 
BRANCH  16  19
HETATM   19  N   UNL     1      18.395  51.355  47.548  1.00  0.00    -0.328 N 
HETATM   20  C   UNL     1      17.194  51.335  48.236  1.00  0.00     0.218 C 
HETATM   21  C   UNL     1      16.115  52.112  47.525  1.00  0.00     0.117 C 
HETATM   22  O   UNL     1      16.975  50.800  49.317  1.00  0.00    -0.274 OA
HETATM   23  H   UNL     1      18.416  51.894  46.690  1.00  0.00     0.169 HD
ENDBRANCH  16  19
ENDBRANCH  10  13
ENDBRANCH   8   9
ENDBRANCH   4   7
BRANCH   2  24
HETATM   24  C   UNL     1      27.581  42.089  49.932  1.00  0.00     0.276 C 
BRANCH  24  25
HETATM   25  N   UNL     1      27.546  40.751  50.649  1.00  0.00    -0.066 N 
HETATM   26  H   UNL     1      27.665  41.069  51.624  1.00  0.00     0.280 HD
HETATM   27  C   UNL     1      26.193  40.073  50.606  1.00  0.00     0.246 C 
HETATM   28  C   UNL     1      26.048  39.072  49.441  1.00  0.00     0.062 C 
HETATM   29  C   UNL     1      27.173  38.045  49.511  1.00  0.00     0.020 C 
HETATM   30  C   UNL     1      26.035  39.759  48.089  1.00  0.00     0.020 A 
HETATM   31  C   UNL     1      28.482  38.790  49.298  1.00  0.00     0.031 C 
HETATM   32  C   UNL     1      28.503  39.386  47.891  1.00  0.00     0.138 C 
HETATM   33  C   UNL     1      28.712  39.824  50.406  1.00  0.00     0.241 C 
HETATM   34  N   UNL     1      27.243  39.955  47.414  1.00  0.00    -0.317 N 
HETATM   35  C   UNL     1      27.308  40.601  46.169  1.00  0.00     0.247 A 
HETATM   36  O   UNL     1      28.353  40.802  45.557  1.00  0.00    -0.268 OA
HETATM   37  C   UNL     1      26.023  41.081  45.606  1.00  0.00     0.074 A 
HETATM   38  C   UNL     1      24.883  40.872  46.272  1.00  0.00     0.007 A 
HETATM   39  C   UNL     1      24.886  40.191  47.541  1.00  0.00     0.026 A 
ENDBRANCH  24  25
ENDBRANCH   2  24
BRANCH   1  40
HETATM   40  O   UNL     1      28.685  42.917  52.338  1.00  0.00    -0.351 OA
BRANCH  40  41
HETATM   41  C   UNL     1      28.819  42.626  53.735  1.00  0.00     0.171 C 
HETATM   42  C   UNL     1      30.210  43.054  54.165  1.00  0.00     0.034 C 
ENDBRANCH  40  41
ENDBRANCH   1  40
TORSDOF 8
ENDMDL
MODEL 9
REMARK VINA RESULT:      -8.4      6.635      9.570
REMARK  8 active torsions:
REMARK  status: ('A' for Active; 'I' for Inactive)
REMARK    1  A    between atoms: C_2  and  O_3 
REMARK    2  A    between atoms: O_3  and  C_4 
REMARK    3  A    between atoms: C_5  and  C_6 
REMARK    4  A    between atoms: C_6  and  N_7 
REMARK    5  A    between atoms: C_23  and  C_24 
REMARK    6  A    between atoms: N_25  and  N_26 
REMARK       I    between atoms: N_26  and  C_27 
REMARK    7  A    between atoms: C_27  and  C_28 
REMARK    8  A    between atoms: C_31  and  N_32 
REMARK       I    between atoms: N_32  and  C_33 
ROOT
HETATM    1  C   UNL     1      22.908  41.002  47.049  1.00  0.00     0.076 A 
HETATM    2  C   UNL     1      24.154  40.402  47.300  1.00  0.00     0.002 A 
HETATM    3  C   UNL     1      24.940  40.862  48.366  1.00  0.00     0.024 A 
HETATM    4  C   UNL     1      24.490  41.901  49.184  1.00  0.00    -0.016 A 
HETATM    5  C   UNL     1      23.265  42.510  48.922  1.00  0.00     0.016 A 
HETATM    6  C   UNL     1      22.475  42.062  47.855  1.00  0.00     0.038 A 
ENDROOT
BRANCH   4   7
HETATM    7  C   UNL     1      25.294  42.320  50.352  1.00  0.00     0.150 C 
HETATM    8  N   UNL     1      26.421  42.927  50.167  1.00  0.00    -0.184 NA
BRANCH   8   9
HETATM    9  N   UNL     1      27.168  43.322  51.240  1.00  0.00    -0.243 N 
HETATM   10  C   UNL     1      28.038  42.538  51.987  1.00  0.00     0.271 C 
HETATM   11  O   UNL     1      28.296  41.355  51.789  1.00  0.00    -0.266 OA
HETATM   12  H   UNL     1      26.829  44.184  51.658  1.00  0.00     0.192 HD
BRANCH  10  13
HETATM   13  C   UNL     1      28.652  43.231  53.157  1.00  0.00     0.033 A 
HETATM   14  C   UNL     1      28.093  44.389  53.709  1.00  0.00     0.019 A 
HETATM   15  C   UNL     1      28.687  45.000  54.820  1.00  0.00     0.030 A 
HETATM   16  C   UNL     1      29.850  44.472  55.387  1.00  0.00     0.034 A 
HETATM   17  C   UNL     1      30.421  43.328  54.814  1.00  0.00     0.030 A 
HETATM   18  C   UNL     1      29.829  42.712  53.705  1.00  0.00     0.019 A 
BRANCH  16  19
HETATM   19  N   UNL     1      30.500  45.028  56.507  1.00  0.00    -0.328 N 
HETATM   20  C   UNL     1      29.932  45.779  57.521  1.00  0.00     0.218 C 
HETATM   21  C   UNL     1      30.946  46.208  58.552  1.00  0.00     0.117 C 
HETATM   22  O   UNL     1      28.747  46.069  57.647  1.00  0.00    -0.274 OA
HETATM   23  H   UNL     1      31.491  44.835  56.588  1.00  0.00     0.169 HD
ENDBRANCH  16  19
ENDBRANCH  10  13
ENDBRANCH   8   9
ENDBRANCH   4   7
BRANCH   2  24
HETATM   24  C   UNL     1      24.658  39.257  46.463  1.00  0.00     0.276 C 
BRANCH  24  25
HETATM   25  N   UNL     1      24.994  39.639  45.033  1.00  0.00    -0.066 N 
HETATM   26  H   UNL     1      24.047  39.852  44.679  1.00  0.00     0.280 HD
HETATM   27  C   UNL     1      25.770  40.933  44.915  1.00  0.00     0.246 C 
HETATM   28  C   UNL     1      27.298  40.727  44.862  1.00  0.00     0.062 C 
HETATM   29  C   UNL     1      27.642  39.776  43.721  1.00  0.00     0.020 C 
HETATM   30  C   UNL     1      27.855  40.209  46.174  1.00  0.00     0.020 A 
HETATM   31  C   UNL     1      27.021  38.427  44.049  1.00  0.00     0.031 C 
HETATM   32  C   UNL     1      27.669  37.865  45.315  1.00  0.00     0.138 C 
HETATM   33  C   UNL     1      25.494  38.532  44.137  1.00  0.00     0.241 C 
HETATM   34  N   UNL     1      27.947  38.830  46.378  1.00  0.00    -0.317 N 
HETATM   35  C   UNL     1      28.434  38.281  47.576  1.00  0.00     0.247 A 
HETATM   36  O   UNL     1      28.515  37.076  47.792  1.00  0.00    -0.268 OA
HETATM   37  C   UNL     1      28.838  39.245  48.627  1.00  0.00     0.074 A 
HETATM   38  C   UNL     1      28.746  40.559  48.400  1.00  0.00     0.007 A 
HETATM   39  C   UNL     1      28.248  41.055  47.143  1.00  0.00     0.026 A 
ENDBRANCH  24  25
ENDBRANCH   2  24
BRANCH   1  40
HETATM   40  O   UNL     1      22.187  40.439  46.025  1.00  0.00    -0.351 OA
BRANCH  40  41
HETATM   41  C   UNL     1      20.800  40.184  46.280  1.00  0.00     0.171 C 
HETATM   42  C   UNL     1      20.708  38.896  47.079  1.00  0.00     0.034 C 
ENDBRANCH  40  41
ENDBRANCH   1  40
TORSDOF 8
ENDMDL
MODEL 10
REMARK VINA RESULT:      -8.2      2.493      3.158
REMARK  8 active torsions:
REMARK  status: ('A' for Active; 'I' for Inactive)
REMARK    1  A    between atoms: C_2  and  O_3 
REMARK    2  A    between atoms: O_3  and  C_4 
REMARK    3  A    between atoms: C_5  and  C_6 
REMARK    4  A    between atoms: C_6  and  N_7 
REMARK    5  A    between atoms: C_23  and  C_24 
REMARK    6  A    between atoms: N_25  and  N_26 
REMARK       I    between atoms: N_26  and  C_27 
REMARK    7  A    between atoms: C_27  and  C_28 
REMARK    8  A    between atoms: C_31  and  N_32 
REMARK       I    between atoms: N_32  and  C_33 
ROOT
HETATM    1  C   UNL     1      21.437  49.761  48.122  1.00  0.00     0.076 A 
HETATM    2  C   UNL     1      20.755  48.532  48.132  1.00  0.00     0.002 A 
HETATM    3  C   UNL     1      21.462  47.351  48.402  1.00  0.00     0.024 A 
HETATM    4  C   UNL     1      22.832  47.390  48.670  1.00  0.00    -0.016 A 
HETATM    5  C   UNL     1      23.513  48.605  48.637  1.00  0.00     0.016 A 
HETATM    6  C   UNL     1      22.816  49.789  48.362  1.00  0.00     0.038 A 
ENDROOT
BRANCH   4   7
HETATM    7  C   UNL     1      23.548  46.147  49.031  1.00  0.00     0.150 C 
HETATM    8  N   UNL     1      24.763  46.214  49.471  1.00  0.00    -0.184 NA
BRANCH   8   9
HETATM    9  N   UNL     1      25.429  45.070  49.811  1.00  0.00    -0.243 N 
HETATM   10  C   UNL     1      25.195  44.265  50.918  1.00  0.00     0.271 C 
HETATM   11  O   UNL     1      24.329  44.440  51.769  1.00  0.00    -0.266 OA
HETATM   12  H   UNL     1      26.328  44.987  49.344  1.00  0.00     0.192 HD
BRANCH  10  13
HETATM   13  C   UNL     1      26.143  43.123  51.068  1.00  0.00     0.033 A 
HETATM   14  C   UNL     1      27.447  43.300  51.547  1.00  0.00     0.019 A 
HETATM   15  C   UNL     1      28.301  42.200  51.693  1.00  0.00     0.030 A 
HETATM   16  C   UNL     1      27.872  40.915  51.353  1.00  0.00     0.034 A 
HETATM   17  C   UNL     1      26.577  40.747  50.848  1.00  0.00     0.030 A 
HETATM   18  C   UNL     1      25.718  41.842  50.703  1.00  0.00     0.019 A 
BRANCH  16  19
HETATM   19  N   UNL     1      28.674  39.762  51.478  1.00  0.00    -0.328 N 
HETATM   20  C   UNL     1      29.200  38.989  50.458  1.00  0.00     0.218 C 
HETATM   21  C   UNL     1      30.006  37.826  50.979  1.00  0.00     0.117 C 
HETATM   22  O   UNL     1      29.094  39.190  49.254  1.00  0.00    -0.274 OA
HETATM   23  H   UNL     1      28.906  39.482  52.424  1.00  0.00     0.169 HD
ENDBRANCH  16  19
ENDBRANCH  10  13
ENDBRANCH   8   9
ENDBRANCH   4   7
BRANCH   2  24
HETATM   24  C   UNL     1      19.272  48.453  47.884  1.00  0.00     0.276 C 
BRANCH  24  25
HETATM   25  N   UNL     1      18.836  47.199  47.147  1.00  0.00    -0.066 N 
HETATM   26  H   UNL     1      19.394  46.493  47.654  1.00  0.00     0.280 HD
HETATM   27  C   UNL     1      17.390  46.823  47.392  1.00  0.00     0.246 C 
HETATM   28  C   UNL     1      16.425  47.379  46.324  1.00  0.00     0.062 C 
HETATM   29  C   UNL     1      16.883  46.927  44.941  1.00  0.00     0.020 C 
HETATM   30  C   UNL     1      16.312  48.890  46.381  1.00  0.00     0.020 A 
HETATM   31  C   UNL     1      18.243  47.556  44.684  1.00  0.00     0.031 C 
HETATM   32  C   UNL     1      18.097  49.077  44.635  1.00  0.00     0.138 C 
HETATM   33  C   UNL     1      19.275  47.072  45.709  1.00  0.00     0.241 C 
HETATM   34  N   UNL     1      17.182  49.668  45.611  1.00  0.00    -0.317 N 
HETATM   35  C   UNL     1      17.147  51.071  45.631  1.00  0.00     0.247 A 
HETATM   36  O   UNL     1      17.906  51.783  44.978  1.00  0.00    -0.268 OA
HETATM   37  C   UNL     1      16.142  51.694  46.524  1.00  0.00     0.074 A 
HETATM   38  C   UNL     1      15.318  50.925  47.242  1.00  0.00     0.007 A 
HETATM   39  C   UNL     1      15.400  49.489  47.167  1.00  0.00     0.026 A 
ENDBRANCH  24  25
ENDBRANCH   2  24
BRANCH   1  40
HETATM   40  O   UNL     1      20.646  50.863  47.911  1.00  0.00    -0.351 OA
BRANCH  40  41
HETATM   41  C   UNL     1      20.259  51.607  49.073  1.00  0.00     0.171 C 
HETATM   42  C   UNL     1      18.936  52.286  48.767  1.00  0.00     0.034 C 
ENDBRANCH  40  41
ENDBRANCH   1  40
TORSDOF 8
ENDMDL
