MODEL 1
REMARK VINA RESULT:     -10.0      0.000      0.000
REMARK  5 active torsions:
REMARK  status: ('A' for Active; 'I' for Inactive)
REMARK    1  A    between atoms: C_5  and  C_6 
REMARK    2  A    between atoms: C_11  and  C_12 
REMARK    3  A    between atoms: C_12  and  N_13 
REMARK    4  A    between atoms: N_13  and  C_15 
REMARK    5  A    between atoms: N_18  and  C_19 
ROOT
HETATM    1  N   UNL     1      26.178  44.425  51.924  1.00  0.00    -0.067 N 
HETATM    2  H   UNL     1      26.060  45.435  51.759  1.00  0.00     0.280 HD
HETATM    3  C   UNL     1      24.837  43.826  51.630  1.00  0.00     0.270 C 
ENDROOT
BRANCH   1   4
HETATM    4  C   UNL     1      26.506  44.371  53.423  1.00  0.00     0.277 C 
BRANCH   4   5
HETATM    5  C   UNL     1      26.609  45.725  54.032  1.00  0.00     0.016 A 
HETATM    6  C   UNL     1      27.617  46.197  54.932  1.00  0.00     0.096 A 
HETATM    7  N   UNL     1      27.421  47.483  55.238  1.00  0.00    -0.174 NA
HETATM    8  N   UNL     1      26.340  47.852  54.549  1.00  0.00    -0.288 N 
HETATM    9  H   UNL     1      26.033  48.820  54.619  1.00  0.00     0.188 HD
HETATM   10  C   UNL     1      25.802  46.830  53.818  1.00  0.00     0.120 A 
BRANCH   6  11
HETATM   11  C   UNL     1      28.762  45.482  55.482  1.00  0.00    -0.005 A 
HETATM   12  C   UNL     1      29.287  44.357  54.837  1.00  0.00     0.014 A 
HETATM   13  C   UNL     1      30.376  43.674  55.390  1.00  0.00     0.007 A 
HETATM   14  C   UNL     1      30.938  44.097  56.601  1.00  0.00    -0.062 A 
HETATM   15  C   UNL     1      32.104  43.366  57.202  1.00  0.00     0.048 C 
HETATM   16  C   UNL     1      30.415  45.228  57.238  1.00  0.00     0.007 A 
HETATM   17  C   UNL     1      29.329  45.910  56.688  1.00  0.00     0.014 A 
ENDBRANCH   6  11
ENDBRANCH   4   5
ENDBRANCH   1   4
BRANCH   1  18
HETATM   18  C   UNL     1      27.346  43.980  51.035  1.00  0.00     0.190 C 
HETATM   19  C   UNL     1      28.397  43.144  51.780  1.00  0.00     0.048 C 
HETATM   20  C   UNL     1      28.264  41.636  51.593  1.00  0.00     0.099 C 
HETATM   21  N   UNL     1      28.083  41.354  50.167  1.00  0.00    -0.268 NA
HETATM   22  C   UNL     1      26.821  41.874  49.632  1.00  0.00     0.099 C 
HETATM   23  C   UNL     1      26.848  43.398  49.705  1.00  0.00     0.048 C 
BRANCH  21  24
HETATM   24  C   UNL     1      28.374  40.032  49.790  1.00  0.00     0.109 A 
HETATM   25  N   UNL     1      28.984  39.205  50.657  1.00  0.00    -0.224 NA
HETATM   26  C   UNL     1      29.175  37.916  50.281  1.00  0.00     0.102 A 
HETATM   27  C   UNL     1      29.830  36.976  51.244  1.00  0.00     0.091 C 
HETATM   28  N   UNL     1      28.782  37.428  49.096  1.00  0.00    -0.348 N 
HETATM   29  H   UNL     1      28.942  36.444  48.884  1.00  0.00     0.167 HD
HETATM   30  C   UNL     1      28.170  38.229  48.211  1.00  0.00     0.009 A 
HETATM   31  C   UNL     1      27.715  37.658  46.906  1.00  0.00     0.068 C 
HETATM   32  C   UNL     1      27.954  39.566  48.549  1.00  0.00     0.069 A 
ENDBRANCH  21  24
ENDBRANCH   1  18
TORSDOF 5
ENDMDL
MODEL 2
REMARK VINA RESULT:      -9.8      3.502      7.336
REMARK  5 active torsions:
REMARK  status: ('A' for Active; 'I' for Inactive)
REMARK    1  A    between atoms: C_5  and  C_6 
REMARK    2  A    between atoms: C_11  and  C_12 
REMARK    3  A    between atoms: C_12  and  N_13 
REMARK    4  A    between atoms: N_13  and  C_15 
REMARK    5  A    between atoms: N_18  and  C_19 
ROOT
HETATM    1  N   UNL     1      25.304  42.656  51.106  1.00  0.00    -0.067 N 
HETATM    2  H   UNL     1      25.271  42.063  51.948  1.00  0.00     0.280 HD
HETATM    3  C   UNL     1      24.921  41.747  49.978  1.00  0.00     0.270 C 
ENDROOT
BRANCH   1   4
HETATM    4  C   UNL     1      26.786  43.052  51.037  1.00  0.00     0.277 C 
BRANCH   4   5
HETATM    5  C   UNL     1      27.691  41.929  51.405  1.00  0.00     0.016 A 
HETATM    6  C   UNL     1      28.587  41.866  52.519  1.00  0.00     0.096 A 
HETATM    7  N   UNL     1      29.208  40.685  52.568  1.00  0.00    -0.174 NA
HETATM    8  N   UNL     1      28.725  39.986  51.541  1.00  0.00    -0.288 N 
HETATM    9  H   UNL     1      29.052  39.030  51.413  1.00  0.00     0.188 HD
HETATM   10  C   UNL     1      27.819  40.691  50.798  1.00  0.00     0.120 A 
BRANCH   6  11
HETATM   11  C   UNL     1      28.848  42.871  53.543  1.00  0.00    -0.005 A 
HETATM   12  C   UNL     1      27.875  43.815  53.890  1.00  0.00     0.014 A 
HETATM   13  C   UNL     1      28.151  44.782  54.863  1.00  0.00     0.007 A 
HETATM   14  C   UNL     1      29.405  44.827  55.485  1.00  0.00    -0.062 A 
HETATM   15  C   UNL     1      29.710  45.865  56.526  1.00  0.00     0.048 C 
HETATM   16  C   UNL     1      30.372  43.876  55.140  1.00  0.00     0.007 A 
HETATM   17  C   UNL     1      30.099  42.910  54.169  1.00  0.00     0.014 A 
ENDBRANCH   6  11
ENDBRANCH   4   5
ENDBRANCH   1   4
BRANCH   1  18
HETATM   18  C   UNL     1      24.376  43.845  51.384  1.00  0.00     0.190 C 
HETATM   19  C   UNL     1      25.086  45.034  52.047  1.00  0.00     0.048 C 
HETATM   20  C   UNL     1      25.495  46.150  51.091  1.00  0.00     0.099 C 
HETATM   21  N   UNL     1      24.360  46.460  50.219  1.00  0.00    -0.268 NA
HETATM   22  C   UNL     1      24.004  45.357  49.320  1.00  0.00     0.099 C 
HETATM   23  C   UNL     1      23.513  44.180  50.159  1.00  0.00     0.048 C 
BRANCH  21  24
HETATM   24  C   UNL     1      24.425  47.718  49.598  1.00  0.00     0.109 A 
HETATM   25  N   UNL     1      25.617  48.301  49.383  1.00  0.00    -0.224 NA
HETATM   26  C   UNL     1      25.640  49.478  48.710  1.00  0.00     0.102 A 
HETATM   27  C   UNL     1      26.962  50.127  48.441  1.00  0.00     0.091 C 
HETATM   28  N   UNL     1      24.538  50.083  48.246  1.00  0.00    -0.348 N 
HETATM   29  H   UNL     1      24.628  50.959  47.734  1.00  0.00     0.167 HD
HETATM   30  C   UNL     1      23.333  49.526  48.444  1.00  0.00     0.009 A 
HETATM   31  C   UNL     1      22.119  50.203  47.894  1.00  0.00     0.068 C 
HETATM   32  C   UNL     1      23.256  48.316  49.136  1.00  0.00     0.069 A 
ENDBRANCH  21  24
ENDBRANCH   1  18
TORSDOF 5
ENDMDL
MODEL 3
REMARK VINA RESULT:      -9.6      3.369      7.488
REMARK  5 active torsions:
REMARK  status: ('A' for Active; 'I' for Inactive)
REMARK    1  A    between atoms: C_5  and  C_6 
REMARK    2  A    between atoms: C_11  and  C_12 
REMARK    3  A    between atoms: C_12  and  N_13 
REMARK    4  A    between atoms: N_13  and  C_15 
REMARK    5  A    between atoms: N_18  and  C_19 
ROOT
HETATM    1  N   UNL     1      25.403  42.424  50.838  1.00  0.00    -0.067 N 
HETATM    2  H   UNL     1      25.416  41.742  51.609  1.00  0.00     0.280 HD
HETATM    3  C   UNL     1      24.811  41.683  49.677  1.00  0.00     0.270 C 
ENDROOT
BRANCH   1   4
HETATM    4  C   UNL     1      26.895  42.712  50.624  1.00  0.00     0.277 C 
BRANCH   4   5
HETATM    5  C   UNL     1      27.758  41.570  51.032  1.00  0.00     0.016 A 
HETATM    6  C   UNL     1      28.605  41.490  52.183  1.00  0.00     0.096 A 
HETATM    7  N   UNL     1      29.197  40.295  52.260  1.00  0.00    -0.174 NA
HETATM    8  N   UNL     1      28.741  39.604  51.214  1.00  0.00    -0.288 N 
HETATM    9  H   UNL     1      29.051  38.641  51.103  1.00  0.00     0.188 HD
HETATM   10  C   UNL     1      27.883  40.327  50.433  1.00  0.00     0.120 A 
BRANCH   6  11
HETATM   11  C   UNL     1      28.846  42.492  53.214  1.00  0.00    -0.005 A 
HETATM   12  C   UNL     1      27.785  43.183  53.809  1.00  0.00     0.014 A 
HETATM   13  C   UNL     1      28.038  44.153  54.785  1.00  0.00     0.007 A 
HETATM   14  C   UNL     1      29.353  44.454  55.163  1.00  0.00    -0.062 A 
HETATM   15  C   UNL     1      29.632  45.497  56.207  1.00  0.00     0.048 C 
HETATM   16  C   UNL     1      30.410  43.754  54.572  1.00  0.00     0.007 A 
HETATM   17  C   UNL     1      30.159  42.786  53.598  1.00  0.00     0.014 A 
ENDBRANCH   6  11
ENDBRANCH   4   5
ENDBRANCH   1   4
BRANCH   1  18
HETATM   18  C   UNL     1      24.623  43.640  51.354  1.00  0.00     0.190 C 
HETATM   19  C   UNL     1      25.525  44.778  51.851  1.00  0.00     0.048 C 
HETATM   20  C   UNL     1      25.744  45.906  50.848  1.00  0.00     0.099 C 
HETATM   21  N   UNL     1      24.449  46.288  50.280  1.00  0.00    -0.268 NA
HETATM   22  C   UNL     1      23.839  45.228  49.471  1.00  0.00     0.099 C 
HETATM   23  C   UNL     1      23.509  44.046  50.378  1.00  0.00     0.048 C 
BRANCH  21  24
HETATM   24  C   UNL     1      24.421  47.561  49.688  1.00  0.00     0.109 A 
HETATM   25  N   UNL     1      23.259  48.228  49.582  1.00  0.00    -0.224 NA
HETATM   26  C   UNL     1      23.289  49.486  49.076  1.00  0.00     0.102 A 
HETATM   27  C   UNL     1      22.006  50.250  48.974  1.00  0.00     0.091 C 
HETATM   28  N   UNL     1      24.416  50.095  48.685  1.00  0.00    -0.348 N 
HETATM   29  H   UNL     1      24.369  51.049  48.329  1.00  0.00     0.167 HD
HETATM   30  C   UNL     1      25.592  49.457  48.779  1.00  0.00     0.009 A 
HETATM   31  C   UNL     1      26.841  50.165  48.363  1.00  0.00     0.068 C 
HETATM   32  C   UNL     1      25.613  48.157  49.289  1.00  0.00     0.069 A 
ENDBRANCH  21  24
ENDBRANCH   1  18
TORSDOF 5
ENDMDL
MODEL 4
REMARK VINA RESULT:      -9.4      3.164      6.075
REMARK  5 active torsions:
REMARK  status: ('A' for Active; 'I' for Inactive)
REMARK    1  A    between atoms: C_5  and  C_6 
REMARK    2  A    between atoms: C_11  and  C_12 
REMARK    3  A    between atoms: C_12  and  N_13 
REMARK    4  A    between atoms: N_13  and  C_15 
REMARK    5  A    between atoms: N_18  and  C_19 
ROOT
HETATM    1  N   UNL     1      26.780  42.857  51.883  1.00  0.00    -0.067 N 
HETATM    2  H   UNL     1      26.086  42.972  52.637  1.00  0.00     0.280 HD
HETATM    3  C   UNL     1      27.556  41.630  52.256  1.00  0.00     0.270 C 
ENDROOT
BRANCH   1   4
HETATM    4  C   UNL     1      27.631  44.128  52.020  1.00  0.00     0.277 C 
BRANCH   4   5
HETATM    5  C   UNL     1      27.055  45.095  52.993  1.00  0.00     0.016 A 
HETATM    6  C   UNL     1      27.564  45.428  54.289  1.00  0.00     0.096 A 
HETATM    7  N   UNL     1      26.818  46.374  54.867  1.00  0.00    -0.174 NA
HETATM    8  N   UNL     1      25.869  46.672  53.979  1.00  0.00    -0.288 N 
HETATM    9  H   UNL     1      25.203  47.404  54.215  1.00  0.00     0.188 HD
HETATM   10  C   UNL     1      25.955  45.922  52.839  1.00  0.00     0.120 A 
BRANCH   6  11
HETATM   11  C   UNL     1      28.737  44.902  54.976  1.00  0.00    -0.005 A 
HETATM   12  C   UNL     1      29.271  43.654  54.637  1.00  0.00     0.014 A 
HETATM   13  C   UNL     1      30.388  43.159  55.320  1.00  0.00     0.007 A 
HETATM   14  C   UNL     1      30.969  43.897  56.359  1.00  0.00    -0.062 A 
HETATM   15  C   UNL     1      32.165  43.369  57.099  1.00  0.00     0.048 C 
HETATM   16  C   UNL     1      30.437  45.148  56.689  1.00  0.00     0.007 A 
HETATM   17  C   UNL     1      29.323  45.643  56.009  1.00  0.00     0.014 A 
ENDBRANCH   6  11
ENDBRANCH   4   5
ENDBRANCH   1   4
BRANCH   1  18
HETATM   18  C   UNL     1      25.984  42.803  50.574  1.00  0.00     0.190 C 
HETATM   19  C   UNL     1      24.463  42.786  50.782  1.00  0.00     0.048 C 
HETATM   20  C   UNL     1      23.779  44.140  50.621  1.00  0.00     0.099 C 
HETATM   21  N   UNL     1      24.272  44.772  49.394  1.00  0.00    -0.268 NA
HETATM   22  C   UNL     1      25.697  45.116  49.454  1.00  0.00     0.099 C 
HETATM   23  C   UNL     1      26.509  43.828  49.557  1.00  0.00     0.048 C 
BRANCH  21  24
HETATM   24  C   UNL     1      23.449  45.791  48.888  1.00  0.00     0.109 A 
HETATM   25  N   UNL     1      23.609  47.057  49.312  1.00  0.00    -0.224 NA
HETATM   26  C   UNL     1      22.846  48.022  48.740  1.00  0.00     0.102 A 
HETATM   27  C   UNL     1      23.030  49.439  49.183  1.00  0.00     0.091 C 
HETATM   28  N   UNL     1      21.951  47.776  47.773  1.00  0.00    -0.348 N 
HETATM   29  H   UNL     1      21.423  48.551  47.375  1.00  0.00     0.167 HD
HETATM   30  C   UNL     1      21.769  46.524  47.329  1.00  0.00     0.009 A 
HETATM   31  C   UNL     1      20.785  46.276  46.231  1.00  0.00     0.068 C 
HETATM   32  C   UNL     1      22.527  45.494  47.890  1.00  0.00     0.069 A 
ENDBRANCH  21  24
ENDBRANCH   1  18
TORSDOF 5
ENDMDL
MODEL 5
REMARK VINA RESULT:      -9.4      4.103      7.690
REMARK  5 active torsions:
REMARK  status: ('A' for Active; 'I' for Inactive)
REMARK    1  A    between atoms: C_5  and  C_6 
REMARK    2  A    between atoms: C_11  and  C_12 
REMARK    3  A    between atoms: C_12  and  N_13 
REMARK    4  A    between atoms: N_13  and  C_15 
REMARK    5  A    between atoms: N_18  and  C_19 
ROOT
HETATM    1  N   UNL     1      26.599  44.951  51.206  1.00  0.00    -0.067 N 
HETATM    2  H   UNL     1      26.871  45.738  51.813  1.00  0.00     0.280 HD
HETATM    3  C   UNL     1      25.531  44.227  51.969  1.00  0.00     0.270 C 
ENDROOT
BRANCH   1   4
HETATM    4  C   UNL     1      27.894  44.129  51.129  1.00  0.00     0.277 C 
BRANCH   4   5
HETATM    5  C   UNL     1      27.778  42.819  51.825  1.00  0.00     0.016 A 
HETATM    6  C   UNL     1      28.161  42.514  53.170  1.00  0.00     0.096 A 
HETATM    7  N   UNL     1      27.867  41.248  53.476  1.00  0.00    -0.174 NA
HETATM    8  N   UNL     1      27.291  40.742  52.385  1.00  0.00    -0.288 N 
HETATM    9  H   UNL     1      26.959  39.781  52.419  1.00  0.00     0.188 HD
HETATM   10  C   UNL     1      27.224  41.640  51.356  1.00  0.00     0.120 A 
BRANCH   6  11
HETATM   11  C   UNL     1      28.766  43.386  54.170  1.00  0.00    -0.005 A 
HETATM   12  C   UNL     1      30.045  43.126  54.674  1.00  0.00     0.014 A 
HETATM   13  C   UNL     1      30.600  43.965  55.646  1.00  0.00     0.007 A 
HETATM   14  C   UNL     1      29.878  45.060  56.137  1.00  0.00    -0.062 A 
HETATM   15  C   UNL     1      30.466  45.961  57.184  1.00  0.00     0.048 C 
HETATM   16  C   UNL     1      28.602  45.320  55.624  1.00  0.00     0.007 A 
HETATM   17  C   UNL     1      28.046  44.484  54.654  1.00  0.00     0.014 A 
ENDBRANCH   6  11
ENDBRANCH   4   5
ENDBRANCH   1   4
BRANCH   1  18
HETATM   18  C   UNL     1      26.195  45.566  49.861  1.00  0.00     0.190 C 
HETATM   19  C   UNL     1      25.019  44.844  49.188  1.00  0.00     0.048 C 
HETATM   20  C   UNL     1      23.659  45.506  49.392  1.00  0.00     0.099 C 
HETATM   21  N   UNL     1      23.793  46.941  49.130  1.00  0.00    -0.268 NA
HETATM   22  C   UNL     1      24.653  47.627  50.099  1.00  0.00     0.099 C 
HETATM   23  C   UNL     1      26.076  47.093  49.957  1.00  0.00     0.048 C 
BRANCH  21  24
HETATM   24  C   UNL     1      22.584  47.602  48.856  1.00  0.00     0.109 A 
HETATM   25  N   UNL     1      21.465  46.890  48.633  1.00  0.00    -0.224 NA
HETATM   26  C   UNL     1      20.304  47.567  48.451  1.00  0.00     0.102 A 
HETATM   27  C   UNL     1      19.046  46.788  48.226  1.00  0.00     0.091 C 
HETATM   28  N   UNL     1      20.217  48.904  48.489  1.00  0.00    -0.348 N 
HETATM   29  H   UNL     1      19.309  49.348  48.361  1.00  0.00     0.167 HD
HETATM   30  C   UNL     1      21.316  49.641  48.711  1.00  0.00     0.009 A 
HETATM   31  C   UNL     1      21.192  51.130  48.776  1.00  0.00     0.068 C 
HETATM   32  C   UNL     1      22.537  48.991  48.899  1.00  0.00     0.069 A 
ENDBRANCH  21  24
ENDBRANCH   1  18
TORSDOF 5
ENDMDL
MODEL 6
REMARK VINA RESULT:      -9.2      3.784      7.172
REMARK  5 active torsions:
REMARK  status: ('A' for Active; 'I' for Inactive)
REMARK    1  A    between atoms: C_5  and  C_6 
REMARK    2  A    between atoms: C_11  and  C_12 
REMARK    3  A    between atoms: C_12  and  N_13 
REMARK    4  A    between atoms: N_13  and  C_15 
REMARK    5  A    between atoms: N_18  and  C_19 
ROOT
HETATM    1  N   UNL     1      26.581  45.334  52.619  1.00  0.00    -0.067 N 
HETATM    2  H   UNL     1      27.562  45.604  52.781  1.00  0.00     0.280 HD
HETATM    3  C   UNL     1      25.775  46.291  53.445  1.00  0.00     0.270 C 
ENDROOT
BRANCH   1   4
HETATM    4  C   UNL     1      26.530  43.910  53.193  1.00  0.00     0.277 C 
BRANCH   4   5
HETATM    5  C   UNL     1      27.734  43.111  52.836  1.00  0.00     0.016 A 
HETATM    6  C   UNL     1      28.990  43.080  53.522  1.00  0.00     0.096 A 
HETATM    7  N   UNL     1      29.826  42.210  52.949  1.00  0.00    -0.174 NA
HETATM    8  N   UNL     1      29.143  41.671  51.939  1.00  0.00    -0.288 N 
HETATM    9  H   UNL     1      29.597  40.950  51.383  1.00  0.00     0.188 HD
HETATM   10  C   UNL     1      27.883  42.186  51.816  1.00  0.00     0.120 A 
BRANCH   6  11
HETATM   11  C   UNL     1      29.405  43.821  54.707  1.00  0.00    -0.005 A 
HETATM   12  C   UNL     1      28.725  44.975  55.110  1.00  0.00     0.014 A 
HETATM   13  C   UNL     1      29.150  45.682  56.240  1.00  0.00     0.007 A 
HETATM   14  C   UNL     1      30.267  45.253  56.967  1.00  0.00    -0.062 A 
HETATM   15  C   UNL     1      30.732  46.010  58.178  1.00  0.00     0.048 C 
HETATM   16  C   UNL     1      30.940  44.094  56.564  1.00  0.00     0.007 A 
HETATM   17  C   UNL     1      30.517  43.388  55.437  1.00  0.00     0.014 A 
ENDBRANCH   6  11
ENDBRANCH   4   5
ENDBRANCH   1   4
BRANCH   1  18
HETATM   18  C   UNL     1      26.369  45.379  51.101  1.00  0.00     0.190 C 
HETATM   19  C   UNL     1      25.137  44.592  50.632  1.00  0.00     0.048 C 
HETATM   20  C   UNL     1      23.893  45.440  50.382  1.00  0.00     0.099 C 
HETATM   21  N   UNL     1      24.275  46.609  49.586  1.00  0.00    -0.268 NA
HETATM   22  C   UNL     1      25.172  47.524  50.298  1.00  0.00     0.099 C 
HETATM   23  C   UNL     1      26.495  46.810  50.561  1.00  0.00     0.048 C 
BRANCH  21  24
HETATM   24  C   UNL     1      23.209  47.238  48.921  1.00  0.00     0.109 A 
HETATM   25  N   UNL     1      23.058  48.571  49.005  1.00  0.00    -0.224 NA
HETATM   26  C   UNL     1      22.064  49.147  48.284  1.00  0.00     0.102 A 
HETATM   27  C   UNL     1      21.899  50.633  48.348  1.00  0.00     0.091 C 
HETATM   28  N   UNL     1      21.234  48.456  47.492  1.00  0.00    -0.348 N 
HETATM   29  H   UNL     1      20.518  48.954  46.964  1.00  0.00     0.167 HD
HETATM   30  C   UNL     1      21.359  47.124  47.386  1.00  0.00     0.009 A 
HETATM   31  C   UNL     1      20.440  46.376  46.476  1.00  0.00     0.068 C 
HETATM   32  C   UNL     1      22.365  46.484  48.113  1.00  0.00     0.069 A 
ENDBRANCH  21  24
ENDBRANCH   1  18
TORSDOF 5
ENDMDL
MODEL 7
REMARK VINA RESULT:      -9.2     12.549     15.408
REMARK  5 active torsions:
REMARK  status: ('A' for Active; 'I' for Inactive)
REMARK    1  A    between atoms: C_5  and  C_6 
REMARK    2  A    between atoms: C_11  and  C_12 
REMARK    3  A    between atoms: C_12  and  N_13 
REMARK    4  A    between atoms: N_13  and  C_15 
REMARK    5  A    between atoms: N_18  and  C_19 
ROOT
HETATM    1  N   UNL     1      28.685  47.488  39.263  1.00  0.00    -0.067 N 
HETATM    2  H   UNL     1      28.943  48.389  38.836  1.00  0.00     0.280 HD
HETATM    3  C   UNL     1      28.656  46.514  38.123  1.00  0.00     0.270 C 
ENDROOT
BRANCH   1   4
HETATM    4  C   UNL     1      27.276  47.767  39.804  1.00  0.00     0.277 C 
BRANCH   4   5
HETATM    5  C   UNL     1      26.521  48.727  38.952  1.00  0.00     0.016 A 
HETATM    6  C   UNL     1      26.778  50.124  38.782  1.00  0.00     0.096 A 
HETATM    7  N   UNL     1      25.929  50.663  37.903  1.00  0.00    -0.174 NA
HETATM    8  N   UNL     1      25.157  49.658  37.490  1.00  0.00    -0.288 N 
HETATM    9  H   UNL     1      24.451  49.853  36.784  1.00  0.00     0.188 HD
HETATM   10  C   UNL     1      25.459  48.472  38.100  1.00  0.00     0.120 A 
BRANCH   6  11
HETATM   11  C   UNL     1      27.810  50.948  39.400  1.00  0.00    -0.005 A 
HETATM   12  C   UNL     1      27.571  51.618  40.605  1.00  0.00     0.014 A 
HETATM   13  C   UNL     1      28.569  52.417  41.174  1.00  0.00     0.007 A 
HETATM   14  C   UNL     1      29.806  52.569  40.536  1.00  0.00    -0.062 A 
HETATM   15  C   UNL     1      30.880  53.429  41.139  1.00  0.00     0.048 C 
HETATM   16  C   UNL     1      30.043  51.891  39.335  1.00  0.00     0.007 A 
HETATM   17  C   UNL     1      29.049  51.093  38.767  1.00  0.00     0.014 A 
ENDBRANCH   6  11
ENDBRANCH   4   5
ENDBRANCH   1   4
BRANCH   1  18
HETATM   18  C   UNL     1      29.715  47.228  40.370  1.00  0.00     0.190 C 
HETATM   19  C   UNL     1      31.167  47.423  39.913  1.00  0.00     0.048 C 
HETATM   20  C   UNL     1      31.777  48.773  40.278  1.00  0.00     0.099 C 
HETATM   21  N   UNL     1      31.482  49.056  41.685  1.00  0.00    -0.268 NA
HETATM   22  C   UNL     1      30.053  49.248  41.948  1.00  0.00     0.099 C 
HETATM   23  C   UNL     1      29.323  47.935  41.675  1.00  0.00     0.048 C 
BRANCH  21  24
HETATM   24  C   UNL     1      32.317  50.019  42.276  1.00  0.00     0.109 A 
HETATM   25  N   UNL     1      31.889  50.714  43.344  1.00  0.00    -0.224 NA
HETATM   26  C   UNL     1      32.755  51.577  43.933  1.00  0.00     0.102 A 
HETATM   27  C   UNL     1      32.302  52.340  45.138  1.00  0.00     0.091 C 
HETATM   28  N   UNL     1      34.012  51.763  43.506  1.00  0.00    -0.348 N 
HETATM   29  H   UNL     1      34.615  52.415  44.005  1.00  0.00     0.167 HD
HETATM   30  C   UNL     1      34.468  51.083  42.444  1.00  0.00     0.009 A 
HETATM   31  C   UNL     1      35.882  51.286  42.002  1.00  0.00     0.068 C 
HETATM   32  C   UNL     1      33.613  50.187  41.800  1.00  0.00     0.069 A 
ENDBRANCH  21  24
ENDBRANCH   1  18
TORSDOF 5
ENDMDL
MODEL 8
REMARK VINA RESULT:      -9.1     13.123     15.432
REMARK  5 active torsions:
REMARK  status: ('A' for Active; 'I' for Inactive)
REMARK    1  A    between atoms: C_5  and  C_6 
REMARK    2  A    between atoms: C_11  and  C_12 
REMARK    3  A    between atoms: C_12  and  N_13 
REMARK    4  A    between atoms: N_13  and  C_15 
REMARK    5  A    between atoms: N_18  and  C_19 
ROOT
HETATM    1  N   UNL     1      32.880  50.501  42.150  1.00  0.00    -0.067 N 
HETATM    2  H   UNL     1      32.251  51.064  41.560  1.00  0.00     0.280 HD
HETATM    3  C   UNL     1      33.145  51.355  43.354  1.00  0.00     0.270 C 
ENDROOT
BRANCH   1   4
HETATM    4  C   UNL     1      34.129  50.364  41.268  1.00  0.00     0.277 C 
BRANCH   4   5
HETATM    5  C   UNL     1      34.445  51.618  40.531  1.00  0.00     0.016 A 
HETATM    6  C   UNL     1      33.554  52.399  39.728  1.00  0.00     0.096 A 
HETATM    7  N   UNL     1      34.167  53.489  39.256  1.00  0.00    -0.174 NA
HETATM    8  N   UNL     1      35.405  53.441  39.747  1.00  0.00    -0.288 N 
HETATM    9  H   UNL     1      36.038  54.207  39.528  1.00  0.00     0.188 HD
HETATM   10  C   UNL     1      35.632  52.329  40.509  1.00  0.00     0.120 A 
BRANCH   6  11
HETATM   11  C   UNL     1      32.149  52.161  39.421  1.00  0.00    -0.005 A 
HETATM   12  C   UNL     1      31.774  51.275  38.405  1.00  0.00     0.014 A 
HETATM   13  C   UNL     1      30.420  51.073  38.114  1.00  0.00     0.007 A 
HETATM   14  C   UNL     1      29.430  51.766  38.822  1.00  0.00    -0.062 A 
HETATM   15  C   UNL     1      27.976  51.557  38.512  1.00  0.00     0.048 C 
HETATM   16  C   UNL     1      29.810  52.644  39.843  1.00  0.00     0.007 A 
HETATM   17  C   UNL     1      31.160  52.847  40.134  1.00  0.00     0.014 A 
ENDBRANCH   6  11
ENDBRANCH   4   5
ENDBRANCH   1   4
BRANCH   1  18
HETATM   18  C   UNL     1      32.162  49.168  42.391  1.00  0.00     0.190 C 
HETATM   19  C   UNL     1      30.641  49.309  42.535  1.00  0.00     0.048 C 
HETATM   20  C   UNL     1      29.846  48.997  41.271  1.00  0.00     0.099 C 
HETATM   21  N   UNL     1      30.343  47.742  40.701  1.00  0.00    -0.268 NA
HETATM   22  C   UNL     1      31.725  47.834  40.220  1.00  0.00     0.099 C 
HETATM   23  C   UNL     1      32.644  48.088  41.411  1.00  0.00     0.048 C 
BRANCH  21  24
HETATM   24  C   UNL     1      29.458  47.111  39.812  1.00  0.00     0.109 A 
HETATM   25  N   UNL     1      29.456  45.771  39.705  1.00  0.00    -0.224 NA
HETATM   26  C   UNL     1      28.531  45.198  38.894  1.00  0.00     0.102 A 
HETATM   27  C   UNL     1      28.500  43.706  38.782  1.00  0.00     0.091 C 
HETATM   28  N   UNL     1      27.621  45.899  38.204  1.00  0.00    -0.348 N 
HETATM   29  H   UNL     1      26.944  45.403  37.626  1.00  0.00     0.167 HD
HETATM   30  C   UNL     1      27.598  47.237  38.291  1.00  0.00     0.009 A 
HETATM   31  C   UNL     1      26.557  47.998  37.535  1.00  0.00     0.068 C 
HETATM   32  C   UNL     1      28.532  47.875  39.109  1.00  0.00     0.069 A 
ENDBRANCH  21  24
ENDBRANCH   1  18
TORSDOF 5
ENDMDL
MODEL 9
REMARK VINA RESULT:      -9.0      4.253      7.985
REMARK  5 active torsions:
REMARK  status: ('A' for Active; 'I' for Inactive)
REMARK    1  A    between atoms: C_5  and  C_6 
REMARK    2  A    between atoms: C_11  and  C_12 
REMARK    3  A    between atoms: C_12  and  N_13 
REMARK    4  A    between atoms: N_13  and  C_15 
REMARK    5  A    between atoms: N_18  and  C_19 
ROOT
HETATM    1  N   UNL     1      25.736  43.858  50.573  1.00  0.00    -0.067 N 
HETATM    2  H   UNL     1      25.570  44.441  51.406  1.00  0.00     0.280 HD
HETATM    3  C   UNL     1      24.816  42.685  50.734  1.00  0.00     0.270 C 
ENDROOT
BRANCH   1   4
HETATM    4  C   UNL     1      27.206  43.450  50.740  1.00  0.00     0.277 C 
BRANCH   4   5
HETATM    5  C   UNL     1      27.432  42.624  51.958  1.00  0.00     0.016 A 
HETATM    6  C   UNL     1      27.460  43.073  53.317  1.00  0.00     0.096 A 
HETATM    7  N   UNL     1      27.639  42.048  54.155  1.00  0.00    -0.174 NA
HETATM    8  N   UNL     1      27.703  40.963  53.383  1.00  0.00    -0.288 N 
HETATM    9  H   UNL     1      27.809  40.057  53.835  1.00  0.00     0.188 HD
HETATM   10  C   UNL     1      27.599  41.253  52.051  1.00  0.00     0.120 A 
BRANCH   6  11
HETATM   11  C   UNL     1      27.297  44.424  53.840  1.00  0.00    -0.005 A 
HETATM   12  C   UNL     1      28.357  45.087  54.467  1.00  0.00     0.014 A 
HETATM   13  C   UNL     1      28.175  46.377  54.977  1.00  0.00     0.007 A 
HETATM   14  C   UNL     1      26.929  47.009  54.882  1.00  0.00    -0.062 A 
HETATM   15  C   UNL     1      26.725  48.391  55.432  1.00  0.00     0.048 C 
HETATM   16  C   UNL     1      25.873  46.345  54.247  1.00  0.00     0.007 A 
HETATM   17  C   UNL     1      26.053  45.058  53.737  1.00  0.00     0.014 A 
ENDBRANCH   6  11
ENDBRANCH   4   5
ENDBRANCH   1   4
BRANCH   1  18
HETATM   18  C   UNL     1      25.496  44.765  49.361  1.00  0.00     0.190 C 
HETATM   19  C   UNL     1      24.241  44.396  48.559  1.00  0.00     0.048 C 
HETATM   20  C   UNL     1      23.009  45.240  48.871  1.00  0.00     0.099 C 
HETATM   21  N   UNL     1      23.399  46.652  48.878  1.00  0.00    -0.268 NA
HETATM   22  C   UNL     1      24.326  46.990  49.962  1.00  0.00     0.099 C 
HETATM   23  C   UNL     1      25.640  46.248  49.734  1.00  0.00     0.048 C 
BRANCH  21  24
HETATM   24  C   UNL     1      22.333  47.554  48.721  1.00  0.00     0.109 A 
HETATM   25  N   UNL     1      22.338  48.722  49.387  1.00  0.00    -0.224 NA
HETATM   26  C   UNL     1      21.330  49.598  49.146  1.00  0.00     0.102 A 
HETATM   27  C   UNL     1      21.336  50.913  49.861  1.00  0.00     0.091 C 
HETATM   28  N   UNL     1      20.339  49.359  48.277  1.00  0.00    -0.348 N 
HETATM   29  H   UNL     1      19.622  50.067  48.132  1.00  0.00     0.167 HD
HETATM   30  C   UNL     1      20.307  48.202  47.597  1.00  0.00     0.009 A 
HETATM   31  C   UNL     1      19.207  47.967  46.613  1.00  0.00     0.068 C 
HETATM   32  C   UNL     1      21.319  47.266  47.813  1.00  0.00     0.069 A 
ENDBRANCH  21  24
ENDBRANCH   1  18
TORSDOF 5
ENDMDL
MODEL 10
REMARK VINA RESULT:      -8.8      1.930      4.159
REMARK  5 active torsions:
REMARK  status: ('A' for Active; 'I' for Inactive)
REMARK    1  A    between atoms: C_5  and  C_6 
REMARK    2  A    between atoms: C_11  and  C_12 
REMARK    3  A    between atoms: C_12  and  N_13 
REMARK    4  A    between atoms: N_13  and  C_15 
REMARK    5  A    between atoms: N_18  and  C_19 
ROOT
HETATM    1  N   UNL     1      27.657  44.326  53.468  1.00  0.00    -0.067 N 
HETATM    2  H   UNL     1      26.835  44.751  53.016  1.00  0.00     0.280 HD
HETATM    3  C   UNL     1      27.094  43.348  54.455  1.00  0.00     0.270 C 
ENDROOT
BRANCH   1   4
HETATM    4  C   UNL     1      28.308  45.527  54.170  1.00  0.00     0.277 C 
BRANCH   4   5
HETATM    5  C   UNL     1      27.342  46.633  54.416  1.00  0.00     0.016 A 
HETATM    6  C   UNL     1      26.218  46.998  53.609  1.00  0.00     0.096 A 
HETATM    7  N   UNL     1      25.542  48.010  54.160  1.00  0.00    -0.174 NA
HETATM    8  N   UNL     1      26.180  48.287  55.298  1.00  0.00    -0.288 N 
HETATM    9  H   UNL     1      25.803  49.020  55.894  1.00  0.00     0.188 HD
HETATM   10  C   UNL     1      27.279  47.498  55.495  1.00  0.00     0.120 A 
BRANCH   6  11
HETATM   11  C   UNL     1      25.755  46.406  52.360  1.00  0.00    -0.005 A 
HETATM   12  C   UNL     1      26.214  46.878  51.125  1.00  0.00     0.014 A 
HETATM   13  C   UNL     1      25.745  46.307  49.937  1.00  0.00     0.007 A 
HETATM   14  C   UNL     1      24.801  45.273  49.970  1.00  0.00    -0.062 A 
HETATM   15  C   UNL     1      24.289  44.659  48.699  1.00  0.00     0.048 C 
HETATM   16  C   UNL     1      24.351  44.799  51.208  1.00  0.00     0.007 A 
HETATM   17  C   UNL     1      24.818  45.367  52.394  1.00  0.00     0.014 A 
ENDBRANCH   6  11
ENDBRANCH   4   5
ENDBRANCH   1   4
BRANCH   1  18
HETATM   18  C   UNL     1      28.518  43.751  52.336  1.00  0.00     0.190 C 
HETATM   19  C   UNL     1      29.522  42.691  52.810  1.00  0.00     0.048 C 
HETATM   20  C   UNL     1      29.076  41.247  52.602  1.00  0.00     0.099 C 
HETATM   21  N   UNL     1      28.561  41.108  51.237  1.00  0.00    -0.268 NA
HETATM   22  C   UNL     1      27.336  41.879  51.001  1.00  0.00     0.099 C 
HETATM   23  C   UNL     1      27.661  43.366  51.122  1.00  0.00     0.048 C 
BRANCH  21  24
HETATM   24  C   UNL     1      28.518  39.788  50.759  1.00  0.00     0.109 A 
HETATM   25  N   UNL     1      29.285  38.842  51.329  1.00  0.00    -0.224 NA
HETATM   26  C   UNL     1      29.155  37.565  50.890  1.00  0.00     0.102 A 
HETATM   27  C   UNL     1      29.984  36.497  51.531  1.00  0.00     0.091 C 
HETATM   28  N   UNL     1      28.299  37.203  49.924  1.00  0.00    -0.348 N 
HETATM   29  H   UNL     1      28.240  36.222  49.653  1.00  0.00     0.167 HD
HETATM   30  C   UNL     1      27.520  38.123  49.337  1.00  0.00     0.009 A 
HETATM   31  C   UNL     1      26.553  37.693  48.282  1.00  0.00     0.068 C 
HETATM   32  C   UNL     1      27.620  39.453  49.751  1.00  0.00     0.069 A 
ENDBRANCH  21  24
ENDBRANCH   1  18
TORSDOF 5
ENDMDL
