MODEL 1
REMARK VINA RESULT:      -8.3      0.000      0.000
REMARK  5 active torsions:
REMARK  status: ('A' for Active; 'I' for Inactive)
REMARK    1  A    between atoms: C_4  and  S_5 
REMARK    2  A    between atoms: S_5  and  C_6 
REMARK    3  A    between atoms: C_6  and  C_7 
REMARK       I    between atoms: C_7  and  N_8 
REMARK    4  A    between atoms: N_8  and  C_9 
REMARK    5  A    between atoms: C_11  and  C_12 
ROOT
HETATM    1  C   UNL     1      28.234  44.439  53.260  1.00  0.00     0.035 A 
HETATM    2  C   UNL     1      28.856  44.734  54.477  1.00  0.00     0.042 A 
HETATM    3  C   UNL     1      29.882  43.921  54.991  1.00  0.00    -0.021 A 
HETATM    4  C   UNL     1      30.282  42.800  54.254  1.00  0.00     0.012 A 
HETATM    5  C   UNL     1      29.675  42.501  53.033  1.00  0.00     0.003 A 
HETATM    6  C   UNL     1      28.657  43.318  52.539  1.00  0.00     0.029 A 
ENDROOT
BRANCH   1   7
HETATM    7  N   UNL     1      27.194  45.210  52.700  1.00  0.00    -0.327 N 
HETATM    8  C   UNL     1      25.831  45.030  52.844  1.00  0.00     0.231 C 
HETATM    9  O   UNL     1      25.290  44.152  53.515  1.00  0.00    -0.272 OA
HETATM   10  H   UNL     1      27.468  45.939  52.049  1.00  0.00     0.169 HD
BRANCH   8  11
HETATM   11  C   UNL     1      24.968  46.082  52.160  1.00  0.00     0.182 C 
BRANCH  11  12
HETATM   12  S   UNL     1      24.700  45.751  50.384  1.00  0.00    -0.121 SA
BRANCH  12  13
HETATM   13  C   UNL     1      25.381  47.259  49.719  1.00  0.00     0.001 A 
HETATM   14  C   UNL     1      24.524  48.271  49.274  1.00  0.00     0.018 A 
HETATM   15  C   UNL     1      25.049  49.451  48.742  1.00  0.00     0.001 A 
HETATM   16  C   UNL     1      26.430  49.630  48.663  1.00  0.00     0.000 A 
HETATM   17  C   UNL     1      27.288  48.631  49.120  1.00  0.00     0.001 A 
HETATM   18  C   UNL     1      26.764  47.451  49.652  1.00  0.00     0.018 A 
ENDBRANCH  12  13
ENDBRANCH  11  12
ENDBRANCH   8  11
ENDBRANCH   1   7
BRANCH   3  19
HETATM   19  C   UNL     1      30.496  44.250  56.271  1.00  0.00     0.010 A 
HETATM   20  C   UNL     1      31.470  43.557  57.033  1.00  0.00     0.152 A 
HETATM   21  N   UNL     1      31.779  44.180  58.174  1.00  0.00    -0.187 NA
HETATM   22  N   UNL     1      31.000  45.271  58.154  1.00  0.00    -0.289 N 
HETATM   23  H   UNL     1      31.054  45.913  58.937  1.00  0.00     0.188 HD
HETATM   24  C   UNL     1      30.215  45.360  57.040  1.00  0.00     0.123 A 
ENDBRANCH   3  19
TORSDOF 5
ENDMDL
MODEL 2
REMARK VINA RESULT:      -8.3      3.016      8.586
REMARK  5 active torsions:
REMARK  status: ('A' for Active; 'I' for Inactive)
REMARK    1  A    between atoms: C_4  and  S_5 
REMARK    2  A    between atoms: S_5  and  C_6 
REMARK    3  A    between atoms: C_6  and  C_7 
REMARK       I    between atoms: C_7  and  N_8 
REMARK    4  A    between atoms: N_8  and  C_9 
REMARK    5  A    between atoms: C_11  and  C_12 
ROOT
HETATM    1  C   UNL     1      25.831  45.957  51.675  1.00  0.00     0.035 A 
HETATM    2  C   UNL     1      26.081  47.095  50.901  1.00  0.00     0.042 A 
HETATM    3  C   UNL     1      25.262  47.432  49.809  1.00  0.00    -0.021 A 
HETATM    4  C   UNL     1      24.173  46.605  49.507  1.00  0.00     0.012 A 
HETATM    5  C   UNL     1      23.907  45.473  50.278  1.00  0.00     0.003 A 
HETATM    6  C   UNL     1      24.732  45.152  51.357  1.00  0.00     0.029 A 
ENDROOT
BRANCH   1   7
HETATM    7  N   UNL     1      26.622  45.562  52.773  1.00  0.00    -0.327 N 
HETATM    8  C   UNL     1      26.467  45.912  54.101  1.00  0.00     0.231 C 
HETATM    9  O   UNL     1      25.579  46.634  54.554  1.00  0.00    -0.272 OA
HETATM   10  H   UNL     1      27.453  45.019  52.563  1.00  0.00     0.169 HD
BRANCH   8  11
HETATM   11  C   UNL     1      27.456  45.259  55.058  1.00  0.00     0.182 C 
BRANCH  11  12
HETATM   12  S   UNL     1      28.676  46.431  55.745  1.00  0.00    -0.121 SA
BRANCH  12  13
HETATM   13  C   UNL     1      29.874  45.256  56.349  1.00  0.00     0.001 A 
HETATM   14  C   UNL     1      30.446  45.435  57.612  1.00  0.00     0.018 A 
HETATM   15  C   UNL     1      31.393  44.526  58.089  1.00  0.00     0.001 A 
HETATM   16  C   UNL     1      31.764  43.429  57.311  1.00  0.00     0.000 A 
HETATM   17  C   UNL     1      31.184  43.237  56.058  1.00  0.00     0.001 A 
HETATM   18  C   UNL     1      30.237  44.146  55.580  1.00  0.00     0.018 A 
ENDBRANCH  12  13
ENDBRANCH  11  12
ENDBRANCH   8  11
ENDBRANCH   1   7
BRANCH   3  19
HETATM   19  C   UNL     1      25.564  48.616  49.014  1.00  0.00     0.010 A 
HETATM   20  C   UNL     1      24.718  49.446  48.236  1.00  0.00     0.152 A 
HETATM   21  N   UNL     1      25.374  50.445  47.638  1.00  0.00    -0.187 NA
HETATM   22  N   UNL     1      26.644  50.257  48.022  1.00  0.00    -0.289 N 
HETATM   23  H   UNL     1      27.349  50.903  47.684  1.00  0.00     0.188 HD
HETATM   24  C   UNL     1      26.812  49.179  48.844  1.00  0.00     0.123 A 
ENDBRANCH   3  19
TORSDOF 5
ENDMDL
MODEL 3
REMARK VINA RESULT:      -8.2      1.718      2.313
REMARK  5 active torsions:
REMARK  status: ('A' for Active; 'I' for Inactive)
REMARK    1  A    between atoms: C_4  and  S_5 
REMARK    2  A    between atoms: S_5  and  C_6 
REMARK    3  A    between atoms: C_6  and  C_7 
REMARK       I    between atoms: C_7  and  N_8 
REMARK    4  A    between atoms: N_8  and  C_9 
REMARK    5  A    between atoms: C_11  and  C_12 
ROOT
HETATM    1  C   UNL     1      27.143  43.325  52.116  1.00  0.00     0.035 A 
HETATM    2  C   UNL     1      27.920  43.919  53.116  1.00  0.00     0.042 A 
HETATM    3  C   UNL     1      28.827  43.166  53.883  1.00  0.00    -0.021 A 
HETATM    4  C   UNL     1      28.947  41.795  53.624  1.00  0.00     0.012 A 
HETATM    5  C   UNL     1      28.186  41.193  52.621  1.00  0.00     0.003 A 
HETATM    6  C   UNL     1      27.289  41.956  51.871  1.00  0.00     0.029 A 
ENDROOT
BRANCH   1   7
HETATM    7  N   UNL     1      26.211  44.026  51.323  1.00  0.00    -0.327 N 
HETATM    8  C   UNL     1      26.447  44.729  50.157  1.00  0.00     0.231 C 
HETATM    9  O   UNL     1      27.536  44.849  49.598  1.00  0.00    -0.272 OA
HETATM   10  H   UNL     1      25.265  44.093  51.685  1.00  0.00     0.169 HD
BRANCH   8  11
HETATM   11  C   UNL     1      25.206  45.321  49.501  1.00  0.00     0.182 C 
BRANCH  11  12
HETATM   12  S   UNL     1      24.507  46.733  50.424  1.00  0.00    -0.121 SA
BRANCH  12  13
HETATM   13  C   UNL     1      25.343  48.058  49.571  1.00  0.00     0.001 A 
HETATM   14  C   UNL     1      26.733  48.172  49.657  1.00  0.00     0.018 A 
HETATM   15  C   UNL     1      27.395  49.212  49.000  1.00  0.00     0.001 A 
HETATM   16  C   UNL     1      26.671  50.135  48.246  1.00  0.00     0.000 A 
HETATM   17  C   UNL     1      25.286  50.017  48.143  1.00  0.00     0.001 A 
HETATM   18  C   UNL     1      24.624  48.977  48.800  1.00  0.00     0.018 A 
ENDBRANCH  12  13
ENDBRANCH  11  12
ENDBRANCH   8  11
ENDBRANCH   1   7
BRANCH   3  19
HETATM   19  C   UNL     1      29.607  43.815  54.929  1.00  0.00     0.010 A 
HETATM   20  C   UNL     1      29.441  45.075  55.558  1.00  0.00     0.152 A 
HETATM   21  N   UNL     1      30.376  45.325  56.479  1.00  0.00    -0.187 NA
HETATM   22  N   UNL     1      31.151  44.232  56.440  1.00  0.00    -0.289 N 
HETATM   23  H   UNL     1      31.952  44.188  57.062  1.00  0.00     0.188 HD
HETATM   24  C   UNL     1      30.735  43.300  55.533  1.00  0.00     0.123 A 
ENDBRANCH   3  19
TORSDOF 5
ENDMDL
MODEL 4
REMARK VINA RESULT:      -8.2      3.228      9.051
REMARK  5 active torsions:
REMARK  status: ('A' for Active; 'I' for Inactive)
REMARK    1  A    between atoms: C_4  and  S_5 
REMARK    2  A    between atoms: S_5  and  C_6 
REMARK    3  A    between atoms: C_6  and  C_7 
REMARK       I    between atoms: C_7  and  N_8 
REMARK    4  A    between atoms: N_8  and  C_9 
REMARK    5  A    between atoms: C_11  and  C_12 
ROOT
HETATM    1  C   UNL     1      25.756  47.561  50.349  1.00  0.00     0.035 A 
HETATM    2  C   UNL     1      24.477  47.923  49.912  1.00  0.00     0.042 A 
HETATM    3  C   UNL     1      24.291  48.929  48.948  1.00  0.00    -0.021 A 
HETATM    4  C   UNL     1      25.419  49.568  48.419  1.00  0.00     0.012 A 
HETATM    5  C   UNL     1      26.700  49.209  48.840  1.00  0.00     0.003 A 
HETATM    6  C   UNL     1      26.866  48.209  49.800  1.00  0.00     0.029 A 
ENDROOT
BRANCH   1   7
HETATM    7  N   UNL     1      26.004  46.569  51.320  1.00  0.00    -0.327 N 
HETATM    8  C   UNL     1      25.884  46.675  52.693  1.00  0.00     0.231 C 
HETATM    9  O   UNL     1      25.516  47.676  53.306  1.00  0.00    -0.272 OA
HETATM   10  H   UNL     1      26.392  45.692  50.986  1.00  0.00     0.169 HD
BRANCH   8  11
HETATM   11  C   UNL     1      26.164  45.391  53.464  1.00  0.00     0.182 C 
BRANCH  11  12
HETATM   12  S   UNL     1      27.401  44.320  52.654  1.00  0.00    -0.121 SA
BRANCH  12  13
HETATM   13  C   UNL     1      28.641  44.317  53.935  1.00  0.00     0.001 A 
HETATM   14  C   UNL     1      28.684  45.363  54.863  1.00  0.00     0.018 A 
HETATM   15  C   UNL     1      29.658  45.375  55.864  1.00  0.00     0.001 A 
HETATM   16  C   UNL     1      30.587  44.338  55.948  1.00  0.00     0.000 A 
HETATM   17  C   UNL     1      30.539  43.285  55.036  1.00  0.00     0.001 A 
HETATM   18  C   UNL     1      29.566  43.272  54.035  1.00  0.00     0.018 A 
ENDBRANCH  12  13
ENDBRANCH  11  12
ENDBRANCH   8  11
ENDBRANCH   1   7
BRANCH   3  19
HETATM   19  C   UNL     1      22.943  49.293  48.529  1.00  0.00     0.010 A 
HETATM   20  C   UNL     1      22.485  50.355  47.710  1.00  0.00     0.152 A 
HETATM   21  N   UNL     1      21.158  50.363  47.560  1.00  0.00    -0.187 NA
HETATM   22  N   UNL     1      20.756  49.312  48.287  1.00  0.00    -0.289 N 
HETATM   23  H   UNL     1      19.763  49.111  48.333  1.00  0.00     0.188 HD
HETATM   24  C   UNL     1      21.782  48.639  48.886  1.00  0.00     0.123 A 
ENDBRANCH   3  19
TORSDOF 5
ENDMDL
MODEL 5
REMARK VINA RESULT:      -8.2      1.474      2.505
REMARK  5 active torsions:
REMARK  status: ('A' for Active; 'I' for Inactive)
REMARK    1  A    between atoms: C_4  and  S_5 
REMARK    2  A    between atoms: S_5  and  C_6 
REMARK    3  A    between atoms: C_6  and  C_7 
REMARK       I    between atoms: C_7  and  N_8 
REMARK    4  A    between atoms: N_8  and  C_9 
REMARK    5  A    between atoms: C_11  and  C_12 
ROOT
HETATM    1  C   UNL     1      27.599  45.029  53.756  1.00  0.00     0.035 A 
HETATM    2  C   UNL     1      28.614  44.456  54.529  1.00  0.00     0.042 A 
HETATM    3  C   UNL     1      29.221  45.163  55.582  1.00  0.00    -0.021 A 
HETATM    4  C   UNL     1      28.785  46.465  55.854  1.00  0.00     0.012 A 
HETATM    5  C   UNL     1      27.766  47.045  55.097  1.00  0.00     0.003 A 
HETATM    6  C   UNL     1      27.176  46.328  54.054  1.00  0.00     0.029 A 
ENDROOT
BRANCH   1   7
HETATM    7  N   UNL     1      26.962  44.374  52.683  1.00  0.00    -0.327 N 
HETATM    8  C   UNL     1      25.639  43.984  52.591  1.00  0.00     0.231 C 
HETATM    9  O   UNL     1      24.776  44.163  53.450  1.00  0.00    -0.272 OA
HETATM   10  H   UNL     1      27.554  44.080  51.912  1.00  0.00     0.169 HD
BRANCH   8  11
HETATM   11  C   UNL     1      25.245  43.354  51.261  1.00  0.00     0.182 C 
BRANCH  11  12
HETATM   12  S   UNL     1      26.272  43.923  49.862  1.00  0.00    -0.121 SA
BRANCH  12  13
HETATM   13  C   UNL     1      25.644  45.587  49.722  1.00  0.00     0.001 A 
HETATM   14  C   UNL     1      26.526  46.669  49.783  1.00  0.00     0.018 A 
HETATM   15  C   UNL     1      26.043  47.976  49.684  1.00  0.00     0.001 A 
HETATM   16  C   UNL     1      24.677  48.205  49.514  1.00  0.00     0.000 A 
HETATM   17  C   UNL     1      23.796  47.129  49.436  1.00  0.00     0.001 A 
HETATM   18  C   UNL     1      24.278  45.823  49.535  1.00  0.00     0.018 A 
ENDBRANCH  12  13
ENDBRANCH  11  12
ENDBRANCH   8  11
ENDBRANCH   1   7
BRANCH   3  19
HETATM   19  C   UNL     1      30.288  44.539  56.355  1.00  0.00     0.010 A 
HETATM   20  C   UNL     1      30.835  44.881  57.617  1.00  0.00     0.152 A 
HETATM   21  N   UNL     1      31.821  44.064  57.997  1.00  0.00    -0.187 NA
HETATM   22  N   UNL     1      31.919  43.199  56.977  1.00  0.00    -0.289 N 
HETATM   23  H   UNL     1      32.619  42.468  57.033  1.00  0.00     0.188 HD
HETATM   24  C   UNL     1      31.026  43.439  55.972  1.00  0.00     0.123 A 
ENDBRANCH   3  19
TORSDOF 5
ENDMDL
MODEL 6
REMARK VINA RESULT:      -8.0      2.440      3.549
REMARK  5 active torsions:
REMARK  status: ('A' for Active; 'I' for Inactive)
REMARK    1  A    between atoms: C_4  and  S_5 
REMARK    2  A    between atoms: S_5  and  C_6 
REMARK    3  A    between atoms: C_6  and  C_7 
REMARK       I    between atoms: C_7  and  N_8 
REMARK    4  A    between atoms: N_8  and  C_9 
REMARK    5  A    between atoms: C_11  and  C_12 
ROOT
HETATM    1  C   UNL     1      28.401  44.281  53.646  1.00  0.00     0.035 A 
HETATM    2  C   UNL     1      29.301  44.174  54.711  1.00  0.00     0.042 A 
HETATM    3  C   UNL     1      29.303  45.105  55.764  1.00  0.00    -0.021 A 
HETATM    4  C   UNL     1      28.373  46.152  55.735  1.00  0.00     0.012 A 
HETATM    5  C   UNL     1      27.463  46.264  54.683  1.00  0.00     0.003 A 
HETATM    6  C   UNL     1      27.478  45.331  53.645  1.00  0.00     0.029 A 
ENDROOT
BRANCH   1   7
HETATM    7  N   UNL     1      28.359  43.386  52.557  1.00  0.00    -0.327 N 
HETATM    8  C   UNL     1      28.039  42.041  52.576  1.00  0.00     0.231 C 
HETATM    9  O   UNL     1      27.716  41.393  53.570  1.00  0.00    -0.272 OA
HETATM   10  H   UNL     1      28.675  43.743  51.661  1.00  0.00     0.169 HD
BRANCH   8  11
HETATM   11  C   UNL     1      28.021  41.366  51.210  1.00  0.00     0.182 C 
BRANCH  11  12
HETATM   12  S   UNL     1      26.340  41.170  50.525  1.00  0.00    -0.121 SA
BRANCH  12  13
HETATM   13  C   UNL     1      25.852  42.886  50.505  1.00  0.00     0.001 A 
HETATM   14  C   UNL     1      26.458  43.770  49.608  1.00  0.00     0.018 A 
HETATM   15  C   UNL     1      26.090  45.117  49.592  1.00  0.00     0.001 A 
HETATM   16  C   UNL     1      25.108  45.584  50.466  1.00  0.00     0.000 A 
HETATM   17  C   UNL     1      24.489  44.703  51.351  1.00  0.00     0.001 A 
HETATM   18  C   UNL     1      24.856  43.356  51.367  1.00  0.00     0.018 A 
ENDBRANCH  12  13
ENDBRANCH  11  12
ENDBRANCH   8  11
ENDBRANCH   1   7
BRANCH   3  19
HETATM   19  C   UNL     1      30.267  44.972  56.849  1.00  0.00     0.010 A 
HETATM   20  C   UNL     1      31.279  44.005  57.072  1.00  0.00     0.152 A 
HETATM   21  N   UNL     1      31.964  44.217  58.199  1.00  0.00    -0.187 NA
HETATM   22  N   UNL     1      31.391  45.316  58.710  1.00  0.00    -0.289 N 
HETATM   23  H   UNL     1      31.744  45.678  59.589  1.00  0.00     0.188 HD
HETATM   24  C   UNL     1      30.373  45.807  57.943  1.00  0.00     0.123 A 
ENDBRANCH   3  19
TORSDOF 5
ENDMDL
MODEL 7
REMARK VINA RESULT:      -7.8      1.586      2.301
REMARK  5 active torsions:
REMARK  status: ('A' for Active; 'I' for Inactive)
REMARK    1  A    between atoms: C_4  and  S_5 
REMARK    2  A    between atoms: S_5  and  C_6 
REMARK    3  A    between atoms: C_6  and  C_7 
REMARK       I    between atoms: C_7  and  N_8 
REMARK    4  A    between atoms: N_8  and  C_9 
REMARK    5  A    between atoms: C_11  and  C_12 
ROOT
HETATM    1  C   UNL     1      27.214  43.772  52.044  1.00  0.00     0.035 A 
HETATM    2  C   UNL     1      28.032  44.252  53.072  1.00  0.00     0.042 A 
HETATM    3  C   UNL     1      28.781  43.378  53.880  1.00  0.00    -0.021 A 
HETATM    4  C   UNL     1      28.700  42.002  53.634  1.00  0.00     0.012 A 
HETATM    5  C   UNL     1      27.895  41.512  52.605  1.00  0.00     0.003 A 
HETATM    6  C   UNL     1      27.157  42.394  51.814  1.00  0.00     0.029 A 
ENDROOT
BRANCH   1   7
HETATM    7  N   UNL     1      26.433  44.597  51.209  1.00  0.00    -0.327 N 
HETATM    8  C   UNL     1      25.114  44.973  51.380  1.00  0.00     0.231 C 
HETATM    9  O   UNL     1      24.393  44.652  52.324  1.00  0.00    -0.272 OA
HETATM   10  H   UNL     1      26.857  44.892  50.335  1.00  0.00     0.169 HD
BRANCH   8  11
HETATM   11  C   UNL     1      24.578  45.934  50.327  1.00  0.00     0.182 C 
BRANCH  11  12
HETATM   12  S   UNL     1      25.619  47.418  50.108  1.00  0.00    -0.121 SA
BRANCH  12  13
HETATM   13  C   UNL     1      24.463  48.432  49.204  1.00  0.00     0.001 A 
HETATM   14  C   UNL     1      23.136  48.015  49.063  1.00  0.00     0.018 A 
HETATM   15  C   UNL     1      22.226  48.798  48.349  1.00  0.00     0.001 A 
HETATM   16  C   UNL     1      22.636  50.004  47.781  1.00  0.00     0.000 A 
HETATM   17  C   UNL     1      23.953  50.432  47.933  1.00  0.00     0.001 A 
HETATM   18  C   UNL     1      24.863  49.651  48.647  1.00  0.00     0.018 A 
ENDBRANCH  12  13
ENDBRANCH  11  12
ENDBRANCH   8  11
ENDBRANCH   1   7
BRANCH   3  19
HETATM   19  C   UNL     1      29.609  43.913  54.953  1.00  0.00     0.010 A 
HETATM   20  C   UNL     1      29.525  45.137  55.663  1.00  0.00     0.152 A 
HETATM   21  N   UNL     1      30.483  45.274  56.583  1.00  0.00    -0.187 NA
HETATM   22  N   UNL     1      31.193  44.143  56.464  1.00  0.00    -0.289 N 
HETATM   23  H   UNL     1      31.997  44.014  57.069  1.00  0.00     0.188 HD
HETATM   24  C   UNL     1      30.713  43.297  55.505  1.00  0.00     0.123 A 
ENDBRANCH   3  19
TORSDOF 5
ENDMDL
MODEL 8
REMARK VINA RESULT:      -7.7      2.360      3.158
REMARK  5 active torsions:
REMARK  status: ('A' for Active; 'I' for Inactive)
REMARK    1  A    between atoms: C_4  and  S_5 
REMARK    2  A    between atoms: S_5  and  C_6 
REMARK    3  A    between atoms: C_6  and  C_7 
REMARK       I    between atoms: C_7  and  N_8 
REMARK    4  A    between atoms: N_8  and  C_9 
REMARK    5  A    between atoms: C_11  and  C_12 
ROOT
HETATM    1  C   UNL     1      28.374  44.387  53.396  1.00  0.00     0.035 A 
HETATM    2  C   UNL     1      28.891  44.765  54.640  1.00  0.00     0.042 A 
HETATM    3  C   UNL     1      29.998  44.107  55.204  1.00  0.00    -0.021 A 
HETATM    4  C   UNL     1      30.587  43.056  54.491  1.00  0.00     0.012 A 
HETATM    5  C   UNL     1      30.088  42.676  53.245  1.00  0.00     0.003 A 
HETATM    6  C   UNL     1      28.987  43.340  52.701  1.00  0.00     0.029 A 
ENDROOT
BRANCH   1   7
HETATM    7  N   UNL     1      27.262  45.002  52.786  1.00  0.00    -0.327 N 
HETATM    8  C   UNL     1      25.926  44.676  52.930  1.00  0.00     0.231 C 
HETATM    9  O   UNL     1      25.478  43.781  53.645  1.00  0.00    -0.272 OA
HETATM   10  H   UNL     1      27.460  45.720  52.097  1.00  0.00     0.169 HD
BRANCH   8  11
HETATM   11  C   UNL     1      24.959  45.584  52.180  1.00  0.00     0.182 C 
BRANCH  11  12
HETATM   12  S   UNL     1      25.408  45.825  50.427  1.00  0.00    -0.121 SA
BRANCH  12  13
HETATM   13  C   UNL     1      25.454  44.116  49.919  1.00  0.00     0.001 A 
HETATM   14  C   UNL     1      24.270  43.375  49.866  1.00  0.00     0.018 A 
HETATM   15  C   UNL     1      24.297  42.033  49.479  1.00  0.00     0.001 A 
HETATM   16  C   UNL     1      25.507  41.429  49.135  1.00  0.00     0.000 A 
HETATM   17  C   UNL     1      26.688  42.168  49.171  1.00  0.00     0.001 A 
HETATM   18  C   UNL     1      26.661  43.509  49.557  1.00  0.00     0.018 A 
ENDBRANCH  12  13
ENDBRANCH  11  12
ENDBRANCH   8  11
ENDBRANCH   1   7
BRANCH   3  19
HETATM   19  C   UNL     1      30.498  44.517  56.510  1.00  0.00     0.010 A 
HETATM   20  C   UNL     1      31.418  43.888  57.386  1.00  0.00     0.152 A 
HETATM   21  N   UNL     1      31.622  44.577  58.511  1.00  0.00    -0.187 NA
HETATM   22  N   UNL     1      30.828  45.648  58.369  1.00  0.00    -0.289 N 
HETATM   23  H   UNL     1      30.805  46.333  59.116  1.00  0.00     0.188 HD
HETATM   24  C   UNL     1      30.136  45.660  57.191  1.00  0.00     0.123 A 
ENDBRANCH   3  19
TORSDOF 5
ENDMDL
MODEL 9
REMARK VINA RESULT:      -7.7      1.565      2.127
REMARK  5 active torsions:
REMARK  status: ('A' for Active; 'I' for Inactive)
REMARK    1  A    between atoms: C_4  and  S_5 
REMARK    2  A    between atoms: S_5  and  C_6 
REMARK    3  A    between atoms: C_6  and  C_7 
REMARK       I    between atoms: C_7  and  N_8 
REMARK    4  A    between atoms: N_8  and  C_9 
REMARK    5  A    between atoms: C_11  and  C_12 
ROOT
HETATM    1  C   UNL     1      28.344  44.254  53.423  1.00  0.00     0.035 A 
HETATM    2  C   UNL     1      28.852  44.662  54.661  1.00  0.00     0.042 A 
HETATM    3  C   UNL     1      30.006  44.074  55.208  1.00  0.00    -0.021 A 
HETATM    4  C   UNL     1      30.652  43.065  54.483  1.00  0.00     0.012 A 
HETATM    5  C   UNL     1      30.161  42.657  53.243  1.00  0.00     0.003 A 
HETATM    6  C   UNL     1      29.013  43.250  52.716  1.00  0.00     0.029 A 
ENDROOT
BRANCH   1   7
HETATM    7  N   UNL     1      27.186  44.798  52.830  1.00  0.00    -0.327 N 
HETATM    8  C   UNL     1      26.570  46.002  53.117  1.00  0.00     0.231 C 
HETATM    9  O   UNL     1      26.951  46.822  53.950  1.00  0.00    -0.272 OA
HETATM   10  H   UNL     1      26.695  44.208  52.166  1.00  0.00     0.169 HD
BRANCH   8  11
HETATM   11  C   UNL     1      25.365  46.332  52.244  1.00  0.00     0.182 C 
BRANCH  11  12
HETATM   12  S   UNL     1      25.793  47.324  50.772  1.00  0.00    -0.121 SA
BRANCH  12  13
HETATM   13  C   UNL     1      24.295  47.080  49.835  1.00  0.00     0.001 A 
HETATM   14  C   UNL     1      23.523  48.184  49.459  1.00  0.00     0.018 A 
HETATM   15  C   UNL     1      22.344  48.002  48.733  1.00  0.00     0.001 A 
HETATM   16  C   UNL     1      21.936  46.718  48.372  1.00  0.00     0.000 A 
HETATM   17  C   UNL     1      22.710  45.616  48.730  1.00  0.00     0.001 A 
HETATM   18  C   UNL     1      23.889  45.797  49.455  1.00  0.00     0.018 A 
ENDBRANCH  12  13
ENDBRANCH  11  12
ENDBRANCH   8  11
ENDBRANCH   1   7
BRANCH   3  19
HETATM   19  C   UNL     1      30.497  44.511  56.508  1.00  0.00     0.010 A 
HETATM   20  C   UNL     1      31.416  43.904  57.401  1.00  0.00     0.152 A 
HETATM   21  N   UNL     1      31.609  44.616  58.515  1.00  0.00    -0.187 NA
HETATM   22  N   UNL     1      30.810  45.680  58.347  1.00  0.00    -0.289 N 
HETATM   23  H   UNL     1      30.779  46.378  59.082  1.00  0.00     0.188 HD
HETATM   24  C   UNL     1      30.124  45.665  57.166  1.00  0.00     0.123 A 
ENDBRANCH   3  19
TORSDOF 5
ENDMDL
MODEL 10
REMARK VINA RESULT:      -7.6      4.683     10.235
REMARK  5 active torsions:
REMARK  status: ('A' for Active; 'I' for Inactive)
REMARK    1  A    between atoms: C_4  and  S_5 
REMARK    2  A    between atoms: S_5  and  C_6 
REMARK    3  A    between atoms: C_6  and  C_7 
REMARK       I    between atoms: C_7  and  N_8 
REMARK    4  A    between atoms: N_8  and  C_9 
REMARK    5  A    between atoms: C_11  and  C_12 
ROOT
HETATM    1  C   UNL     1      22.998  48.633  49.006  1.00  0.00     0.035 A 
HETATM    2  C   UNL     1      21.734  49.156  49.295  1.00  0.00     0.042 A 
HETATM    3  C   UNL     1      21.389  50.473  48.943  1.00  0.00    -0.021 A 
HETATM    4  C   UNL     1      22.339  51.261  48.282  1.00  0.00     0.012 A 
HETATM    5  C   UNL     1      23.600  50.747  47.978  1.00  0.00     0.003 A 
HETATM    6  C   UNL     1      23.926  49.438  48.338  1.00  0.00     0.029 A 
ENDROOT
BRANCH   1   7
HETATM    7  N   UNL     1      23.405  47.326  49.344  1.00  0.00    -0.327 N 
HETATM    8  C   UNL     1      24.370  46.946  50.258  1.00  0.00     0.231 C 
HETATM    9  O   UNL     1      25.038  47.708  50.955  1.00  0.00    -0.272 OA
HETATM   10  H   UNL     1      23.003  46.569  48.800  1.00  0.00     0.169 HD
BRANCH   8  11
HETATM   11  C   UNL     1      24.526  45.441  50.441  1.00  0.00     0.182 C 
BRANCH  11  12
HETATM   12  S   UNL     1      26.268  44.897  50.480  1.00  0.00    -0.121 SA
BRANCH  12  13
HETATM   13  C   UNL     1      26.376  44.449  52.203  1.00  0.00     0.001 A 
HETATM   14  C   UNL     1      27.569  43.927  52.711  1.00  0.00     0.018 A 
HETATM   15  C   UNL     1      27.659  43.564  54.057  1.00  0.00     0.001 A 
HETATM   16  C   UNL     1      26.561  43.729  54.901  1.00  0.00     0.000 A 
HETATM   17  C   UNL     1      25.375  44.264  54.403  1.00  0.00     0.001 A 
HETATM   18  C   UNL     1      25.284  44.628  53.058  1.00  0.00     0.018 A 
ENDBRANCH  12  13
ENDBRANCH  11  12
ENDBRANCH   8  11
ENDBRANCH   1   7
BRANCH   3  19
HETATM   19  C   UNL     1      20.068  50.991  49.276  1.00  0.00     0.010 A 
HETATM   20  C   UNL     1      19.079  50.498  50.164  1.00  0.00     0.152 A 
HETATM   21  N   UNL     1      17.980  51.255  50.194  1.00  0.00    -0.187 NA
HETATM   22  N   UNL     1      18.253  52.235  49.320  1.00  0.00    -0.289 N 
HETATM   23  H   UNL     1      17.550  52.948  49.162  1.00  0.00     0.188 HD
HETATM   24  C   UNL     1      19.487  52.124  48.745  1.00  0.00     0.123 A 
ENDBRANCH   3  19
TORSDOF 5
ENDMDL
