MODEL 1
REMARK VINA RESULT:      -8.9      0.000      0.000
REMARK  7 active torsions:
REMARK  status: ('A' for Active; 'I' for Inactive)
REMARK    1  A    between atoms: C_7  and  C_8 
REMARK    2  A    between atoms: C_8  and  N_9 
REMARK       I    between atoms: N_9  and  C_10 
REMARK       I    between atoms: C_10  and  N_11 
REMARK    3  A    between atoms: N_11  and  C_12 
REMARK    4  A    between atoms: C_12  and  C_13 
REMARK    5  A    between atoms: C_13  and  C_14 
REMARK    6  A    between atoms: C_14  and  O_15 
REMARK    7  A    between atoms: C_14  and  C_16 
ROOT
HETATM    1  N   UNL     1      26.858  47.294  53.916  1.00  0.00    -0.337 N 
HETATM    2  C   UNL     1      25.855  46.445  53.517  1.00  0.00     0.316 C 
HETATM    3  N   UNL     1      25.747  46.400  52.158  1.00  0.00    -0.339 N 
HETATM    4  O   UNL     1      25.134  45.848  54.308  1.00  0.00    -0.247 OA
HETATM    5  H   UNL     1      27.623  47.343  53.257  1.00  0.00     0.164 HD
HETATM    6  H   UNL     1      26.184  47.143  51.631  1.00  0.00     0.164 HD
ENDROOT
BRANCH   1   7
HETATM    7  C   UNL     1      27.217  47.404  55.318  1.00  0.00     0.183 C 
BRANCH   7   8
HETATM    8  C   UNL     1      28.250  46.398  55.673  1.00  0.00     0.044 A 
HETATM    9  N   UNL     1      28.897  46.389  56.902  1.00  0.00    -0.343 N 
HETATM   10  C   UNL     1      29.803  45.425  56.958  1.00  0.00     0.112 A 
HETATM   11  H   UNL     1      28.719  47.098  57.624  1.00  0.00     0.167 HD
HETATM   12  N   UNL     1      29.759  44.755  55.789  1.00  0.00    -0.311 N 
HETATM   13  C   UNL     1      30.748  45.053  58.036  1.00  0.00     0.049 A 
HETATM   14  C   UNL     1      30.595  43.673  55.514  1.00  0.00     0.014 A 
HETATM   15  C   UNL     1      28.796  45.341  54.977  1.00  0.00     0.125 A 
HETATM   16  C   UNL     1      30.524  42.955  54.200  1.00  0.00     0.068 C 
HETATM   17  C   UNL     1      31.462  43.324  56.491  1.00  0.00     0.025 A 
HETATM   18  C   UNL     1      31.555  44.011  57.776  1.00  0.00     0.006 A 
ENDBRANCH   7   8
ENDBRANCH   1   7
BRANCH   3  19
HETATM   19  C   UNL     1      24.798  45.557  51.417  1.00  0.00     0.085 C 
HETATM   20  C   UNL     1      25.092  44.071  51.616  1.00  0.00     0.032 C 
BRANCH  19  21
HETATM   21  C   UNL     1      24.726  46.007  49.944  1.00  0.00     0.063 C 
BRANCH  21  22
HETATM   22  C   UNL     1      24.426  47.490  49.695  1.00  0.00     0.177 C 
BRANCH  22  23
HETATM   23  O   UNL     1      23.847  48.077  50.858  1.00  0.00    -0.389 OA
HETATM   24  H   UNL     1      23.866  47.399  51.555  1.00  0.00     0.210 HD
ENDBRANCH  22  23
BRANCH  22  25
HETATM   25  C   UNL     1      25.614  48.305  49.317  1.00  0.00     0.081 A 
HETATM   26  O   UNL     1      25.386  49.401  48.531  1.00  0.00    -0.324 OA
HETATM   27  C   UNL     1      26.587  49.999  48.321  1.00  0.00     0.142 A 
HETATM   28  C   UNL     1      27.587  49.313  48.969  1.00  0.00     0.027 A 
HETATM   29  C   UNL     1      26.959  48.223  49.616  1.00  0.00     0.037 A 
ENDBRANCH  22  25
ENDBRANCH  21  22
ENDBRANCH  19  21
ENDBRANCH   3  19
TORSDOF 7
ENDMDL
MODEL 2
REMARK VINA RESULT:      -8.6      2.694      4.609
REMARK  7 active torsions:
REMARK  status: ('A' for Active; 'I' for Inactive)
REMARK    1  A    between atoms: C_7  and  C_8 
REMARK    2  A    between atoms: C_8  and  N_9 
REMARK       I    between atoms: N_9  and  C_10 
REMARK       I    between atoms: C_10  and  N_11 
REMARK    3  A    between atoms: N_11  and  C_12 
REMARK    4  A    between atoms: C_12  and  C_13 
REMARK    5  A    between atoms: C_13  and  C_14 
REMARK    6  A    between atoms: C_14  and  O_15 
REMARK    7  A    between atoms: C_14  and  C_16 
ROOT
HETATM    1  N   UNL     1      25.745  45.451  53.456  1.00  0.00    -0.337 N 
HETATM    2  C   UNL     1      25.698  45.291  52.093  1.00  0.00     0.316 C 
HETATM    3  N   UNL     1      24.792  44.339  51.731  1.00  0.00    -0.339 N 
HETATM    4  O   UNL     1      26.426  45.910  51.325  1.00  0.00    -0.247 OA
HETATM    5  H   UNL     1      24.858  45.272  53.908  1.00  0.00     0.164 HD
HETATM    6  H   UNL     1      24.475  43.700  52.446  1.00  0.00     0.164 HD
ENDROOT
BRANCH   1   7
HETATM    7  C   UNL     1      26.563  46.493  54.050  1.00  0.00     0.183 C 
BRANCH   7   8
HETATM    8  C   UNL     1      27.739  45.904  54.739  1.00  0.00     0.044 A 
HETATM    9  N   UNL     1      28.432  44.810  54.237  1.00  0.00    -0.343 N 
HETATM   10  C   UNL     1      29.409  44.447  55.053  1.00  0.00     0.112 A 
HETATM   11  H   UNL     1      28.150  44.326  53.375  1.00  0.00     0.167 HD
HETATM   12  N   UNL     1      29.410  45.304  56.095  1.00  0.00    -0.311 N 
HETATM   13  C   UNL     1      30.380  43.333  54.959  1.00  0.00     0.049 A 
HETATM   14  C   UNL     1      30.318  45.202  57.148  1.00  0.00     0.014 A 
HETATM   15  C   UNL     1      28.383  46.222  55.916  1.00  0.00     0.125 A 
HETATM   16  C   UNL     1      30.287  46.168  58.294  1.00  0.00     0.068 C 
HETATM   17  C   UNL     1      31.210  44.188  57.072  1.00  0.00     0.025 A 
HETATM   18  C   UNL     1      31.257  43.231  55.971  1.00  0.00     0.006 A 
ENDBRANCH   7   8
ENDBRANCH   1   7
BRANCH   3  19
HETATM   19  C   UNL     1      24.477  43.962  50.345  1.00  0.00     0.085 C 
HETATM   20  C   UNL     1      22.997  44.168  50.028  1.00  0.00     0.032 C 
BRANCH  19  21
HETATM   21  C   UNL     1      25.007  42.545  50.047  1.00  0.00     0.063 C 
BRANCH  21  22
HETATM   22  C   UNL     1      26.501  42.427  49.724  1.00  0.00     0.177 C 
BRANCH  22  23
HETATM   23  O   UNL     1      27.047  43.714  49.439  1.00  0.00    -0.389 OA
HETATM   24  H   UNL     1      26.873  44.272  50.217  1.00  0.00     0.210 HD
ENDBRANCH  22  23
BRANCH  22  25
HETATM   25  C   UNL     1      27.320  41.816  50.807  1.00  0.00     0.081 A 
HETATM   26  O   UNL     1      27.066  42.232  52.085  1.00  0.00    -0.324 OA
HETATM   27  C   UNL     1      27.903  41.547  52.904  1.00  0.00     0.142 A 
HETATM   28  C   UNL     1      28.690  40.685  52.177  1.00  0.00     0.027 A 
HETATM   29  C   UNL     1      28.311  40.854  50.825  1.00  0.00     0.037 A 
ENDBRANCH  22  25
ENDBRANCH  21  22
ENDBRANCH  19  21
ENDBRANCH   3  19
TORSDOF 7
ENDMDL
MODEL 3
REMARK VINA RESULT:      -8.6      1.720      2.472
REMARK  7 active torsions:
REMARK  status: ('A' for Active; 'I' for Inactive)
REMARK    1  A    between atoms: C_7  and  C_8 
REMARK    2  A    between atoms: C_8  and  N_9 
REMARK       I    between atoms: N_9  and  C_10 
REMARK       I    between atoms: C_10  and  N_11 
REMARK    3  A    between atoms: N_11  and  C_12 
REMARK    4  A    between atoms: C_12  and  C_13 
REMARK    5  A    between atoms: C_13  and  C_14 
REMARK    6  A    between atoms: C_14  and  O_15 
REMARK    7  A    between atoms: C_14  and  C_16 
ROOT
HETATM    1  N   UNL     1      27.292  43.575  52.575  1.00  0.00    -0.337 N 
HETATM    2  C   UNL     1      26.718  44.364  51.608  1.00  0.00     0.316 C 
HETATM    3  N   UNL     1      25.363  44.418  51.746  1.00  0.00    -0.339 N 
HETATM    4  O   UNL     1      27.365  44.902  50.717  1.00  0.00    -0.247 OA
HETATM    5  H   UNL     1      26.784  43.584  53.449  1.00  0.00     0.164 HD
HETATM    6  H   UNL     1      24.923  43.713  52.319  1.00  0.00     0.164 HD
ENDROOT
BRANCH   1   7
HETATM    7  C   UNL     1      28.737  43.470  52.679  1.00  0.00     0.183 C 
BRANCH   7   8
HETATM    8  C   UNL     1      29.194  43.888  54.029  1.00  0.00     0.044 A 
HETATM    9  N   UNL     1      28.624  44.950  54.719  1.00  0.00    -0.343 N 
HETATM   10  C   UNL     1      29.233  45.151  55.876  1.00  0.00     0.112 A 
HETATM   11  H   UNL     1      27.873  45.528  54.319  1.00  0.00     0.167 HD
HETATM   12  N   UNL     1      30.196  44.215  55.999  1.00  0.00    -0.311 N 
HETATM   13  C   UNL     1      29.003  46.174  56.921  1.00  0.00     0.049 A 
HETATM   14  C   UNL     1      31.035  44.144  57.110  1.00  0.00     0.014 A 
HETATM   15  C   UNL     1      30.184  43.415  54.863  1.00  0.00     0.125 A 
HETATM   16  C   UNL     1      32.099  43.093  57.211  1.00  0.00     0.068 C 
HETATM   17  C   UNL     1      30.833  45.073  58.072  1.00  0.00     0.025 A 
HETATM   18  C   UNL     1      29.808  46.110  57.995  1.00  0.00     0.006 A 
ENDBRANCH   7   8
ENDBRANCH   1   7
BRANCH   3  19
HETATM   19  C   UNL     1      24.462  45.209  50.895  1.00  0.00     0.085 C 
HETATM   20  C   UNL     1      24.439  44.685  49.460  1.00  0.00     0.032 C 
BRANCH  19  21
HETATM   21  C   UNL     1      24.789  46.711  51.025  1.00  0.00     0.063 C 
BRANCH  21  22
HETATM   22  C   UNL     1      24.434  47.595  49.824  1.00  0.00     0.177 C 
BRANCH  22  23
HETATM   23  O   UNL     1      23.320  48.428  50.138  1.00  0.00    -0.389 OA
HETATM   24  H   UNL     1      23.182  49.014  49.374  1.00  0.00     0.210 HD
ENDBRANCH  22  23
BRANCH  22  25
HETATM   25  C   UNL     1      25.541  48.474  49.356  1.00  0.00     0.081 A 
HETATM   26  O   UNL     1      26.816  48.067  49.642  1.00  0.00    -0.324 OA
HETATM   27  C   UNL     1      27.658  48.995  49.119  1.00  0.00     0.142 A 
HETATM   28  C   UNL     1      26.949  49.990  48.489  1.00  0.00     0.027 A 
HETATM   29  C   UNL     1      25.583  49.652  48.637  1.00  0.00     0.037 A 
ENDBRANCH  22  25
ENDBRANCH  21  22
ENDBRANCH  19  21
ENDBRANCH   3  19
TORSDOF 7
ENDMDL
MODEL 4
REMARK VINA RESULT:      -8.5      3.129      4.853
REMARK  7 active torsions:
REMARK  status: ('A' for Active; 'I' for Inactive)
REMARK    1  A    between atoms: C_7  and  C_8 
REMARK    2  A    between atoms: C_8  and  N_9 
REMARK       I    between atoms: N_9  and  C_10 
REMARK       I    between atoms: C_10  and  N_11 
REMARK    3  A    between atoms: N_11  and  C_12 
REMARK    4  A    between atoms: C_12  and  C_13 
REMARK    5  A    between atoms: C_13  and  C_14 
REMARK    6  A    between atoms: C_14  and  O_15 
REMARK    7  A    between atoms: C_14  and  C_16 
ROOT
HETATM    1  N   UNL     1      25.300  46.689  51.324  1.00  0.00    -0.337 N 
HETATM    2  C   UNL     1      24.734  47.090  50.139  1.00  0.00     0.316 C 
HETATM    3  N   UNL     1      24.956  48.414  49.901  1.00  0.00    -0.339 N 
HETATM    4  O   UNL     1      24.078  46.339  49.427  1.00  0.00    -0.247 OA
HETATM    5  H   UNL     1      26.139  47.202  51.558  1.00  0.00     0.164 HD
HETATM    6  H   UNL     1      25.244  48.987  50.681  1.00  0.00     0.164 HD
ENDROOT
BRANCH   1   7
HETATM    7  C   UNL     1      25.279  45.291  51.716  1.00  0.00     0.183 C 
BRANCH   7   8
HETATM    8  C   UNL     1      26.511  44.941  52.468  1.00  0.00     0.044 A 
HETATM    9  N   UNL     1      27.412  43.980  52.025  1.00  0.00    -0.343 N 
HETATM   10  C   UNL     1      28.402  43.820  52.889  1.00  0.00     0.112 A 
HETATM   11  H   UNL     1      27.259  43.434  51.168  1.00  0.00     0.167 HD
HETATM   12  N   UNL     1      28.203  44.685  53.904  1.00  0.00    -0.311 N 
HETATM   13  C   UNL     1      29.561  42.898  52.865  1.00  0.00     0.049 A 
HETATM   14  C   UNL     1      29.068  44.773  54.993  1.00  0.00     0.014 A 
HETATM   15  C   UNL     1      27.035  45.396  53.658  1.00  0.00     0.125 A 
HETATM   16  C   UNL     1      28.813  45.743  56.108  1.00  0.00     0.068 C 
HETATM   17  C   UNL     1      30.131  43.937  54.982  1.00  0.00     0.025 A 
HETATM   18  C   UNL     1      30.398  42.980  53.913  1.00  0.00     0.006 A 
ENDBRANCH   7   8
ENDBRANCH   1   7
BRANCH   3  19
HETATM   19  C   UNL     1      24.515  49.138  48.700  1.00  0.00     0.085 C 
HETATM   20  C   UNL     1      25.677  49.860  48.019  1.00  0.00     0.032 C 
BRANCH  19  21
HETATM   21  C   UNL     1      23.307  50.036  49.034  1.00  0.00     0.063 C 
BRANCH  21  22
HETATM   22  C   UNL     1      21.920  49.463  48.720  1.00  0.00     0.177 C 
BRANCH  22  23
HETATM   23  O   UNL     1      21.689  48.284  49.487  1.00  0.00    -0.389 OA
HETATM   24  H   UNL     1      20.853  48.418  49.966  1.00  0.00     0.210 HD
ENDBRANCH  22  23
BRANCH  22  25
HETATM   25  C   UNL     1      20.792  50.401  48.977  1.00  0.00     0.081 A 
HETATM   26  O   UNL     1      19.951  50.088  50.009  1.00  0.00    -0.324 OA
HETATM   27  C   UNL     1      19.016  51.070  50.074  1.00  0.00     0.142 A 
HETATM   28  C   UNL     1      19.244  52.019  49.107  1.00  0.00     0.027 A 
HETATM   29  C   UNL     1      20.393  51.591  48.401  1.00  0.00     0.037 A 
ENDBRANCH  22  25
ENDBRANCH  21  22
ENDBRANCH  19  21
ENDBRANCH   3  19
TORSDOF 7
ENDMDL
MODEL 5
REMARK VINA RESULT:      -8.4      2.190      3.771
REMARK  7 active torsions:
REMARK  status: ('A' for Active; 'I' for Inactive)
REMARK    1  A    between atoms: C_7  and  C_8 
REMARK    2  A    between atoms: C_8  and  N_9 
REMARK       I    between atoms: N_9  and  C_10 
REMARK       I    between atoms: C_10  and  N_11 
REMARK    3  A    between atoms: N_11  and  C_12 
REMARK    4  A    between atoms: C_12  and  C_13 
REMARK    5  A    between atoms: C_13  and  C_14 
REMARK    6  A    between atoms: C_14  and  O_15 
REMARK    7  A    between atoms: C_14  and  C_16 
ROOT
HETATM    1  N   UNL     1      25.643  46.393  53.515  1.00  0.00    -0.337 N 
HETATM    2  C   UNL     1      25.786  46.613  52.168  1.00  0.00     0.316 C 
HETATM    3  N   UNL     1      24.952  45.819  51.439  1.00  0.00    -0.339 N 
HETATM    4  O   UNL     1      26.603  47.401  51.705  1.00  0.00    -0.247 OA
HETATM    5  H   UNL     1      24.706  46.119  53.777  1.00  0.00     0.164 HD
HETATM    6  H   UNL     1      24.549  45.016  51.902  1.00  0.00     0.164 HD
ENDROOT
BRANCH   1   7
HETATM    7  C   UNL     1      26.358  47.214  54.477  1.00  0.00     0.183 C 
BRANCH   7   8
HETATM    8  C   UNL     1      27.486  46.455  55.075  1.00  0.00     0.044 A 
HETATM    9  N   UNL     1      28.017  46.759  56.322  1.00  0.00    -0.343 N 
HETATM   10  C   UNL     1      29.039  45.970  56.612  1.00  0.00     0.112 A 
HETATM   11  H   UNL     1      27.678  47.548  56.888  1.00  0.00     0.167 HD
HETATM   12  N   UNL     1      29.193  45.109  55.586  1.00  0.00    -0.311 N 
HETATM   13  C   UNL     1      29.928  45.941  57.795  1.00  0.00     0.049 A 
HETATM   14  C   UNL     1      30.192  44.136  55.568  1.00  0.00     0.014 A 
HETATM   15  C   UNL     1      28.233  45.389  54.622  1.00  0.00     0.125 A 
HETATM   16  C   UNL     1      30.338  43.198  54.409  1.00  0.00     0.068 C 
HETATM   17  C   UNL     1      31.010  44.100  56.645  1.00  0.00     0.025 A 
HETATM   18  C   UNL     1      30.892  45.006  57.783  1.00  0.00     0.006 A 
ENDBRANCH   7   8
ENDBRANCH   1   7
BRANCH   3  19
HETATM   19  C   UNL     1      24.835  45.842  49.974  1.00  0.00     0.085 C 
HETATM   20  C   UNL     1      23.488  46.405  49.525  1.00  0.00     0.032 C 
BRANCH  19  21
HETATM   21  C   UNL     1      25.179  44.455  49.391  1.00  0.00     0.063 C 
BRANCH  21  22
HETATM   22  C   UNL     1      26.655  44.044  49.430  1.00  0.00     0.177 C 
BRANCH  22  23
HETATM   23  O   UNL     1      27.480  45.187  49.647  1.00  0.00    -0.389 OA
HETATM   24  H   UNL     1      28.324  45.015  49.195  1.00  0.00     0.210 HD
ENDBRANCH  22  23
BRANCH  22  25
HETATM   25  C   UNL     1      26.988  43.038  50.476  1.00  0.00     0.081 A 
HETATM   26  O   UNL     1      26.985  43.471  51.774  1.00  0.00    -0.324 OA
HETATM   27  C   UNL     1      27.297  42.404  52.553  1.00  0.00     0.142 A 
HETATM   28  C   UNL     1      27.492  41.284  51.780  1.00  0.00     0.027 A 
HETATM   29  C   UNL     1      27.288  41.690  50.441  1.00  0.00     0.037 A 
ENDBRANCH  22  25
ENDBRANCH  21  22
ENDBRANCH  19  21
ENDBRANCH   3  19
TORSDOF 7
ENDMDL
MODEL 6
REMARK VINA RESULT:      -8.3     12.406     13.583
REMARK  7 active torsions:
REMARK  status: ('A' for Active; 'I' for Inactive)
REMARK    1  A    between atoms: C_7  and  C_8 
REMARK    2  A    between atoms: C_8  and  N_9 
REMARK       I    between atoms: N_9  and  C_10 
REMARK       I    between atoms: C_10  and  N_11 
REMARK    3  A    between atoms: N_11  and  C_12 
REMARK    4  A    between atoms: C_12  and  C_13 
REMARK    5  A    between atoms: C_13  and  C_14 
REMARK    6  A    between atoms: C_14  and  O_15 
REMARK    7  A    between atoms: C_14  and  C_16 
ROOT
HETATM    1  N   UNL     1      30.944  48.249  39.778  1.00  0.00    -0.337 N 
HETATM    2  C   UNL     1      29.659  48.347  40.251  1.00  0.00     0.316 C 
HETATM    3  N   UNL     1      28.801  48.782  39.284  1.00  0.00    -0.339 N 
HETATM    4  O   UNL     1      29.358  48.111  41.415  1.00  0.00    -0.247 OA
HETATM    5  H   UNL     1      30.989  48.016  38.795  1.00  0.00     0.164 HD
HETATM    6  H   UNL     1      29.201  49.221  38.468  1.00  0.00     0.164 HD
ENDROOT
BRANCH   1   7
HETATM    7  C   UNL     1      31.997  47.698  40.612  1.00  0.00     0.183 C 
BRANCH   7   8
HETATM    8  C   UNL     1      32.734  48.785  41.307  1.00  0.00     0.044 A 
HETATM    9  N   UNL     1      34.061  49.087  41.031  1.00  0.00    -0.343 N 
HETATM   10  C   UNL     1      34.502  50.061  41.810  1.00  0.00     0.112 A 
HETATM   11  H   UNL     1      34.617  48.554  40.350  1.00  0.00     0.167 HD
HETATM   12  N   UNL     1      33.478  50.449  42.598  1.00  0.00    -0.311 N 
HETATM   13  C   UNL     1      35.839  50.690  41.904  1.00  0.00     0.049 A 
HETATM   14  C   UNL     1      33.605  51.462  43.547  1.00  0.00     0.014 A 
HETATM   15  C   UNL     1      32.367  49.672  42.297  1.00  0.00     0.125 A 
HETATM   16  C   UNL     1      32.448  51.864  44.411  1.00  0.00     0.068 C 
HETATM   17  C   UNL     1      34.823  52.044  43.641  1.00  0.00     0.025 A 
HETATM   18  C   UNL     1      35.967  51.667  42.817  1.00  0.00     0.006 A 
ENDBRANCH   7   8
ENDBRANCH   1   7
BRANCH   3  19
HETATM   19  C   UNL     1      27.352  48.953  39.461  1.00  0.00     0.085 C 
HETATM   20  C   UNL     1      26.562  48.231  38.370  1.00  0.00     0.032 C 
BRANCH  19  21
HETATM   21  C   UNL     1      27.009  50.448  39.620  1.00  0.00     0.063 C 
BRANCH  21  22
HETATM   22  C   UNL     1      27.379  51.096  40.960  1.00  0.00     0.177 C 
BRANCH  22  23
HETATM   23  O   UNL     1      27.383  50.117  41.996  1.00  0.00    -0.389 OA
HETATM   24  H   UNL     1      26.664  50.351  42.608  1.00  0.00     0.210 HD
ENDBRANCH  22  23
BRANCH  22  25
HETATM   25  C   UNL     1      28.705  51.775  40.970  1.00  0.00     0.081 A 
HETATM   26  O   UNL     1      29.392  51.808  39.788  1.00  0.00    -0.324 OA
HETATM   27  C   UNL     1      30.551  52.477  40.018  1.00  0.00     0.142 A 
HETATM   28  C   UNL     1      30.620  52.888  41.328  1.00  0.00     0.027 A 
HETATM   29  C   UNL     1      29.427  52.439  41.942  1.00  0.00     0.037 A 
ENDBRANCH  22  25
ENDBRANCH  21  22
ENDBRANCH  19  21
ENDBRANCH   3  19
TORSDOF 7
ENDMDL
MODEL 7
REMARK VINA RESULT:      -8.2      2.677      4.103
REMARK  7 active torsions:
REMARK  status: ('A' for Active; 'I' for Inactive)
REMARK    1  A    between atoms: C_7  and  C_8 
REMARK    2  A    between atoms: C_8  and  N_9 
REMARK       I    between atoms: N_9  and  C_10 
REMARK       I    between atoms: C_10  and  N_11 
REMARK    3  A    between atoms: N_11  and  C_12 
REMARK    4  A    between atoms: C_12  and  C_13 
REMARK    5  A    between atoms: C_13  and  C_14 
REMARK    6  A    between atoms: C_14  and  O_15 
REMARK    7  A    between atoms: C_14  and  C_16 
ROOT
HETATM    1  N   UNL     1      25.613  46.054  51.455  1.00  0.00    -0.337 N 
HETATM    2  C   UNL     1      25.755  46.575  50.193  1.00  0.00     0.316 C 
HETATM    3  N   UNL     1      25.289  47.855  50.124  1.00  0.00    -0.339 N 
HETATM    4  O   UNL     1      26.207  45.930  49.253  1.00  0.00    -0.247 OA
HETATM    5  H   UNL     1      25.683  46.752  52.184  1.00  0.00     0.164 HD
HETATM    6  H   UNL     1      24.681  48.170  50.866  1.00  0.00     0.164 HD
ENDROOT
BRANCH   1   7
HETATM    7  C   UNL     1      26.147  44.742  51.776  1.00  0.00     0.183 C 
BRANCH   7   8
HETATM    8  C   UNL     1      27.075  44.826  52.933  1.00  0.00     0.044 A 
HETATM    9  N   UNL     1      26.951  45.789  53.926  1.00  0.00    -0.343 N 
HETATM   10  C   UNL     1      27.921  45.681  54.820  1.00  0.00     0.112 A 
HETATM   11  H   UNL     1      26.227  46.518  53.899  1.00  0.00     0.167 HD
HETATM   12  N   UNL     1      28.691  44.633  54.464  1.00  0.00    -0.311 N 
HETATM   13  C   UNL     1      28.218  46.495  56.021  1.00  0.00     0.049 A 
HETATM   14  C   UNL     1      29.812  44.244  55.196  1.00  0.00     0.014 A 
HETATM   15  C   UNL     1      28.178  44.083  53.296  1.00  0.00     0.125 A 
HETATM   16  C   UNL     1      30.649  43.078  54.767  1.00  0.00     0.068 C 
HETATM   17  C   UNL     1      30.093  44.980  56.295  1.00  0.00     0.025 A 
HETATM   18  C   UNL     1      29.298  46.124  56.730  1.00  0.00     0.006 A 
ENDBRANCH   7   8
ENDBRANCH   1   7
BRANCH   3  19
HETATM   19  C   UNL     1      25.335  48.703  48.925  1.00  0.00     0.085 C 
HETATM   20  C   UNL     1      26.690  49.393  48.774  1.00  0.00     0.032 C 
BRANCH  19  21
HETATM   21  C   UNL     1      24.122  49.655  48.900  1.00  0.00     0.063 C 
BRANCH  21  22
HETATM   22  C   UNL     1      22.748  49.007  48.693  1.00  0.00     0.177 C 
BRANCH  22  23
HETATM   23  O   UNL     1      22.559  47.944  49.624  1.00  0.00    -0.389 OA
HETATM   24  H   UNL     1      23.166  47.230  49.362  1.00  0.00     0.210 HD
ENDBRANCH  22  23
BRANCH  22  25
HETATM   25  C   UNL     1      21.597  49.943  48.833  1.00  0.00     0.081 A 
HETATM   26  O   UNL     1      20.508  49.485  49.522  1.00  0.00    -0.324 OA
HETATM   27  C   UNL     1      19.595  50.489  49.540  1.00  0.00     0.142 A 
HETATM   28  C   UNL     1      20.081  51.594  48.883  1.00  0.00     0.027 A 
HETATM   29  C   UNL     1      21.374  51.245  48.431  1.00  0.00     0.037 A 
ENDBRANCH  22  25
ENDBRANCH  21  22
ENDBRANCH  19  21
ENDBRANCH   3  19
TORSDOF 7
ENDMDL
MODEL 8
REMARK VINA RESULT:      -8.2      4.006      6.176
REMARK  7 active torsions:
REMARK  status: ('A' for Active; 'I' for Inactive)
REMARK    1  A    between atoms: C_7  and  C_8 
REMARK    2  A    between atoms: C_8  and  N_9 
REMARK       I    between atoms: N_9  and  C_10 
REMARK       I    between atoms: C_10  and  N_11 
REMARK    3  A    between atoms: N_11  and  C_12 
REMARK    4  A    between atoms: C_12  and  C_13 
REMARK    5  A    between atoms: C_13  and  C_14 
REMARK    6  A    between atoms: C_14  and  O_15 
REMARK    7  A    between atoms: C_14  and  C_16 
ROOT
HETATM    1  N   UNL     1      25.348  43.893  52.668  1.00  0.00    -0.337 N 
HETATM    2  C   UNL     1      25.739  43.498  51.412  1.00  0.00     0.316 C 
HETATM    3  N   UNL     1      25.106  42.355  51.027  1.00  0.00    -0.339 N 
HETATM    4  O   UNL     1      26.589  44.096  50.762  1.00  0.00    -0.247 OA
HETATM    5  H   UNL     1      24.393  43.641  52.885  1.00  0.00     0.164 HD
HETATM    6  H   UNL     1      24.663  41.801  51.746  1.00  0.00     0.164 HD
ENDROOT
BRANCH   1   7
HETATM    7  C   UNL     1      25.817  45.149  53.226  1.00  0.00     0.183 C 
BRANCH   7   8
HETATM    8  C   UNL     1      27.084  44.946  53.975  1.00  0.00     0.044 A 
HETATM    9  N   UNL     1      28.052  44.033  53.577  1.00  0.00    -0.343 N 
HETATM   10  C   UNL     1      29.064  44.007  54.430  1.00  0.00     0.112 A 
HETATM   11  H   UNL     1      27.932  43.424  52.758  1.00  0.00     0.167 HD
HETATM   12  N   UNL     1      28.810  44.917  55.393  1.00  0.00    -0.311 N 
HETATM   13  C   UNL     1      30.292  43.181  54.442  1.00  0.00     0.049 A 
HETATM   14  C   UNL     1      29.680  45.142  56.459  1.00  0.00     0.014 A 
HETATM   15  C   UNL     1      27.586  45.516  55.125  1.00  0.00     0.125 A 
HETATM   16  C   UNL     1      29.363  46.157  57.515  1.00  0.00     0.068 C 
HETATM   17  C   UNL     1      30.806  44.393  56.480  1.00  0.00     0.025 A 
HETATM   18  C   UNL     1      31.134  43.395  55.467  1.00  0.00     0.006 A 
ENDBRANCH   7   8
ENDBRANCH   1   7
BRANCH   3  19
HETATM   19  C   UNL     1      25.276  41.698  49.723  1.00  0.00     0.085 C 
HETATM   20  C   UNL     1      23.939  41.511  49.008  1.00  0.00     0.032 C 
BRANCH  19  21
HETATM   21  C   UNL     1      26.106  40.407  49.883  1.00  0.00     0.063 C 
BRANCH  21  22
HETATM   22  C   UNL     1      27.446  40.541  50.614  1.00  0.00     0.177 C 
BRANCH  22  23
HETATM   23  O   UNL     1      27.254  40.419  52.022  1.00  0.00    -0.389 OA
HETATM   24  H   UNL     1      27.673  39.583  52.291  1.00  0.00     0.210 HD
ENDBRANCH  22  23
BRANCH  22  25
HETATM   25  C   UNL     1      28.474  39.543  50.207  1.00  0.00     0.081 A 
HETATM   26  O   UNL     1      29.175  38.933  51.211  1.00  0.00    -0.324 OA
HETATM   27  C   UNL     1      30.037  38.063  50.625  1.00  0.00     0.142 A 
HETATM   28  C   UNL     1      29.898  38.093  49.257  1.00  0.00     0.027 A 
HETATM   29  C   UNL     1      28.886  39.044  48.987  1.00  0.00     0.037 A 
ENDBRANCH  22  25
ENDBRANCH  21  22
ENDBRANCH  19  21
ENDBRANCH   3  19
TORSDOF 7
ENDMDL
MODEL 9
REMARK VINA RESULT:      -8.1      5.768      7.199
REMARK  7 active torsions:
REMARK  status: ('A' for Active; 'I' for Inactive)
REMARK    1  A    between atoms: C_7  and  C_8 
REMARK    2  A    between atoms: C_8  and  N_9 
REMARK       I    between atoms: N_9  and  C_10 
REMARK       I    between atoms: C_10  and  N_11 
REMARK    3  A    between atoms: N_11  and  C_12 
REMARK    4  A    between atoms: C_12  and  C_13 
REMARK    5  A    between atoms: C_13  and  C_14 
REMARK    6  A    between atoms: C_14  and  O_15 
REMARK    7  A    between atoms: C_14  and  C_16 
ROOT
HETATM    1  N   UNL     1      28.994  41.334  51.721  1.00  0.00    -0.337 N 
HETATM    2  C   UNL     1      28.459  40.239  51.088  1.00  0.00     0.316 C 
HETATM    3  N   UNL     1      29.354  39.213  51.020  1.00  0.00    -0.339 N 
HETATM    4  O   UNL     1      27.329  40.231  50.613  1.00  0.00    -0.247 OA
HETATM    5  H   UNL     1      29.674  41.092  52.429  1.00  0.00     0.164 HD
HETATM    6  H   UNL     1      30.328  39.432  51.174  1.00  0.00     0.164 HD
ENDROOT
BRANCH   1   7
HETATM    7  C   UNL     1      28.173  42.499  52.000  1.00  0.00     0.183 C 
BRANCH   7   8
HETATM    8  C   UNL     1      28.696  43.236  53.179  1.00  0.00     0.044 A 
HETATM    9  N   UNL     1      29.751  42.765  53.949  1.00  0.00    -0.343 N 
HETATM   10  C   UNL     1      30.001  43.577  54.965  1.00  0.00     0.112 A 
HETATM   11  H   UNL     1      30.209  41.864  53.765  1.00  0.00     0.167 HD
HETATM   12  N   UNL     1      29.145  44.615  54.878  1.00  0.00    -0.311 N 
HETATM   13  C   UNL     1      30.995  43.475  56.057  1.00  0.00     0.049 A 
HETATM   14  C   UNL     1      29.136  45.658  55.803  1.00  0.00     0.014 A 
HETATM   15  C   UNL     1      28.328  44.426  53.770  1.00  0.00     0.125 A 
HETATM   16  C   UNL     1      28.166  46.794  55.679  1.00  0.00     0.068 C 
HETATM   17  C   UNL     1      30.040  45.576  56.805  1.00  0.00     0.025 A 
HETATM   18  C   UNL     1      30.990  44.478  56.951  1.00  0.00     0.006 A 
ENDBRANCH   7   8
ENDBRANCH   1   7
BRANCH   3  19
HETATM   19  C   UNL     1      29.076  37.892  50.440  1.00  0.00     0.085 C 
HETATM   20  C   UNL     1      29.767  36.776  51.222  1.00  0.00     0.032 C 
BRANCH  19  21
HETATM   21  C   UNL     1      29.380  37.900  48.928  1.00  0.00     0.063 C 
BRANCH  21  22
HETATM   22  C   UNL     1      28.170  37.918  47.987  1.00  0.00     0.177 C 
BRANCH  22  23
HETATM   23  O   UNL     1      26.960  37.957  48.740  1.00  0.00    -0.389 OA
HETATM   24  H   UNL     1      26.771  37.044  49.017  1.00  0.00     0.210 HD
ENDBRANCH  22  23
BRANCH  22  25
HETATM   25  C   UNL     1      28.147  39.062  47.032  1.00  0.00     0.081 A 
HETATM   26  O   UNL     1      28.087  38.754  45.700  1.00  0.00    -0.324 OA
HETATM   27  C   UNL     1      28.063  39.928  45.019  1.00  0.00     0.142 A 
HETATM   28  C   UNL     1      28.096  40.991  45.890  1.00  0.00     0.027 A 
HETATM   29  C   UNL     1      28.145  40.433  47.189  1.00  0.00     0.037 A 
ENDBRANCH  22  25
ENDBRANCH  21  22
ENDBRANCH  19  21
ENDBRANCH   3  19
TORSDOF 7
ENDMDL
MODEL 10
REMARK VINA RESULT:      -8.1      1.766      2.474
REMARK  7 active torsions:
REMARK  status: ('A' for Active; 'I' for Inactive)
REMARK    1  A    between atoms: C_7  and  C_8 
REMARK    2  A    between atoms: C_8  and  N_9 
REMARK       I    between atoms: N_9  and  C_10 
REMARK       I    between atoms: C_10  and  N_11 
REMARK    3  A    between atoms: N_11  and  C_12 
REMARK    4  A    between atoms: C_12  and  C_13 
REMARK    5  A    between atoms: C_13  and  C_14 
REMARK    6  A    between atoms: C_14  and  O_15 
REMARK    7  A    between atoms: C_14  and  C_16 
ROOT
HETATM    1  N   UNL     1      26.285  46.204  52.590  1.00  0.00    -0.337 N 
HETATM    2  C   UNL     1      25.628  45.081  52.152  1.00  0.00     0.316 C 
HETATM    3  N   UNL     1      25.893  44.824  50.840  1.00  0.00    -0.339 N 
HETATM    4  O   UNL     1      24.867  44.435  52.864  1.00  0.00    -0.247 OA
HETATM    5  H   UNL     1      27.169  46.355  52.122  1.00  0.00     0.164 HD
HETATM    6  H   UNL     1      26.286  45.574  50.288  1.00  0.00     0.164 HD
ENDROOT
BRANCH   1   7
HETATM    7  C   UNL     1      26.230  46.593  53.988  1.00  0.00     0.183 C 
BRANCH   7   8
HETATM    8  C   UNL     1      27.382  46.024  54.734  1.00  0.00     0.044 A 
HETATM    9  N   UNL     1      27.783  46.505  55.973  1.00  0.00    -0.343 N 
HETATM   10  C   UNL     1      28.856  45.864  56.410  1.00  0.00     0.112 A 
HETATM   11  H   UNL     1      27.324  47.303  56.430  1.00  0.00     0.167 HD
HETATM   12  N   UNL     1      29.174  44.929  55.492  1.00  0.00    -0.311 N 
HETATM   13  C   UNL     1      29.652  46.048  57.645  1.00  0.00     0.049 A 
HETATM   14  C   UNL     1      30.266  44.074  55.642  1.00  0.00     0.014 A 
HETATM   15  C   UNL     1      28.266  45.007  54.445  1.00  0.00     0.125 A 
HETATM   16  C   UNL     1      30.595  43.049  54.599  1.00  0.00     0.068 C 
HETATM   17  C   UNL     1      31.000  44.233  56.767  1.00  0.00     0.025 A 
HETATM   18  C   UNL     1      30.705  45.227  57.793  1.00  0.00     0.006 A 
ENDBRANCH   7   8
ENDBRANCH   1   7
BRANCH   3  19
HETATM   19  C   UNL     1      25.375  43.674  50.086  1.00  0.00     0.085 C 
HETATM   20  C   UNL     1      26.486  42.687  49.730  1.00  0.00     0.032 C 
BRANCH  19  21
HETATM   21  C   UNL     1      24.537  44.159  48.885  1.00  0.00     0.063 C 
BRANCH  21  22
HETATM   22  C   UNL     1      23.170  44.771  49.208  1.00  0.00     0.177 C 
BRANCH  22  23
HETATM   23  O   UNL     1      22.789  44.451  50.544  1.00  0.00    -0.389 OA
HETATM   24  H   UNL     1      22.761  43.481  50.604  1.00  0.00     0.210 HD
ENDBRANCH  22  23
BRANCH  22  25
HETATM   25  C   UNL     1      23.106  46.252  49.059  1.00  0.00     0.081 A 
HETATM   26  O   UNL     1      24.076  46.979  49.692  1.00  0.00    -0.324 OA
HETATM   27  C   UNL     1      23.840  48.287  49.417  1.00  0.00     0.142 A 
HETATM   28  C   UNL     1      22.737  48.417  48.606  1.00  0.00     0.027 A 
HETATM   29  C   UNL     1      22.266  47.105  48.371  1.00  0.00     0.037 A 
ENDBRANCH  22  25
ENDBRANCH  21  22
ENDBRANCH  19  21
ENDBRANCH   3  19
TORSDOF 7
ENDMDL
