MODEL 1
REMARK VINA RESULT:      -7.9      0.000      0.000
REMARK  4 active torsions:
REMARK  status: ('A' for Active; 'I' for Inactive)
REMARK    1  A    between atoms: O_2  and  C_3 
REMARK    2  A    between atoms: C_5  and  C_6 
REMARK    3  A    between atoms: C_10  and  N_11 
REMARK    4  A    between atoms: C_14  and  C_15 
ROOT
HETATM    1  C   UNL     1      27.770  50.045  40.755  1.00  0.00     0.164 C 
HETATM    2  N   UNL     1      27.186  49.643  39.480  1.00  0.00    -0.074 N 
HETATM    3  C   UNL     1      27.155  50.429  38.361  1.00  0.00     0.736 A 
HETATM    4  N   UNL     1      26.586  49.760  37.391  1.00  0.00     0.131 NA
HETATM    5  C   UNL     1      26.226  48.589  37.992  1.00  0.00     0.753 A 
HETATM    6  N   UNL     1      26.576  48.462  39.271  1.00  0.00     0.037 NA
HETATM    7  N   UNL     1      27.651  51.679  38.365  1.00  0.00    -0.214 N 
HETATM    8  C   UNL     1      28.267  52.263  39.547  1.00  0.00     0.135 C 
HETATM    9  C   UNL     1      27.732  51.587  40.831  1.00  0.00     0.063 C 
HETATM   10  H   UNL     1      27.707  52.198  37.494  1.00  0.00     0.178 HD
ENDROOT
BRANCH   1  11
HETATM   11  C   UNL     1      29.148  49.440  41.029  1.00  0.00    -0.030 A 
HETATM   12  C   UNL     1      29.999  49.890  42.060  1.00  0.00     0.046 A 
HETATM   13  C   UNL     1      31.242  49.293  42.290  1.00  0.00     0.068 A 
HETATM   14  C   UNL     1      31.653  48.237  41.480  1.00  0.00     0.037 A 
HETATM   15  C   UNL     1      30.846  47.791  40.438  1.00  0.00     0.003 A 
HETATM   16  C   UNL     1      29.609  48.394  40.208  1.00  0.00     0.009 A 
BRANCH  13  17
HETATM   17  O   UNL     1      32.132  49.643  43.270  1.00  0.00    -0.356 OA
HETATM   18  C   UNL     1      32.225  51.025  43.591  1.00  0.00     0.210 C 
ENDBRANCH  13  17
ENDBRANCH   1  11
BRANCH   8  19
HETATM   19  C   UNL     1      29.786  52.307  39.466  1.00  0.00    -0.035 A 
HETATM   20  C   UNL     1      30.522  51.619  38.487  1.00  0.00     0.010 A 
HETATM   21  C   UNL     1      31.919  51.652  38.483  1.00  0.00     0.019 A 
HETATM   22  C   UNL     1      32.598  52.384  39.452  1.00  0.00     0.011 A 
HETATM   23 BR   UNL     1      34.488  52.418  39.455  1.00  0.00    -0.051 Br
HETATM   24  C   UNL     1      31.893  53.092  40.419  1.00  0.00     0.019 A 
HETATM   25  C   UNL     1      30.496  53.055  40.424  1.00  0.00     0.010 A 
ENDBRANCH   8  19
BRANCH   5  26
HETATM   26  N   UNL     1      25.597  47.670  37.270  1.00  0.00    -0.229 N 
HETATM   27  H   UNL     1      25.059  46.976  37.771  1.00  0.00     0.174 HD
HETATM   28  H   UNL     1      25.213  47.959  36.380  1.00  0.00     0.174 HD
ENDBRANCH   5  26
TORSDOF 4
ENDMDL
MODEL 2
REMARK VINA RESULT:      -7.8      4.290      6.617
REMARK  4 active torsions:
REMARK  status: ('A' for Active; 'I' for Inactive)
REMARK    1  A    between atoms: O_2  and  C_3 
REMARK    2  A    between atoms: C_5  and  C_6 
REMARK    3  A    between atoms: C_10  and  N_11 
REMARK    4  A    between atoms: C_14  and  C_15 
ROOT
HETATM    1  C   UNL     1      32.171  51.951  41.479  1.00  0.00     0.164 C 
HETATM    2  N   UNL     1      33.574  51.558  41.406  1.00  0.00    -0.074 N 
HETATM    3  C   UNL     1      34.071  50.372  41.871  1.00  0.00     0.736 A 
HETATM    4  N   UNL     1      35.355  50.327  41.627  1.00  0.00     0.131 NA
HETATM    5  C   UNL     1      35.607  51.547  41.069  1.00  0.00     0.753 A 
HETATM    6  N   UNL     1      34.549  52.338  40.904  1.00  0.00     0.037 NA
HETATM    7  N   UNL     1      33.281  49.467  42.475  1.00  0.00    -0.214 N 
HETATM    8  C   UNL     1      31.852  49.681  42.651  1.00  0.00     0.135 C 
HETATM    9  C   UNL     1      31.525  51.192  42.660  1.00  0.00     0.063 C 
HETATM   10  H   UNL     1      33.657  48.555  42.715  1.00  0.00     0.178 HD
ENDROOT
BRANCH   1  11
HETATM   11  C   UNL     1      31.413  51.810  40.158  1.00  0.00    -0.030 A 
HETATM   12  C   UNL     1      30.022  52.015  40.039  1.00  0.00     0.046 A 
HETATM   13  C   UNL     1      29.373  51.899  38.806  1.00  0.00     0.068 A 
HETATM   14  C   UNL     1      30.113  51.566  37.673  1.00  0.00     0.037 A 
HETATM   15  C   UNL     1      31.481  51.331  37.767  1.00  0.00     0.003 A 
HETATM   16  C   UNL     1      32.123  51.442  39.000  1.00  0.00     0.009 A 
BRANCH  13  17
HETATM   17  O   UNL     1      28.037  52.091  38.580  1.00  0.00    -0.356 OA
HETATM   18  C   UNL     1      27.257  50.932  38.315  1.00  0.00     0.210 C 
ENDBRANCH  13  17
ENDBRANCH   1  11
BRANCH   8  19
HETATM   19  C   UNL     1      31.005  48.877  41.675  1.00  0.00    -0.035 A 
HETATM   20  C   UNL     1      31.551  48.138  40.614  1.00  0.00     0.010 A 
HETATM   21  C   UNL     1      30.728  47.455  39.714  1.00  0.00     0.019 A 
HETATM   22  C   UNL     1      29.346  47.492  39.874  1.00  0.00     0.011 A 
HETATM   23 BR   UNL     1      28.232  46.579  38.650  1.00  0.00    -0.051 Br
HETATM   24  C   UNL     1      28.780  48.199  40.929  1.00  0.00     0.019 A 
HETATM   25  C   UNL     1      29.605  48.885  41.825  1.00  0.00     0.010 A 
ENDBRANCH   8  19
BRANCH   5  26
HETATM   26  N   UNL     1      36.851  51.838  40.709  1.00  0.00    -0.229 N 
HETATM   27  H   UNL     1      37.264  51.276  39.976  1.00  0.00     0.174 HD
HETATM   28  H   UNL     1      37.122  52.811  40.716  1.00  0.00     0.174 HD
ENDBRANCH   5  26
TORSDOF 4
ENDMDL
MODEL 3
REMARK VINA RESULT:      -7.7      1.239      2.036
REMARK  4 active torsions:
REMARK  status: ('A' for Active; 'I' for Inactive)
REMARK    1  A    between atoms: O_2  and  C_3 
REMARK    2  A    between atoms: C_5  and  C_6 
REMARK    3  A    between atoms: C_10  and  N_11 
REMARK    4  A    between atoms: C_14  and  C_15 
ROOT
HETATM    1  C   UNL     1      28.209  51.005  40.985  1.00  0.00     0.164 C 
HETATM    2  N   UNL     1      27.473  50.601  39.791  1.00  0.00    -0.074 N 
HETATM    3  C   UNL     1      27.568  51.222  38.577  1.00  0.00     0.736 A 
HETATM    4  N   UNL     1      26.800  50.597  37.721  1.00  0.00     0.131 NA
HETATM    5  C   UNL     1      26.203  49.637  38.486  1.00  0.00     0.753 A 
HETATM    6  N   UNL     1      26.585  49.591  39.761  1.00  0.00     0.037 NA
HETATM    7  N   UNL     1      28.350  52.301  38.397  1.00  0.00    -0.214 N 
HETATM    8  C   UNL     1      29.156  52.860  39.472  1.00  0.00     0.135 C 
HETATM    9  C   UNL     1      28.549  52.506  40.850  1.00  0.00     0.063 C 
HETATM   10  H   UNL     1      28.480  52.676  37.463  1.00  0.00     0.178 HD
ENDROOT
BRANCH   1  11
HETATM   11  C   UNL     1      29.414  50.118  41.304  1.00  0.00    -0.030 A 
HETATM   12  C   UNL     1      29.724  48.946  40.583  1.00  0.00     0.046 A 
HETATM   13  C   UNL     1      30.850  48.178  40.893  1.00  0.00     0.068 A 
HETATM   14  C   UNL     1      31.679  48.572  41.941  1.00  0.00     0.037 A 
HETATM   15  C   UNL     1      31.381  49.709  42.687  1.00  0.00     0.003 A 
HETATM   16  C   UNL     1      30.253  50.469  42.378  1.00  0.00     0.009 A 
BRANCH  13  17
HETATM   17  O   UNL     1      31.247  47.038  40.248  1.00  0.00    -0.356 OA
HETATM   18  C   UNL     1      30.275  46.383  39.443  1.00  0.00     0.210 C 
ENDBRANCH  13  17
ENDBRANCH   1  11
BRANCH   8  19
HETATM   19  C   UNL     1      30.634  52.517  39.349  1.00  0.00    -0.035 A 
HETATM   20  C   UNL     1      31.139  51.642  38.373  1.00  0.00     0.010 A 
HETATM   21  C   UNL     1      32.499  51.321  38.330  1.00  0.00     0.019 A 
HETATM   22  C   UNL     1      33.373  51.881  39.256  1.00  0.00     0.011 A 
HETATM   23 BR   UNL     1      35.209  51.437  39.207  1.00  0.00    -0.051 Br
HETATM   24  C   UNL     1      32.902  52.768  40.219  1.00  0.00     0.019 A 
HETATM   25  C   UNL     1      31.542  53.084  40.263  1.00  0.00     0.010 A 
ENDBRANCH   8  19
BRANCH   5  26
HETATM   26  N   UNL     1      25.330  48.818  37.911  1.00  0.00    -0.229 N 
HETATM   27  H   UNL     1      25.067  49.019  36.956  1.00  0.00     0.174 HD
HETATM   28  H   UNL     1      25.385  47.838  38.150  1.00  0.00     0.174 HD
ENDBRANCH   5  26
TORSDOF 4
ENDMDL
MODEL 4
REMARK VINA RESULT:      -7.5      2.034      4.139
REMARK  4 active torsions:
REMARK  status: ('A' for Active; 'I' for Inactive)
REMARK    1  A    between atoms: O_2  and  C_3 
REMARK    2  A    between atoms: C_5  and  C_6 
REMARK    3  A    between atoms: C_10  and  N_11 
REMARK    4  A    between atoms: C_14  and  C_15 
ROOT
HETATM    1  C   UNL     1      29.613  49.762  38.952  1.00  0.00     0.164 C 
HETATM    2  N   UNL     1      28.477  49.118  39.605  1.00  0.00    -0.074 N 
HETATM    3  C   UNL     1      28.583  48.123  40.538  1.00  0.00     0.736 A 
HETATM    4  N   UNL     1      27.382  47.789  40.936  1.00  0.00     0.131 NA
HETATM    5  C   UNL     1      26.571  48.567  40.161  1.00  0.00     0.753 A 
HETATM    6  N   UNL     1      27.192  49.405  39.333  1.00  0.00     0.037 NA
HETATM    7  N   UNL     1      29.778  47.633  40.911  1.00  0.00    -0.214 N 
HETATM    8  C   UNL     1      31.027  48.141  40.366  1.00  0.00     0.135 C 
HETATM    9  C   UNL     1      30.798  48.771  38.973  1.00  0.00     0.063 C 
HETATM   10  H   UNL     1      29.829  46.970  41.679  1.00  0.00     0.178 HD
ENDROOT
BRANCH   1  11
HETATM   11  C   UNL     1      29.948  51.147  39.508  1.00  0.00    -0.030 A 
HETATM   12  C   UNL     1      31.240  51.711  39.450  1.00  0.00     0.046 A 
HETATM   13  C   UNL     1      31.498  52.991  39.949  1.00  0.00     0.068 A 
HETATM   14  C   UNL     1      30.460  53.723  40.523  1.00  0.00     0.037 A 
HETATM   15  C   UNL     1      29.182  53.179  40.618  1.00  0.00     0.003 A 
HETATM   16  C   UNL     1      28.932  51.900  40.124  1.00  0.00     0.009 A 
BRANCH  13  17
HETATM   17  O   UNL     1      32.707  53.633  39.928  1.00  0.00    -0.356 OA
HETATM   18  C   UNL     1      33.811  52.908  39.401  1.00  0.00     0.210 C 
ENDBRANCH  13  17
ENDBRANCH   1  11
BRANCH   8  19
HETATM   19  C   UNL     1      31.774  49.048  41.333  1.00  0.00    -0.035 A 
HETATM   20  C   UNL     1      31.175  49.615  42.470  1.00  0.00     0.010 A 
HETATM   21  C   UNL     1      31.890  50.482  43.302  1.00  0.00     0.019 A 
HETATM   22  C   UNL     1      33.217  50.782  43.013  1.00  0.00     0.011 A 
HETATM   23 BR   UNL     1      34.179  51.965  44.131  1.00  0.00    -0.051 Br
HETATM   24  C   UNL     1      33.841  50.217  41.906  1.00  0.00     0.019 A 
HETATM   25  C   UNL     1      33.123  49.354  41.073  1.00  0.00     0.010 A 
ENDBRANCH   8  19
BRANCH   5  26
HETATM   26  N   UNL     1      25.256  48.460  40.308  1.00  0.00    -0.229 N 
HETATM   27  H   UNL     1      24.922  47.944  41.111  1.00  0.00     0.174 HD
HETATM   28  H   UNL     1      24.691  49.250  40.032  1.00  0.00     0.174 HD
ENDBRANCH   5  26
TORSDOF 4
ENDMDL
MODEL 5
REMARK VINA RESULT:      -7.4     12.748     14.804
REMARK  4 active torsions:
REMARK  status: ('A' for Active; 'I' for Inactive)
REMARK    1  A    between atoms: O_2  and  C_3 
REMARK    2  A    between atoms: C_5  and  C_6 
REMARK    3  A    between atoms: C_10  and  N_11 
REMARK    4  A    between atoms: C_14  and  C_15 
ROOT
HETATM    1  C   UNL     1      19.914  49.245  49.922  1.00  0.00     0.164 C 
HETATM    2  N   UNL     1      21.136  49.047  49.149  1.00  0.00    -0.074 N 
HETATM    3  C   UNL     1      21.261  48.163  48.113  1.00  0.00     0.736 A 
HETATM    4  N   UNL     1      22.472  48.254  47.625  1.00  0.00     0.131 NA
HETATM    5  C   UNL     1      23.069  49.165  48.447  1.00  0.00     0.753 A 
HETATM    6  N   UNL     1      22.293  49.687  49.394  1.00  0.00     0.037 NA
HETATM    7  N   UNL     1      20.243  47.368  47.739  1.00  0.00    -0.214 N 
HETATM    8  C   UNL     1      18.946  47.412  48.395  1.00  0.00     0.135 C 
HETATM    9  C   UNL     1      19.083  47.945  49.840  1.00  0.00     0.063 C 
HETATM   10  H   UNL     1      20.334  46.799  46.903  1.00  0.00     0.178 HD
ENDROOT
BRANCH   1  11
HETATM   11  C   UNL     1      19.135  50.507  49.546  1.00  0.00    -0.030 A 
HETATM   12  C   UNL     1      17.852  50.803  50.052  1.00  0.00     0.046 A 
HETATM   13  C   UNL     1      17.186  51.981  49.701  1.00  0.00     0.068 A 
HETATM   14  C   UNL     1      17.797  52.877  48.827  1.00  0.00     0.037 A 
HETATM   15  C   UNL     1      19.051  52.597  48.291  1.00  0.00     0.003 A 
HETATM   16  C   UNL     1      19.709  51.418  48.640  1.00  0.00     0.009 A 
BRANCH  13  17
HETATM   17  O   UNL     1      15.950  52.368  50.145  1.00  0.00    -0.356 OA
HETATM   18  C   UNL     1      15.736  53.764  50.313  1.00  0.00     0.210 C 
ENDBRANCH  13  17
ENDBRANCH   1  11
BRANCH   8  19
HETATM   19  C   UNL     1      17.887  48.135  47.574  1.00  0.00    -0.035 A 
HETATM   20  C   UNL     1      18.185  48.861  46.409  1.00  0.00     0.010 A 
HETATM   21  C   UNL     1      17.185  49.550  45.717  1.00  0.00     0.019 A 
HETATM   22  C   UNL     1      15.871  49.509  46.174  1.00  0.00     0.011 A 
HETATM   23 BR   UNL     1      14.521  50.450  45.245  1.00  0.00    -0.051 Br
HETATM   24  C   UNL     1      15.546  48.779  47.312  1.00  0.00     0.019 A 
HETATM   25  C   UNL     1      16.548  48.096  48.007  1.00  0.00     0.010 A 
ENDBRANCH   8  19
BRANCH   5  26
HETATM   26  N   UNL     1      24.340  49.481  48.229  1.00  0.00    -0.229 N 
HETATM   27  H   UNL     1      25.033  48.772  48.428  1.00  0.00     0.174 HD
HETATM   28  H   UNL     1      24.543  50.078  47.440  1.00  0.00     0.174 HD
ENDBRANCH   5  26
TORSDOF 4
ENDMDL
MODEL 6
REMARK VINA RESULT:      -7.3      2.080      3.956
REMARK  4 active torsions:
REMARK  status: ('A' for Active; 'I' for Inactive)
REMARK    1  A    between atoms: O_2  and  C_3 
REMARK    2  A    between atoms: C_5  and  C_6 
REMARK    3  A    between atoms: C_10  and  N_11 
REMARK    4  A    between atoms: C_14  and  C_15 
ROOT
HETATM    1  C   UNL     1      28.180  48.859  38.592  1.00  0.00     0.164 C 
HETATM    2  N   UNL     1      27.098  48.355  39.433  1.00  0.00    -0.074 N 
HETATM    3  C   UNL     1      27.259  47.436  40.432  1.00  0.00     0.736 A 
HETATM    4  N   UNL     1      26.100  47.224  41.001  1.00  0.00     0.131 NA
HETATM    5  C   UNL     1      25.248  47.992  40.262  1.00  0.00     0.753 A 
HETATM    6  N   UNL     1      25.809  48.712  39.292  1.00  0.00     0.037 NA
HETATM    7  N   UNL     1      28.459  46.893  40.703  1.00  0.00    -0.214 N 
HETATM    8  C   UNL     1      29.659  47.262  39.967  1.00  0.00     0.135 C 
HETATM    9  C   UNL     1      29.295  47.790  38.560  1.00  0.00     0.063 C 
HETATM   10  H   UNL     1      28.566  46.293  41.515  1.00  0.00     0.178 HD
ENDROOT
BRANCH   1  11
HETATM   11  C   UNL     1      28.668  50.257  38.976  1.00  0.00    -0.030 A 
HETATM   12  C   UNL     1      28.487  50.814  40.259  1.00  0.00     0.046 A 
HETATM   13  C   UNL     1      28.971  52.088  40.575  1.00  0.00     0.068 A 
HETATM   14  C   UNL     1      29.639  52.826  39.600  1.00  0.00     0.037 A 
HETATM   15  C   UNL     1      29.807  52.312  38.317  1.00  0.00     0.003 A 
HETATM   16  C   UNL     1      29.317  51.044  38.006  1.00  0.00     0.009 A 
BRANCH  13  17
HETATM   17  O   UNL     1      28.862  52.710  41.788  1.00  0.00    -0.356 OA
HETATM   18  C   UNL     1      30.066  52.919  42.515  1.00  0.00     0.210 C 
ENDBRANCH  13  17
ENDBRANCH   1  11
BRANCH   8  19
HETATM   19  C   UNL     1      30.577  48.189  40.751  1.00  0.00    -0.035 A 
HETATM   20  C   UNL     1      30.404  48.463  42.118  1.00  0.00     0.010 A 
HETATM   21  C   UNL     1      31.244  49.360  42.783  1.00  0.00     0.019 A 
HETATM   22  C   UNL     1      32.277  49.986  42.091  1.00  0.00     0.011 A 
HETATM   23 BR   UNL     1      33.405  51.209  42.987  1.00  0.00    -0.051 Br
HETATM   24  C   UNL     1      32.483  49.716  40.742  1.00  0.00     0.019 A 
HETATM   25  C   UNL     1      31.639  48.822  40.078  1.00  0.00     0.010 A 
ENDBRANCH   8  19
BRANCH   5  26
HETATM   26  N   UNL     1      23.958  47.993  40.575  1.00  0.00    -0.229 N 
HETATM   27  H   UNL     1      23.481  47.101  40.572  1.00  0.00     0.174 HD
HETATM   28  H   UNL     1      23.650  48.648  41.280  1.00  0.00     0.174 HD
ENDBRANCH   5  26
TORSDOF 4
ENDMDL
MODEL 7
REMARK VINA RESULT:      -7.3      2.425      3.394
REMARK  4 active torsions:
REMARK  status: ('A' for Active; 'I' for Inactive)
REMARK    1  A    between atoms: O_2  and  C_3 
REMARK    2  A    between atoms: C_5  and  C_6 
REMARK    3  A    between atoms: C_10  and  N_11 
REMARK    4  A    between atoms: C_14  and  C_15 
ROOT
HETATM    1  C   UNL     1      28.875  47.095  40.687  1.00  0.00     0.164 C 
HETATM    2  N   UNL     1      28.913  46.475  39.366  1.00  0.00    -0.074 N 
HETATM    3  C   UNL     1      28.101  46.827  38.323  1.00  0.00     0.736 A 
HETATM    4  N   UNL     1      28.411  46.096  37.282  1.00  0.00     0.131 NA
HETATM    5  C   UNL     1      29.377  45.264  37.766  1.00  0.00     0.753 A 
HETATM    6  N   UNL     1      29.728  45.458  39.036  1.00  0.00     0.037 NA
HETATM    7  N   UNL     1      27.161  47.780  38.452  1.00  0.00    -0.214 N 
HETATM    8  C   UNL     1      26.964  48.508  39.697  1.00  0.00     0.135 C 
HETATM    9  C   UNL     1      27.458  47.673  40.901  1.00  0.00     0.063 C 
HETATM   10  H   UNL     1      26.647  48.090  37.634  1.00  0.00     0.178 HD
ENDROOT
BRANCH   1  11
HETATM   11  C   UNL     1      30.002  48.098  40.937  1.00  0.00    -0.030 A 
HETATM   12  C   UNL     1      30.320  48.600  42.217  1.00  0.00     0.046 A 
HETATM   13  C   UNL     1      31.375  49.497  42.405  1.00  0.00     0.068 A 
HETATM   14  C   UNL     1      32.123  49.913  41.305  1.00  0.00     0.037 A 
HETATM   15  C   UNL     1      31.813  49.455  40.028  1.00  0.00     0.003 A 
HETATM   16  C   UNL     1      30.756  48.564  39.845  1.00  0.00     0.009 A 
BRANCH  13  17
HETATM   17  O   UNL     1      31.773  50.030  43.601  1.00  0.00    -0.356 OA
HETATM   18  C   UNL     1      32.385  51.313  43.562  1.00  0.00     0.210 C 
ENDBRANCH  13  17
ENDBRANCH   1  11
BRANCH   8  19
HETATM   19  C   UNL     1      27.530  49.920  39.657  1.00  0.00    -0.035 A 
HETATM   20  C   UNL     1      28.044  50.507  38.490  1.00  0.00     0.010 A 
HETATM   21  C   UNL     1      28.598  51.790  38.514  1.00  0.00     0.019 A 
HETATM   22  C   UNL     1      28.633  52.507  39.706  1.00  0.00     0.011 A 
HETATM   23 BR   UNL     1      29.394  54.237  39.743  1.00  0.00    -0.051 Br
HETATM   24  C   UNL     1      28.110  51.958  40.872  1.00  0.00     0.019 A 
HETATM   25  C   UNL     1      27.561  50.673  40.846  1.00  0.00     0.010 A 
ENDBRANCH   8  19
BRANCH   5  26
HETATM   26  N   UNL     1      29.909  44.363  36.947  1.00  0.00    -0.229 N 
HETATM   27  H   UNL     1      29.797  44.518  35.955  1.00  0.00     0.174 HD
HETATM   28  H   UNL     1      30.784  43.940  37.226  1.00  0.00     0.174 HD
ENDBRANCH   5  26
TORSDOF 4
ENDMDL
MODEL 8
REMARK VINA RESULT:      -7.2     12.741     14.493
REMARK  4 active torsions:
REMARK  status: ('A' for Active; 'I' for Inactive)
REMARK    1  A    between atoms: O_2  and  C_3 
REMARK    2  A    between atoms: C_5  and  C_6 
REMARK    3  A    between atoms: C_10  and  N_11 
REMARK    4  A    between atoms: C_14  and  C_15 
ROOT
HETATM    1  C   UNL     1      18.255  52.179  47.798  1.00  0.00     0.164 C 
HETATM    2  N   UNL     1      17.139  52.349  48.723  1.00  0.00    -0.074 N 
HETATM    3  C   UNL     1      16.059  51.513  48.794  1.00  0.00     0.736 A 
HETATM    4  N   UNL     1      15.261  51.935  49.741  1.00  0.00     0.131 NA
HETATM    5  C   UNL     1      15.871  53.076  50.174  1.00  0.00     0.753 A 
HETATM    6  N   UNL     1      17.029  53.373  49.588  1.00  0.00     0.037 NA
HETATM    7  N   UNL     1      15.931  50.458  47.971  1.00  0.00    -0.214 N 
HETATM    8  C   UNL     1      16.937  50.128  46.973  1.00  0.00     0.135 C 
HETATM    9  C   UNL     1      17.743  51.386  46.575  1.00  0.00     0.063 C 
HETATM   10  H   UNL     1      15.172  49.799  48.117  1.00  0.00     0.178 HD
ENDROOT
BRANCH   1  11
HETATM   11  C   UNL     1      19.514  51.593  48.439  1.00  0.00    -0.030 A 
HETATM   12  C   UNL     1      20.634  51.166  47.695  1.00  0.00     0.046 A 
HETATM   13  C   UNL     1      21.774  50.657  48.324  1.00  0.00     0.068 A 
HETATM   14  C   UNL     1      21.804  50.563  49.714  1.00  0.00     0.037 A 
HETATM   15  C   UNL     1      20.702  50.951  50.471  1.00  0.00     0.003 A 
HETATM   16  C   UNL     1      19.565  51.452  49.839  1.00  0.00     0.009 A 
BRANCH  13  17
HETATM   17  O   UNL     1      22.914  50.232  47.697  1.00  0.00    -0.356 OA
HETATM   18  C   UNL     1      23.884  49.575  48.504  1.00  0.00     0.210 C 
ENDBRANCH  13  17
ENDBRANCH   1  11
BRANCH   8  19
HETATM   19  C   UNL     1      17.806  48.944  47.373  1.00  0.00    -0.035 A 
HETATM   20  C   UNL     1      17.778  48.370  48.654  1.00  0.00     0.010 A 
HETATM   21  C   UNL     1      18.631  47.315  48.988  1.00  0.00     0.019 A 
HETATM   22  C   UNL     1      19.516  46.811  48.039  1.00  0.00     0.011 A 
HETATM   23 BR   UNL     1      20.679  45.393  48.494  1.00  0.00    -0.051 Br
HETATM   24  C   UNL     1      19.548  47.347  46.756  1.00  0.00     0.019 A 
HETATM   25  C   UNL     1      18.697  48.406  46.425  1.00  0.00     0.010 A 
ENDBRANCH   8  19
BRANCH   5  26
HETATM   26  N   UNL     1      15.297  53.775  51.147  1.00  0.00    -0.229 N 
HETATM   27  H   UNL     1      15.372  53.408  52.086  1.00  0.00     0.174 HD
HETATM   28  H   UNL     1      15.316  54.783  51.070  1.00  0.00     0.174 HD
ENDBRANCH   5  26
TORSDOF 4
ENDMDL
MODEL 9
REMARK VINA RESULT:      -7.0      5.106      7.097
REMARK  4 active torsions:
REMARK  status: ('A' for Active; 'I' for Inactive)
REMARK    1  A    between atoms: O_2  and  C_3 
REMARK    2  A    between atoms: C_5  and  C_6 
REMARK    3  A    between atoms: C_10  and  N_11 
REMARK    4  A    between atoms: C_14  and  C_15 
ROOT
HETATM    1  C   UNL     1      35.653  50.553  41.038  1.00  0.00     0.164 C 
HETATM    2  N   UNL     1      36.250  51.729  41.664  1.00  0.00    -0.074 N 
HETATM    3  C   UNL     1      36.216  52.988  41.132  1.00  0.00     0.736 A 
HETATM    4  N   UNL     1      36.819  53.809  41.954  1.00  0.00     0.131 NA
HETATM    5  C   UNL     1      37.264  52.984  42.945  1.00  0.00     0.753 A 
HETATM    6  N   UNL     1      36.937  51.699  42.820  1.00  0.00     0.037 NA
HETATM    7  N   UNL     1      35.636  53.236  39.945  1.00  0.00    -0.214 N 
HETATM    8  C   UNL     1      34.994  52.190  39.164  1.00  0.00     0.135 C 
HETATM    9  C   UNL     1      35.586  50.805  39.516  1.00  0.00     0.063 C 
HETATM   10  H   UNL     1      35.536  54.195  39.627  1.00  0.00     0.178 HD
ENDROOT
BRANCH   1  11
HETATM   11  C   UNL     1      34.322  50.125  41.658  1.00  0.00    -0.030 A 
HETATM   12  C   UNL     1      33.667  50.860  42.669  1.00  0.00     0.046 A 
HETATM   13  C   UNL     1      32.439  50.445  43.191  1.00  0.00     0.068 A 
HETATM   14  C   UNL     1      31.851  49.277  42.710  1.00  0.00     0.037 A 
HETATM   15  C   UNL     1      32.488  48.517  41.733  1.00  0.00     0.003 A 
HETATM   16  C   UNL     1      33.717  48.932  41.220  1.00  0.00     0.009 A 
BRANCH  13  17
HETATM   17  O   UNL     1      31.717  51.092  44.158  1.00  0.00    -0.356 OA
HETATM   18  C   UNL     1      32.413  52.047  44.949  1.00  0.00     0.210 C 
ENDBRANCH  13  17
ENDBRANCH   1  11
BRANCH   8  19
HETATM   19  C   UNL     1      33.474  52.241  39.235  1.00  0.00    -0.035 A 
HETATM   20  C   UNL     1      32.776  53.099  40.100  1.00  0.00     0.010 A 
HETATM   21  C   UNL     1      31.380  53.075  40.164  1.00  0.00     0.019 A 
HETATM   22  C   UNL     1      30.664  52.200  39.353  1.00  0.00     0.011 A 
HETATM   23 BR   UNL     1      28.777  52.159  39.449  1.00  0.00    -0.051 Br
HETATM   24  C   UNL     1      31.330  51.356  38.472  1.00  0.00     0.019 A 
HETATM   25  C   UNL     1      32.726  51.378  38.413  1.00  0.00     0.010 A 
ENDBRANCH   8  19
BRANCH   5  26
HETATM   26  N   UNL     1      37.946  53.511  43.954  1.00  0.00    -0.229 N 
HETATM   27  H   UNL     1      37.529  53.454  44.874  1.00  0.00     0.174 HD
HETATM   28  H   UNL     1      38.953  53.432  43.927  1.00  0.00     0.174 HD
ENDBRANCH   5  26
TORSDOF 4
ENDMDL
MODEL 10
REMARK VINA RESULT:      -7.0      2.588      4.939
REMARK  4 active torsions:
REMARK  status: ('A' for Active; 'I' for Inactive)
REMARK    1  A    between atoms: O_2  and  C_3 
REMARK    2  A    between atoms: C_5  and  C_6 
REMARK    3  A    between atoms: C_10  and  N_11 
REMARK    4  A    between atoms: C_14  and  C_15 
ROOT
HETATM    1  C   UNL     1      31.061  50.273  39.648  1.00  0.00     0.164 C 
HETATM    2  N   UNL     1      29.770  50.407  40.315  1.00  0.00    -0.074 N 
HETATM    3  C   UNL     1      29.496  49.938  41.570  1.00  0.00     0.736 A 
HETATM    4  N   UNL     1      28.261  50.245  41.875  1.00  0.00     0.131 NA
HETATM    5  C   UNL     1      27.802  50.845  40.739  1.00  0.00     0.753 A 
HETATM    6  N   UNL     1      28.688  50.976  39.754  1.00  0.00     0.037 NA
HETATM    7  N   UNL     1      30.417  49.274  42.290  1.00  0.00    -0.214 N 
HETATM    8  C   UNL     1      31.763  49.032  41.791  1.00  0.00     0.135 C 
HETATM    9  C   UNL     1      31.781  49.044  40.245  1.00  0.00     0.063 C 
HETATM   10  H   UNL     1      30.218  49.030  43.256  1.00  0.00     0.178 HD
ENDROOT
BRANCH   1  11
HETATM   11  C   UNL     1      31.901  51.551  39.653  1.00  0.00    -0.030 A 
HETATM   12  C   UNL     1      33.219  51.612  39.152  1.00  0.00     0.046 A 
HETATM   13  C   UNL     1      33.944  52.808  39.154  1.00  0.00     0.068 A 
HETATM   14  C   UNL     1      33.356  53.962  39.668  1.00  0.00     0.037 A 
HETATM   15  C   UNL     1      32.068  53.924  40.194  1.00  0.00     0.003 A 
HETATM   16  C   UNL     1      31.351  52.728  40.195  1.00  0.00     0.009 A 
BRANCH  13  17
HETATM   17  O   UNL     1      35.217  52.976  38.681  1.00  0.00    -0.356 OA
HETATM   18  C   UNL     1      36.280  52.604  39.549  1.00  0.00     0.210 C 
ENDBRANCH  13  17
ENDBRANCH   1  11
BRANCH   8  19
HETATM   19  C   UNL     1      32.805  49.944  42.422  1.00  0.00    -0.035 A 
HETATM   20  C   UNL     1      32.501  50.871  43.434  1.00  0.00     0.010 A 
HETATM   21  C   UNL     1      33.484  51.721  43.948  1.00  0.00     0.019 A 
HETATM   22  C   UNL     1      34.787  51.646  43.465  1.00  0.00     0.011 A 
HETATM   23 BR   UNL     1      36.113  52.805  44.152  1.00  0.00    -0.051 Br
HETATM   24  C   UNL     1      35.119  50.723  42.480  1.00  0.00     0.019 A 
HETATM   25  C   UNL     1      34.134  49.877  41.963  1.00  0.00     0.010 A 
ENDBRANCH   8  19
BRANCH   5  26
HETATM   26  N   UNL     1      26.546  51.273  40.709  1.00  0.00    -0.229 N 
HETATM   27  H   UNL     1      26.098  51.456  41.597  1.00  0.00     0.174 HD
HETATM   28  H   UNL     1      26.283  51.892  39.954  1.00  0.00     0.174 HD
ENDBRANCH   5  26
TORSDOF 4
ENDMDL
