MODEL 1
REMARK VINA RESULT:      -7.7      0.000      0.000
REMARK  5 active torsions:
REMARK  status: ('A' for Active; 'I' for Inactive)
REMARK    1  A    between atoms: C_2  and  C_3 
REMARK    2  A    between atoms: C_3  and  N_4 
REMARK    3  A    between atoms: C_10  and  C_11 
REMARK       I    between atoms: C_11  and  N_12 
REMARK    4  A    between atoms: N_12  and  C_13 
REMARK    5  A    between atoms: C_14  and  O_15 
ROOT
HETATM    1  C   UNL     1      28.185  44.155  52.990  1.00  0.00     0.256 C 
HETATM    2  N   UNL     1      27.158  45.071  52.958  1.00  0.00    -0.320 N 
HETATM    3  O   UNL     1      28.453  43.374  52.081  1.00  0.00    -0.267 OA
HETATM    4  H   UNL     1      27.122  45.753  53.700  1.00  0.00     0.169 HD
ENDROOT
BRANCH   1   5
HETATM    5  C   UNL     1      29.043  44.105  54.222  1.00  0.00     0.032 A 
HETATM    6  C   UNL     1      29.949  43.079  54.514  1.00  0.00     0.017 A 
HETATM    7  C   UNL     1      30.753  43.143  55.663  1.00  0.00     0.010 A 
HETATM    8  C   UNL     1      30.683  44.242  56.533  1.00  0.00    -0.033 A 
HETATM    9  C   UNL     1      29.773  45.266  56.244  1.00  0.00     0.010 A 
HETATM   10  C   UNL     1      28.964  45.194  55.106  1.00  0.00     0.017 A 
BRANCH   8  11
HETATM   11  C   UNL     1      31.561  44.324  57.748  1.00  0.00     0.268 C 
BRANCH  11  12
HETATM   12  N   UNL     1      31.089  45.361  58.691  1.00  0.00    -0.075 N 
HETATM   13  H   UNL     1      31.391  46.296  58.391  1.00  0.00     0.274 HD
HETATM   14  H   UNL     1      30.062  45.373  58.735  1.00  0.00     0.274 HD
HETATM   15  H   UNL     1      31.449  45.200  59.639  1.00  0.00     0.274 HD
ENDBRANCH  11  12
ENDBRANCH   8  11
ENDBRANCH   1   5
BRANCH   2  16
HETATM   16  C   UNL     1      26.119  45.225  51.995  1.00  0.00     0.069 A 
HETATM   17  C   UNL     1      25.052  44.351  51.734  1.00  0.00     0.092 A 
HETATM   18  C   UNL     1      24.077  44.671  50.779  1.00  0.00     0.040 A 
HETATM   19  C   UNL     1      24.146  45.863  50.063  1.00  0.00     0.022 A 
HETATM   20  C   UNL     1      25.198  46.734  50.306  1.00  0.00     0.013 A 
HETATM   21 BR   UNL     1      25.310  48.362  49.350  1.00  0.00    -0.051 Br
HETATM   22  C   UNL     1      26.173  46.423  51.259  1.00  0.00     0.051 A 
BRANCH  17  23
HETATM   23  O   UNL     1      24.826  43.156  52.350  1.00  0.00    -0.358 OA
HETATM   24  H   UNL     1      25.662  42.839  52.749  1.00  0.00     0.218 HD
ENDBRANCH  17  23
ENDBRANCH   2  16
TORSDOF 5
ENDMDL
MODEL 2
REMARK VINA RESULT:      -7.5      3.807      4.417
REMARK  5 active torsions:
REMARK  status: ('A' for Active; 'I' for Inactive)
REMARK    1  A    between atoms: C_2  and  C_3 
REMARK    2  A    between atoms: C_3  and  N_4 
REMARK    3  A    between atoms: C_10  and  C_11 
REMARK       I    between atoms: C_11  and  N_12 
REMARK    4  A    between atoms: N_12  and  C_13 
REMARK    5  A    between atoms: C_14  and  O_15 
ROOT
HETATM    1  C   UNL     1      28.313  43.315  52.939  1.00  0.00     0.256 C 
HETATM    2  N   UNL     1      28.188  41.945  52.877  1.00  0.00    -0.320 N 
HETATM    3  O   UNL     1      27.957  44.090  52.056  1.00  0.00    -0.267 OA
HETATM    4  H   UNL     1      28.382  41.424  53.718  1.00  0.00     0.169 HD
ENDROOT
BRANCH   1   5
HETATM    5  C   UNL     1      28.925  43.908  54.177  1.00  0.00     0.032 A 
HETATM    6  C   UNL     1      30.099  43.441  54.780  1.00  0.00     0.017 A 
HETATM    7  C   UNL     1      30.631  44.093  55.904  1.00  0.00     0.010 A 
HETATM    8  C   UNL     1      30.013  45.234  56.436  1.00  0.00    -0.033 A 
HETATM    9  C   UNL     1      28.836  45.698  55.836  1.00  0.00     0.010 A 
HETATM   10  C   UNL     1      28.300  45.040  54.726  1.00  0.00     0.017 A 
BRANCH   8  11
HETATM   11  C   UNL     1      30.595  45.947  57.622  1.00  0.00     0.268 C 
BRANCH  11  12
HETATM   12  N   UNL     1      31.307  45.015  58.522  1.00  0.00    -0.075 N 
HETATM   13  H   UNL     1      32.032  45.505  59.061  1.00  0.00     0.274 HD
HETATM   14  H   UNL     1      30.658  44.595  59.199  1.00  0.00     0.274 HD
HETATM   15  H   UNL     1      31.760  44.257  57.999  1.00  0.00     0.274 HD
ENDBRANCH  11  12
ENDBRANCH   8  11
ENDBRANCH   1   5
BRANCH   2  16
HETATM   16  C   UNL     1      27.788  41.127  51.781  1.00  0.00     0.069 A 
HETATM   17  C   UNL     1      26.590  41.191  51.052  1.00  0.00     0.092 A 
HETATM   18  C   UNL     1      26.366  40.340  49.961  1.00  0.00     0.040 A 
HETATM   19  C   UNL     1      27.325  39.407  49.577  1.00  0.00     0.022 A 
HETATM   20  C   UNL     1      28.511  39.328  50.291  1.00  0.00     0.013 A 
HETATM   21 BR   UNL     1      29.831  38.073  49.783  1.00  0.00    -0.051 Br
HETATM   22  C   UNL     1      28.744  40.176  51.378  1.00  0.00     0.051 A 
BRANCH  17  23
HETATM   23  O   UNL     1      25.556  42.050  51.283  1.00  0.00    -0.358 OA
HETATM   24  H   UNL     1      24.724  41.538  51.347  1.00  0.00     0.218 HD
ENDBRANCH  17  23
ENDBRANCH   2  16
TORSDOF 5
ENDMDL
MODEL 3
REMARK VINA RESULT:      -7.4      2.787      3.330
REMARK  5 active torsions:
REMARK  status: ('A' for Active; 'I' for Inactive)
REMARK    1  A    between atoms: C_2  and  C_3 
REMARK    2  A    between atoms: C_3  and  N_4 
REMARK    3  A    between atoms: C_10  and  C_11 
REMARK       I    between atoms: C_11  and  N_12 
REMARK    4  A    between atoms: N_12  and  C_13 
REMARK    5  A    between atoms: C_14  and  O_15 
ROOT
HETATM    1  C   UNL     1      29.131  43.219  53.040  1.00  0.00     0.256 C 
HETATM    2  N   UNL     1      27.833  42.795  52.858  1.00  0.00    -0.320 N 
HETATM    3  O   UNL     1      30.024  43.108  52.205  1.00  0.00    -0.267 OA
HETATM    4  H   UNL     1      27.156  43.066  53.555  1.00  0.00     0.169 HD
ENDROOT
BRANCH   1   5
HETATM    5  C   UNL     1      29.481  43.866  54.350  1.00  0.00     0.032 A 
HETATM    6  C   UNL     1      30.544  43.467  55.169  1.00  0.00     0.017 A 
HETATM    7  C   UNL     1      30.834  44.167  56.352  1.00  0.00     0.010 A 
HETATM    8  C   UNL     1      30.081  45.289  56.729  1.00  0.00    -0.033 A 
HETATM    9  C   UNL     1      29.014  45.684  55.913  1.00  0.00     0.010 A 
HETATM   10  C   UNL     1      28.719  44.979  54.743  1.00  0.00     0.017 A 
BRANCH   8  11
HETATM   11  C   UNL     1      30.406  46.052  57.980  1.00  0.00     0.268 C 
BRANCH  11  12
HETATM   12  N   UNL     1      31.364  45.318  58.834  1.00  0.00    -0.075 N 
HETATM   13  H   UNL     1      31.387  44.321  58.587  1.00  0.00     0.274 HD
HETATM   14  H   UNL     1      32.317  45.683  58.710  1.00  0.00     0.274 HD
HETATM   15  H   UNL     1      31.118  45.393  59.827  1.00  0.00     0.274 HD
ENDBRANCH  11  12
ENDBRANCH   8  11
ENDBRANCH   1   5
BRANCH   2  16
HETATM   16  C   UNL     1      27.277  42.030  51.793  1.00  0.00     0.069 A 
HETATM   17  C   UNL     1      27.760  40.828  51.253  1.00  0.00     0.092 A 
HETATM   18  C   UNL     1      27.066  40.169  50.229  1.00  0.00     0.040 A 
HETATM   19  C   UNL     1      25.881  40.693  49.720  1.00  0.00     0.022 A 
HETATM   20  C   UNL     1      25.394  41.883  50.240  1.00  0.00     0.013 A 
HETATM   21 BR   UNL     1      23.783  42.610  49.568  1.00  0.00    -0.051 Br
HETATM   22  C   UNL     1      26.079  42.545  51.263  1.00  0.00     0.051 A 
BRANCH  17  23
HETATM   23  O   UNL     1      28.892  40.173  51.642  1.00  0.00    -0.358 OA
HETATM   24  H   UNL     1      29.489  40.082  50.870  1.00  0.00     0.218 HD
ENDBRANCH  17  23
ENDBRANCH   2  16
TORSDOF 5
ENDMDL
MODEL 4
REMARK VINA RESULT:      -7.4      2.722      3.209
REMARK  5 active torsions:
REMARK  status: ('A' for Active; 'I' for Inactive)
REMARK    1  A    between atoms: C_2  and  C_3 
REMARK    2  A    between atoms: C_3  and  N_4 
REMARK    3  A    between atoms: C_10  and  C_11 
REMARK       I    between atoms: C_11  and  N_12 
REMARK    4  A    between atoms: N_12  and  C_13 
REMARK    5  A    between atoms: C_14  and  O_15 
ROOT
HETATM    1  C   UNL     1      27.769  44.061  53.180  1.00  0.00     0.256 C 
HETATM    2  N   UNL     1      27.639  42.844  52.550  1.00  0.00    -0.320 N 
HETATM    3  O   UNL     1      27.105  45.059  52.914  1.00  0.00    -0.267 OA
HETATM    4  H   UNL     1      28.135  42.062  52.947  1.00  0.00     0.169 HD
ENDROOT
BRANCH   1   5
HETATM    5  C   UNL     1      28.792  44.180  54.273  1.00  0.00     0.032 A 
HETATM    6  C   UNL     1      28.886  45.263  55.155  1.00  0.00     0.017 A 
HETATM    7  C   UNL     1      29.840  45.264  56.185  1.00  0.00     0.010 A 
HETATM    8  C   UNL     1      30.706  44.176  56.367  1.00  0.00    -0.033 A 
HETATM    9  C   UNL     1      30.617  43.094  55.482  1.00  0.00     0.010 A 
HETATM   10  C   UNL     1      29.675  43.101  54.449  1.00  0.00     0.017 A 
BRANCH   8  11
HETATM   11  C   UNL     1      31.710  44.164  57.483  1.00  0.00     0.268 C 
BRANCH  11  12
HETATM   12  N   UNL     1      31.328  45.091  58.569  1.00  0.00    -0.075 N 
HETATM   13  H   UNL     1      30.619  45.763  58.248  1.00  0.00     0.274 HD
HETATM   14  H   UNL     1      30.921  44.578  59.361  1.00  0.00     0.274 HD
HETATM   15  H   UNL     1      32.135  45.623  58.913  1.00  0.00     0.274 HD
ENDBRANCH  11  12
ENDBRANCH   8  11
ENDBRANCH   1   5
BRANCH   2  16
HETATM   16  C   UNL     1      26.867  42.503  51.402  1.00  0.00     0.069 A 
HETATM   17  C   UNL     1      25.500  42.739  51.183  1.00  0.00     0.092 A 
HETATM   18  C   UNL     1      24.894  42.383  49.971  1.00  0.00     0.040 A 
HETATM   19  C   UNL     1      25.632  41.781  48.955  1.00  0.00     0.022 A 
HETATM   20  C   UNL     1      26.982  41.537  49.159  1.00  0.00     0.013 A 
HETATM   21 BR   UNL     1      28.006  40.726  47.791  1.00  0.00    -0.051 Br
HETATM   22  C   UNL     1      27.595  41.892  50.364  1.00  0.00     0.051 A 
BRANCH  17  23
HETATM   23  O   UNL     1      24.638  43.328  52.061  1.00  0.00    -0.358 OA
HETATM   24  H   UNL     1      24.893  43.079  52.974  1.00  0.00     0.218 HD
ENDBRANCH  17  23
ENDBRANCH   2  16
TORSDOF 5
ENDMDL
MODEL 5
REMARK VINA RESULT:      -7.3      6.944     11.579
REMARK  5 active torsions:
REMARK  status: ('A' for Active; 'I' for Inactive)
REMARK    1  A    between atoms: C_2  and  C_3 
REMARK    2  A    between atoms: C_3  and  N_4 
REMARK    3  A    between atoms: C_10  and  C_11 
REMARK       I    between atoms: C_11  and  N_12 
REMARK    4  A    between atoms: N_12  and  C_13 
REMARK    5  A    between atoms: C_14  and  O_15 
ROOT
HETATM    1  C   UNL     1      22.264  50.557  49.142  1.00  0.00     0.256 C 
HETATM    2  N   UNL     1      23.066  49.697  48.426  1.00  0.00    -0.320 N 
HETATM    3  O   UNL     1      22.575  51.076  50.210  1.00  0.00    -0.267 OA
HETATM    4  H   UNL     1      22.763  49.447  47.497  1.00  0.00     0.169 HD
ENDROOT
BRANCH   1   5
HETATM    5  C   UNL     1      20.911  50.888  48.578  1.00  0.00     0.032 A 
HETATM    6  C   UNL     1      19.995  51.759  49.179  1.00  0.00     0.017 A 
HETATM    7  C   UNL     1      18.775  52.055  48.552  1.00  0.00     0.010 A 
HETATM    8  C   UNL     1      18.452  51.503  47.303  1.00  0.00    -0.033 A 
HETATM    9  C   UNL     1      19.366  50.626  46.704  1.00  0.00     0.010 A 
HETATM   10  C   UNL     1      20.575  50.323  47.336  1.00  0.00     0.017 A 
BRANCH   8  11
HETATM   11  C   UNL     1      17.159  51.838  46.619  1.00  0.00     0.268 C 
BRANCH  11  12
HETATM   12  N   UNL     1      17.357  52.818  45.529  1.00  0.00    -0.075 N 
HETATM   13  H   UNL     1      17.704  52.357  44.679  1.00  0.00     0.274 HD
HETATM   14  H   UNL     1      16.470  53.276  45.286  1.00  0.00     0.274 HD
HETATM   15  H   UNL     1      18.031  53.545  45.794  1.00  0.00     0.274 HD
ENDBRANCH  11  12
ENDBRANCH   8  11
ENDBRANCH   1   5
BRANCH   2  16
HETATM   16  C   UNL     1      24.309  49.108  48.796  1.00  0.00     0.069 A 
HETATM   17  C   UNL     1      25.597  49.489  48.387  1.00  0.00     0.092 A 
HETATM   18  C   UNL     1      26.733  48.833  48.883  1.00  0.00     0.040 A 
HETATM   19  C   UNL     1      26.610  47.784  49.790  1.00  0.00     0.022 A 
HETATM   20  C   UNL     1      25.344  47.393  50.198  1.00  0.00     0.013 A 
HETATM   21 BR   UNL     1      25.153  45.974  51.434  1.00  0.00    -0.051 Br
HETATM   22  C   UNL     1      24.206  48.044  49.711  1.00  0.00     0.051 A 
BRANCH  17  23
HETATM   23  O   UNL     1      25.896  50.499  47.521  1.00  0.00    -0.358 OA
HETATM   24  H   UNL     1      25.078  50.996  47.315  1.00  0.00     0.218 HD
ENDBRANCH  17  23
ENDBRANCH   2  16
TORSDOF 5
ENDMDL
MODEL 6
REMARK VINA RESULT:      -7.2      6.101     10.478
REMARK  5 active torsions:
REMARK  status: ('A' for Active; 'I' for Inactive)
REMARK    1  A    between atoms: C_2  and  C_3 
REMARK    2  A    between atoms: C_3  and  N_4 
REMARK    3  A    between atoms: C_10  and  C_11 
REMARK       I    between atoms: C_11  and  N_12 
REMARK    4  A    between atoms: N_12  and  C_13 
REMARK    5  A    between atoms: C_14  and  O_15 
ROOT
HETATM    1  C   UNL     1      22.166  49.163  48.663  1.00  0.00     0.256 C 
HETATM    2  N   UNL     1      22.706  48.399  49.673  1.00  0.00    -0.320 N 
HETATM    3  O   UNL     1      22.630  49.251  47.530  1.00  0.00    -0.267 OA
HETATM    4  H   UNL     1      22.160  48.292  50.515  1.00  0.00     0.169 HD
ENDROOT
BRANCH   1   5
HETATM    5  C   UNL     1      20.918  49.944  48.965  1.00  0.00     0.032 A 
HETATM    6  C   UNL     1      19.918  49.526  49.851  1.00  0.00     0.017 A 
HETATM    7  C   UNL     1      18.811  50.348  50.116  1.00  0.00     0.010 A 
HETATM    8  C   UNL     1      18.689  51.610  49.516  1.00  0.00    -0.033 A 
HETATM    9  C   UNL     1      19.686  52.026  48.624  1.00  0.00     0.010 A 
HETATM   10  C   UNL     1      20.781  51.201  48.352  1.00  0.00     0.017 A 
BRANCH   8  11
HETATM   11  C   UNL     1      17.519  52.500  49.817  1.00  0.00     0.268 C 
BRANCH  11  12
HETATM   12  N   UNL     1      16.848  52.955  48.580  1.00  0.00    -0.075 N 
HETATM   13  H   UNL     1      15.939  52.491  48.463  1.00  0.00     0.274 HD
HETATM   14  H   UNL     1      16.669  53.967  48.613  1.00  0.00     0.274 HD
HETATM   15  H   UNL     1      17.415  52.757  47.748  1.00  0.00     0.274 HD
ENDBRANCH  11  12
ENDBRANCH   8  11
ENDBRANCH   1   5
BRANCH   2  16
HETATM   16  C   UNL     1      23.942  47.692  49.704  1.00  0.00     0.069 A 
HETATM   17  C   UNL     1      24.140  46.311  49.860  1.00  0.00     0.092 A 
HETATM   18  C   UNL     1      25.428  45.760  49.821  1.00  0.00     0.040 A 
HETATM   19  C   UNL     1      26.544  46.570  49.629  1.00  0.00     0.022 A 
HETATM   20  C   UNL     1      26.365  47.937  49.479  1.00  0.00     0.013 A 
HETATM   21 BR   UNL     1      27.865  49.057  49.213  1.00  0.00    -0.051 Br
HETATM   22  C   UNL     1      25.083  48.495  49.515  1.00  0.00     0.051 A 
BRANCH  17  23
HETATM   23  O   UNL     1      23.163  45.377  50.041  1.00  0.00    -0.358 OA
HETATM   24  H   UNL     1      22.843  45.425  50.966  1.00  0.00     0.218 HD
ENDBRANCH  17  23
ENDBRANCH   2  16
TORSDOF 5
ENDMDL
MODEL 7
REMARK VINA RESULT:      -7.1      4.136      4.686
REMARK  5 active torsions:
REMARK  status: ('A' for Active; 'I' for Inactive)
REMARK    1  A    between atoms: C_2  and  C_3 
REMARK    2  A    between atoms: C_3  and  N_4 
REMARK    3  A    between atoms: C_10  and  C_11 
REMARK       I    between atoms: C_11  and  N_12 
REMARK    4  A    between atoms: N_12  and  C_13 
REMARK    5  A    between atoms: C_14  and  O_15 
ROOT
HETATM    1  C   UNL     1      27.586  42.887  52.253  1.00  0.00     0.256 C 
HETATM    2  N   UNL     1      28.053  41.840  51.490  1.00  0.00    -0.320 N 
HETATM    3  O   UNL     1      26.497  43.432  52.098  1.00  0.00    -0.267 OA
HETATM    4  H   UNL     1      28.897  41.382  51.800  1.00  0.00     0.169 HD
ENDROOT
BRANCH   1   5
HETATM    5  C   UNL     1      28.468  43.400  53.357  1.00  0.00     0.032 A 
HETATM    6  C   UNL     1      28.187  44.531  54.132  1.00  0.00     0.017 A 
HETATM    7  C   UNL     1      29.040  44.905  55.182  1.00  0.00     0.010 A 
HETATM    8  C   UNL     1      30.180  44.148  55.491  1.00  0.00    -0.033 A 
HETATM    9  C   UNL     1      30.465  43.020  54.711  1.00  0.00     0.010 A 
HETATM   10  C   UNL     1      29.621  42.656  53.658  1.00  0.00     0.017 A 
BRANCH   8  11
HETATM   11  C   UNL     1      31.080  44.533  56.629  1.00  0.00     0.268 C 
BRANCH  11  12
HETATM   12  N   UNL     1      31.859  43.377  57.122  1.00  0.00    -0.075 N 
HETATM   13  H   UNL     1      32.553  43.077  56.426  1.00  0.00     0.274 HD
HETATM   14  H   UNL     1      32.374  43.623  57.977  1.00  0.00     0.274 HD
HETATM   15  H   UNL     1      31.253  42.576  57.331  1.00  0.00     0.274 HD
ENDBRANCH  11  12
ENDBRANCH   8  11
ENDBRANCH   1   5
BRANCH   2  16
HETATM   16  C   UNL     1      27.498  41.270  50.309  1.00  0.00     0.069 A 
HETATM   17  C   UNL     1      27.041  41.939  49.163  1.00  0.00     0.092 A 
HETATM   18  C   UNL     1      26.562  41.226  48.056  1.00  0.00     0.040 A 
HETATM   19  C   UNL     1      26.526  39.834  48.067  1.00  0.00     0.022 A 
HETATM   20  C   UNL     1      26.970  39.159  49.194  1.00  0.00     0.013 A 
HETATM   21 BR   UNL     1      26.935  37.268  49.230  1.00  0.00    -0.051 Br
HETATM   22  C   UNL     1      27.451  39.863  50.302  1.00  0.00     0.051 A 
BRANCH  17  23
HETATM   23  O   UNL     1      27.019  43.291  48.981  1.00  0.00    -0.358 OA
HETATM   24  H   UNL     1      26.095  43.577  48.826  1.00  0.00     0.218 HD
ENDBRANCH  17  23
ENDBRANCH   2  16
TORSDOF 5
ENDMDL
MODEL 8
REMARK VINA RESULT:      -7.1      2.234      2.787
REMARK  5 active torsions:
REMARK  status: ('A' for Active; 'I' for Inactive)
REMARK    1  A    between atoms: C_2  and  C_3 
REMARK    2  A    between atoms: C_3  and  N_4 
REMARK    3  A    between atoms: C_10  and  C_11 
REMARK       I    between atoms: C_11  and  N_12 
REMARK    4  A    between atoms: N_12  and  C_13 
REMARK    5  A    between atoms: C_14  and  O_15 
ROOT
HETATM    1  C   UNL     1      26.879  45.993  53.910  1.00  0.00     0.256 C 
HETATM    2  N   UNL     1      26.656  45.252  52.770  1.00  0.00    -0.320 N 
HETATM    3  O   UNL     1      26.179  46.931  54.279  1.00  0.00    -0.267 OA
HETATM    4  H   UNL     1      27.210  44.419  52.644  1.00  0.00     0.169 HD
ENDROOT
BRANCH   1   5
HETATM    5  C   UNL     1      28.058  45.627  54.766  1.00  0.00     0.032 A 
HETATM    6  C   UNL     1      28.462  46.338  55.902  1.00  0.00     0.017 A 
HETATM    7  C   UNL     1      29.544  45.891  56.676  1.00  0.00     0.010 A 
HETATM    8  C   UNL     1      30.233  44.715  56.343  1.00  0.00    -0.033 A 
HETATM    9  C   UNL     1      29.833  44.006  55.203  1.00  0.00     0.010 A 
HETATM   10  C   UNL     1      28.764  44.460  54.426  1.00  0.00     0.017 A 
BRANCH   8  11
HETATM   11  C   UNL     1      31.374  44.222  57.183  1.00  0.00     0.268 C 
BRANCH  11  12
HETATM   12  N   UNL     1      31.421  44.907  58.493  1.00  0.00    -0.075 N 
HETATM   13  H   UNL     1      31.146  45.893  58.403  1.00  0.00     0.274 HD
HETATM   14  H   UNL     1      30.769  44.470  59.156  1.00  0.00     0.274 HD
HETATM   15  H   UNL     1      32.362  44.876  58.902  1.00  0.00     0.274 HD
ENDBRANCH  11  12
ENDBRANCH   8  11
ENDBRANCH   1   5
BRANCH   2  16
HETATM   16  C   UNL     1      25.718  45.474  51.722  1.00  0.00     0.069 A 
HETATM   17  C   UNL     1      25.506  46.655  50.993  1.00  0.00     0.092 A 
HETATM   18  C   UNL     1      24.569  46.699  49.951  1.00  0.00     0.040 A 
HETATM   19  C   UNL     1      23.824  45.572  49.616  1.00  0.00     0.022 A 
HETATM   20  C   UNL     1      24.019  44.399  50.330  1.00  0.00     0.013 A 
HETATM   21 BR   UNL     1      23.021  42.854  49.889  1.00  0.00    -0.051 Br
HETATM   22  C   UNL     1      24.953  44.346  51.370  1.00  0.00     0.051 A 
BRANCH  17  23
HETATM   23  O   UNL     1      26.156  47.839  51.179  1.00  0.00    -0.358 OA
HETATM   24  H   UNL     1      25.505  48.523  51.442  1.00  0.00     0.218 HD
ENDBRANCH  17  23
ENDBRANCH   2  16
TORSDOF 5
ENDMDL
MODEL 9
REMARK VINA RESULT:      -6.9      2.986      7.421
REMARK  5 active torsions:
REMARK  status: ('A' for Active; 'I' for Inactive)
REMARK    1  A    between atoms: C_2  and  C_3 
REMARK    2  A    between atoms: C_3  and  N_4 
REMARK    3  A    between atoms: C_10  and  C_11 
REMARK       I    between atoms: C_11  and  N_12 
REMARK    4  A    between atoms: N_12  and  C_13 
REMARK    5  A    between atoms: C_14  and  O_15 
ROOT
HETATM    1  C   UNL     1      26.702  44.631  53.552  1.00  0.00     0.256 C 
HETATM    2  N   UNL     1      27.974  45.113  53.766  1.00  0.00    -0.320 N 
HETATM    3  O   UNL     1      26.192  43.707  54.179  1.00  0.00    -0.267 OA
HETATM    4  H   UNL     1      28.232  45.964  53.290  1.00  0.00     0.169 HD
ENDROOT
BRANCH   1   5
HETATM    5  C   UNL     1      25.876  45.282  52.479  1.00  0.00     0.032 A 
HETATM    6  C   UNL     1      25.939  46.640  52.147  1.00  0.00     0.017 A 
HETATM    7  C   UNL     1      25.169  47.152  51.090  1.00  0.00     0.010 A 
HETATM    8  C   UNL     1      24.337  46.315  50.331  1.00  0.00    -0.033 A 
HETATM    9  C   UNL     1      24.269  44.957  50.667  1.00  0.00     0.010 A 
HETATM   10  C   UNL     1      25.026  44.452  51.728  1.00  0.00     0.017 A 
BRANCH   8  11
HETATM   11  C   UNL     1      23.533  46.856  49.185  1.00  0.00     0.268 C 
BRANCH  11  12
HETATM   12  N   UNL     1      23.582  48.333  49.135  1.00  0.00    -0.075 N 
HETATM   13  H   UNL     1      23.788  48.662  48.184  1.00  0.00     0.274 HD
HETATM   14  H   UNL     1      22.676  48.737  49.405  1.00  0.00     0.274 HD
HETATM   15  H   UNL     1      24.301  48.708  49.763  1.00  0.00     0.274 HD
ENDBRANCH  11  12
ENDBRANCH   8  11
ENDBRANCH   1   5
BRANCH   2  16
HETATM   16  C   UNL     1      29.005  44.594  54.600  1.00  0.00     0.069 A 
HETATM   17  C   UNL     1      29.809  43.466  54.373  1.00  0.00     0.092 A 
HETATM   18  C   UNL     1      30.821  43.110  55.275  1.00  0.00     0.040 A 
HETATM   19  C   UNL     1      31.051  43.865  56.421  1.00  0.00     0.022 A 
HETATM   20  C   UNL     1      30.260  44.979  56.663  1.00  0.00     0.013 A 
HETATM   21 BR   UNL     1      30.558  46.024  58.211  1.00  0.00    -0.051 Br
HETATM   22  C   UNL     1      29.251  45.343  55.766  1.00  0.00     0.051 A 
BRANCH  17  23
HETATM   23  O   UNL     1      29.729  42.628  53.299  1.00  0.00    -0.358 OA
HETATM   24  H   UNL     1      30.630  42.469  52.951  1.00  0.00     0.218 HD
ENDBRANCH  17  23
ENDBRANCH   2  16
TORSDOF 5
ENDMDL
MODEL 10
REMARK VINA RESULT:      -6.8      6.148     10.460
REMARK  5 active torsions:
REMARK  status: ('A' for Active; 'I' for Inactive)
REMARK    1  A    between atoms: C_2  and  C_3 
REMARK    2  A    between atoms: C_3  and  N_4 
REMARK    3  A    between atoms: C_10  and  C_11 
REMARK       I    between atoms: C_11  and  N_12 
REMARK    4  A    between atoms: N_12  and  C_13 
REMARK    5  A    between atoms: C_14  and  O_15 
ROOT
HETATM    1  C   UNL     1      22.446  49.153  48.667  1.00  0.00     0.256 C 
HETATM    2  N   UNL     1      22.927  48.324  49.655  1.00  0.00    -0.320 N 
HETATM    3  O   UNL     1      22.970  49.304  47.567  1.00  0.00    -0.267 OA
HETATM    4  H   UNL     1      22.338  48.172  50.460  1.00  0.00     0.169 HD
ENDROOT
BRANCH   1   5
HETATM    5  C   UNL     1      21.190  49.928  48.950  1.00  0.00     0.032 A 
HETATM    6  C   UNL     1      20.182  49.507  49.825  1.00  0.00     0.017 A 
HETATM    7  C   UNL     1      19.067  50.324  50.073  1.00  0.00     0.010 A 
HETATM    8  C   UNL     1      18.946  51.584  49.469  1.00  0.00    -0.033 A 
HETATM    9  C   UNL     1      19.952  52.003  48.589  1.00  0.00     0.010 A 
HETATM   10  C   UNL     1      21.055  51.183  48.333  1.00  0.00     0.017 A 
BRANCH   8  11
HETATM   11  C   UNL     1      17.767  52.468  49.753  1.00  0.00     0.268 C 
BRANCH  11  12
HETATM   12  N   UNL     1      16.498  51.709  49.731  1.00  0.00    -0.075 N 
HETATM   13  H   UNL     1      16.588  50.827  50.251  1.00  0.00     0.274 HD
HETATM   14  H   UNL     1      15.744  52.247  50.175  1.00  0.00     0.274 HD
HETATM   15  H   UNL     1      16.210  51.484  48.772  1.00  0.00     0.274 HD
ENDBRANCH  11  12
ENDBRANCH   8  11
ENDBRANCH   1   5
BRANCH   2  16
HETATM   16  C   UNL     1      24.154  47.603  49.707  1.00  0.00     0.069 A 
HETATM   17  C   UNL     1      25.454  48.104  49.531  1.00  0.00     0.092 A 
HETATM   18  C   UNL     1      26.571  47.268  49.661  1.00  0.00     0.040 A 
HETATM   19  C   UNL     1      26.419  45.918  49.964  1.00  0.00     0.022 A 
HETATM   20  C   UNL     1      25.141  45.407  50.135  1.00  0.00     0.013 A 
HETATM   21 BR   UNL     1      24.909  43.577  50.553  1.00  0.00    -0.051 Br
HETATM   22  C   UNL     1      24.021  46.235  50.010  1.00  0.00     0.051 A 
BRANCH  17  23
HETATM   23  O   UNL     1      25.782  49.397  49.246  1.00  0.00    -0.358 OA
HETATM   24  H   UNL     1      26.577  49.645  49.762  1.00  0.00     0.218 HD
ENDBRANCH  17  23
ENDBRANCH   2  16
TORSDOF 5
ENDMDL
