MODEL 1
REMARK VINA RESULT:      -7.9      0.000      0.000
REMARK  4 active torsions:
REMARK  status: ('A' for Active; 'I' for Inactive)
REMARK    1  A    between atoms: C_4  and  C_5 
REMARK       I    between atoms: C_5  and  N_6 
REMARK    2  A    between atoms: N_6  and  C_7 
REMARK    3  A    between atoms: C_7  and  N_8 
REMARK    4  A    between atoms: N_8  and  C_9 
ROOT
HETATM    1  C   UNL     1      25.425  44.682  53.987  1.00  0.00     0.257 C 
HETATM    2  N   UNL     1      25.061  44.984  52.679  1.00  0.00    -0.299 N 
HETATM    3  O   UNL     1      24.608  44.148  54.733  1.00  0.00    -0.267 OA
HETATM    4  H   UNL     1      24.057  44.869  52.612  1.00  0.00     0.171 HD
ENDROOT
BRANCH   2   5
HETATM    5  C   UNL     1      25.668  44.601  51.460  1.00  0.00     0.180 C 
HETATM    6  S   UNL     1      25.613  43.056  50.830  1.00  0.00    -0.040 SA
BRANCH   5   7
HETATM    7  N   UNL     1      26.287  45.719  50.914  1.00  0.00    -0.318 N 
HETATM    8  H   UNL     1      27.299  45.710  50.898  1.00  0.00     0.170 HD
BRANCH   7   9
HETATM    9  C   UNL     1      25.840  46.876  50.267  1.00  0.00     0.129 A 
HETATM   10  N   UNL     1      24.489  46.932  50.228  1.00  0.00    -0.243 NA
HETATM   11  C   UNL     1      23.920  47.987  49.605  1.00  0.00     0.119 A 
HETATM   12  C   UNL     1      24.636  49.006  49.007  1.00  0.00     0.026 A 
HETATM   13  C   UNL     1      26.027  48.942  49.047  1.00  0.00    -0.057 A 
HETATM   14  C   UNL     1      26.848  50.022  48.408  1.00  0.00     0.048 C 
HETATM   15  C   UNL     1      26.634  47.850  49.680  1.00  0.00     0.057 A 
ENDBRANCH   7   9
ENDBRANCH   5   7
ENDBRANCH   2   5
BRANCH   1  16
HETATM   16  C   UNL     1      26.779  45.040  54.483  1.00  0.00     0.032 A 
HETATM   17  C   UNL     1      27.820  44.103  54.534  1.00  0.00     0.023 A 
HETATM   18  C   UNL     1      29.090  44.482  54.994  1.00  0.00    -0.061 A 
HETATM   19  C   UNL     1      30.212  43.488  55.034  1.00  0.00     0.048 C 
HETATM   20  C   UNL     1      29.313  45.815  55.363  1.00  0.00     0.007 A 
HETATM   21  C   UNL     1      28.283  46.753  55.293  1.00  0.00     0.002 A 
HETATM   22  C   UNL     1      27.018  46.369  54.851  1.00  0.00     0.017 A 
ENDBRANCH   1  16
TORSDOF 4
ENDMDL
MODEL 2
REMARK VINA RESULT:      -7.7      2.152      6.545
REMARK  4 active torsions:
REMARK  status: ('A' for Active; 'I' for Inactive)
REMARK    1  A    between atoms: C_4  and  C_5 
REMARK       I    between atoms: C_5  and  N_6 
REMARK    2  A    between atoms: N_6  and  C_7 
REMARK    3  A    between atoms: C_7  and  N_8 
REMARK    4  A    between atoms: N_8  and  C_9 
ROOT
HETATM    1  C   UNL     1      25.789  44.425  53.476  1.00  0.00     0.257 C 
HETATM    2  N   UNL     1      26.494  43.227  53.485  1.00  0.00    -0.299 N 
HETATM    3  O   UNL     1      25.434  44.925  54.541  1.00  0.00    -0.267 OA
HETATM    4  H   UNL     1      26.436  42.851  54.423  1.00  0.00     0.171 HD
ENDROOT
BRANCH   2   5
HETATM    5  C   UNL     1      27.755  42.915  52.924  1.00  0.00     0.180 C 
HETATM    6  S   UNL     1      28.049  41.583  51.963  1.00  0.00    -0.040 SA
BRANCH   5   7
HETATM    7  N   UNL     1      28.657  43.898  53.312  1.00  0.00    -0.318 N 
HETATM    8  H   UNL     1      28.891  44.594  52.615  1.00  0.00     0.170 HD
BRANCH   7   9
HETATM    9  C   UNL     1      29.289  44.237  54.513  1.00  0.00     0.129 A 
HETATM   10  N   UNL     1      28.826  45.410  55.002  1.00  0.00    -0.243 NA
HETATM   11  C   UNL     1      29.371  45.875  56.148  1.00  0.00     0.119 A 
HETATM   12  C   UNL     1      30.370  45.221  56.845  1.00  0.00     0.026 A 
HETATM   13  C   UNL     1      30.845  44.016  56.336  1.00  0.00    -0.057 A 
HETATM   14  C   UNL     1      31.932  43.272  57.053  1.00  0.00     0.048 C 
HETATM   15  C   UNL     1      30.298  43.525  55.143  1.00  0.00     0.057 A 
ENDBRANCH   7   9
ENDBRANCH   5   7
ENDBRANCH   2   5
BRANCH   1  16
HETATM   16  C   UNL     1      25.437  45.070  52.185  1.00  0.00     0.032 A 
HETATM   17  C   UNL     1      26.108  46.209  51.718  1.00  0.00     0.023 A 
HETATM   18  C   UNL     1      25.758  46.781  50.487  1.00  0.00    -0.061 A 
HETATM   19  C   UNL     1      26.485  47.989  49.975  1.00  0.00     0.048 C 
HETATM   20  C   UNL     1      24.758  46.177  49.712  1.00  0.00     0.007 A 
HETATM   21  C   UNL     1      24.103  45.032  50.166  1.00  0.00     0.002 A 
HETATM   22  C   UNL     1      24.443  44.476  51.398  1.00  0.00     0.017 A 
ENDBRANCH   1  16
TORSDOF 4
ENDMDL
MODEL 3
REMARK VINA RESULT:      -7.7     12.166     13.863
REMARK  4 active torsions:
REMARK  status: ('A' for Active; 'I' for Inactive)
REMARK    1  A    between atoms: C_4  and  C_5 
REMARK       I    between atoms: C_5  and  N_6 
REMARK    2  A    between atoms: N_6  and  C_7 
REMARK    3  A    between atoms: C_7  and  N_8 
REMARK    4  A    between atoms: N_8  and  C_9 
ROOT
HETATM    1  C   UNL     1      32.513  48.258  40.959  1.00  0.00     0.257 C 
HETATM    2  N   UNL     1      33.302  49.326  40.548  1.00  0.00    -0.299 N 
HETATM    3  O   UNL     1      33.050  47.207  41.302  1.00  0.00    -0.267 OA
HETATM    4  H   UNL     1      34.243  48.974  40.421  1.00  0.00     0.171 HD
ENDROOT
BRANCH   2   5
HETATM    5  C   UNL     1      33.352  50.654  41.035  1.00  0.00     0.180 C 
HETATM    6  S   UNL     1      34.115  51.105  42.449  1.00  0.00    -0.040 SA
BRANCH   5   7
HETATM    7  N   UNL     1      32.673  51.469  40.139  1.00  0.00    -0.318 N 
HETATM    8  H   UNL     1      33.244  52.017  39.507  1.00  0.00     0.170 HD
BRANCH   7   9
HETATM    9  C   UNL     1      31.328  51.669  39.811  1.00  0.00     0.129 A 
HETATM   10  N   UNL     1      31.134  51.647  38.473  1.00  0.00    -0.243 NA
HETATM   11  C   UNL     1      29.881  51.855  38.013  1.00  0.00     0.119 A 
HETATM   12  C   UNL     1      28.791  52.089  38.830  1.00  0.00     0.026 A 
HETATM   13  C   UNL     1      28.996  52.115  40.207  1.00  0.00    -0.057 A 
HETATM   14  C   UNL     1      27.845  52.371  41.134  1.00  0.00     0.048 C 
HETATM   15  C   UNL     1      30.291  51.911  40.700  1.00  0.00     0.057 A 
ENDBRANCH   7   9
ENDBRANCH   5   7
ENDBRANCH   2   5
BRANCH   1  16
HETATM   16  C   UNL     1      31.032  48.378  40.945  1.00  0.00     0.032 A 
HETATM   17  C   UNL     1      30.288  48.231  39.766  1.00  0.00     0.023 A 
HETATM   18  C   UNL     1      28.890  48.336  39.795  1.00  0.00    -0.061 A 
HETATM   19  C   UNL     1      28.088  48.163  38.540  1.00  0.00     0.048 C 
HETATM   20  C   UNL     1      28.246  48.549  41.021  1.00  0.00     0.007 A 
HETATM   21  C   UNL     1      28.984  48.674  42.198  1.00  0.00     0.002 A 
HETATM   22  C   UNL     1      30.374  48.586  42.162  1.00  0.00     0.017 A 
ENDBRANCH   1  16
TORSDOF 4
ENDMDL
MODEL 4
REMARK VINA RESULT:      -7.6     11.608     12.871
REMARK  4 active torsions:
REMARK  status: ('A' for Active; 'I' for Inactive)
REMARK    1  A    between atoms: C_4  and  C_5 
REMARK       I    between atoms: C_5  and  N_6 
REMARK    2  A    between atoms: N_6  and  C_7 
REMARK    3  A    between atoms: C_7  and  N_8 
REMARK    4  A    between atoms: N_8  and  C_9 
ROOT
HETATM    1  C   UNL     1      27.409  47.668  41.060  1.00  0.00     0.257 C 
HETATM    2  N   UNL     1      26.496  48.708  40.936  1.00  0.00    -0.299 N 
HETATM    3  O   UNL     1      27.002  46.529  41.277  1.00  0.00    -0.267 OA
HETATM    4  H   UNL     1      25.597  48.359  41.244  1.00  0.00     0.171 HD
ENDROOT
BRANCH   2   5
HETATM    5  C   UNL     1      26.312  49.628  39.877  1.00  0.00     0.180 C 
HETATM    6  S   UNL     1      25.533  49.266  38.445  1.00  0.00    -0.040 SA
BRANCH   5   7
HETATM    7  N   UNL     1      26.879  50.840  40.251  1.00  0.00    -0.318 N 
HETATM    8  H   UNL     1      26.245  51.540  40.614  1.00  0.00     0.170 HD
BRANCH   7   9
HETATM    9  C   UNL     1      28.187  51.330  40.342  1.00  0.00     0.129 A 
HETATM   10  N   UNL     1      28.385  52.003  41.498  1.00  0.00    -0.243 NA
HETATM   11  C   UNL     1      29.600  52.556  41.705  1.00  0.00     0.119 A 
HETATM   12  C   UNL     1      30.646  52.474  40.806  1.00  0.00     0.026 A 
HETATM   13  C   UNL     1      30.436  51.784  39.615  1.00  0.00    -0.057 A 
HETATM   14  C   UNL     1      31.538  51.672  38.605  1.00  0.00     0.048 C 
HETATM   15  C   UNL     1      29.179  51.212  39.380  1.00  0.00     0.057 A 
ENDBRANCH   7   9
ENDBRANCH   5   7
ENDBRANCH   2   5
BRANCH   1  16
HETATM   16  C   UNL     1      28.867  47.942  40.971  1.00  0.00     0.032 A 
HETATM   17  C   UNL     1      29.559  48.610  41.990  1.00  0.00     0.023 A 
HETATM   18  C   UNL     1      30.938  48.838  41.877  1.00  0.00    -0.061 A 
HETATM   19  C   UNL     1      31.687  49.537  42.972  1.00  0.00     0.048 C 
HETATM   20  C   UNL     1      31.620  48.353  40.753  1.00  0.00     0.007 A 
HETATM   21  C   UNL     1      30.937  47.669  39.747  1.00  0.00     0.002 A 
HETATM   22  C   UNL     1      29.563  47.460  39.856  1.00  0.00     0.017 A 
ENDBRANCH   1  16
TORSDOF 4
ENDMDL
MODEL 5
REMARK VINA RESULT:      -7.5      1.999      6.498
REMARK  4 active torsions:
REMARK  status: ('A' for Active; 'I' for Inactive)
REMARK    1  A    between atoms: C_4  and  C_5 
REMARK       I    between atoms: C_5  and  N_6 
REMARK    2  A    between atoms: N_6  and  C_7 
REMARK    3  A    between atoms: C_7  and  N_8 
REMARK    4  A    between atoms: N_8  and  C_9 
ROOT
HETATM    1  C   UNL     1      25.041  47.063  51.220  1.00  0.00     0.257 C 
HETATM    2  N   UNL     1      24.585  45.780  50.941  1.00  0.00    -0.299 N 
HETATM    3  O   UNL     1      25.161  47.421  52.390  1.00  0.00    -0.267 OA
HETATM    4  H   UNL     1      24.233  45.391  51.806  1.00  0.00     0.171 HD
ENDROOT
BRANCH   2   5
HETATM    5  C   UNL     1      25.181  44.758  50.165  1.00  0.00     0.180 C 
HETATM    6  S   UNL     1      24.397  43.928  48.946  1.00  0.00    -0.040 SA
BRANCH   5   7
HETATM    7  N   UNL     1      26.490  44.592  50.598  1.00  0.00    -0.318 N 
HETATM    8  H   UNL     1      27.213  44.974  50.000  1.00  0.00     0.170 HD
BRANCH   7   9
HETATM    9  C   UNL     1      27.089  44.083  51.755  1.00  0.00     0.129 A 
HETATM   10  N   UNL     1      26.223  44.061  52.793  1.00  0.00    -0.243 NA
HETATM   11  C   UNL     1      26.679  43.617  53.985  1.00  0.00     0.119 A 
HETATM   12  C   UNL     1      27.974  43.186  54.201  1.00  0.00     0.026 A 
HETATM   13  C   UNL     1      28.863  43.215  53.130  1.00  0.00    -0.057 A 
HETATM   14  C   UNL     1      30.281  42.763  53.316  1.00  0.00     0.048 C 
HETATM   15  C   UNL     1      28.410  43.681  51.890  1.00  0.00     0.057 A 
ENDBRANCH   7   9
ENDBRANCH   5   7
ENDBRANCH   2   5
BRANCH   1  16
HETATM   16  C   UNL     1      25.343  48.004  50.110  1.00  0.00     0.032 A 
HETATM   17  C   UNL     1      24.333  48.712  49.444  1.00  0.00     0.023 A 
HETATM   18  C   UNL     1      24.658  49.603  48.411  1.00  0.00    -0.061 A 
HETATM   19  C   UNL     1      23.583  50.376  47.706  1.00  0.00     0.048 C 
HETATM   20  C   UNL     1      26.005  49.806  48.082  1.00  0.00     0.007 A 
HETATM   21  C   UNL     1      27.012  49.118  48.758  1.00  0.00     0.002 A 
HETATM   22  C   UNL     1      26.684  48.220  49.773  1.00  0.00     0.017 A 
ENDBRANCH   1  16
TORSDOF 4
ENDMDL
MODEL 6
REMARK VINA RESULT:      -7.5     12.180     14.164
REMARK  4 active torsions:
REMARK  status: ('A' for Active; 'I' for Inactive)
REMARK    1  A    between atoms: C_4  and  C_5 
REMARK       I    between atoms: C_5  and  N_6 
REMARK    2  A    between atoms: N_6  and  C_7 
REMARK    3  A    between atoms: C_7  and  N_8 
REMARK    4  A    between atoms: N_8  and  C_9 
ROOT
HETATM    1  C   UNL     1      29.319  50.196  38.816  1.00  0.00     0.257 C 
HETATM    2  N   UNL     1      29.549  48.876  39.188  1.00  0.00    -0.299 N 
HETATM    3  O   UNL     1      28.509  50.440  37.924  1.00  0.00    -0.267 OA
HETATM    4  H   UNL     1      29.113  48.286  38.490  1.00  0.00     0.171 HD
ENDROOT
BRANCH   2   5
HETATM    5  C   UNL     1      29.449  48.264  40.460  1.00  0.00     0.180 C 
HETATM    6  S   UNL     1      28.009  47.799  41.165  1.00  0.00    -0.040 SA
BRANCH   5   7
HETATM    7  N   UNL     1      30.730  48.131  40.978  1.00  0.00    -0.318 N 
HETATM    8  H   UNL     1      31.156  47.216  40.895  1.00  0.00     0.170 HD
BRANCH   7   9
HETATM    9  C   UNL     1      31.665  49.010  41.536  1.00  0.00     0.129 A 
HETATM   10  N   UNL     1      32.888  48.849  40.981  1.00  0.00    -0.243 NA
HETATM   11  C   UNL     1      33.897  49.618  41.447  1.00  0.00     0.119 A 
HETATM   12  C   UNL     1      33.750  50.553  42.454  1.00  0.00     0.026 A 
HETATM   13  C   UNL     1      32.490  50.712  43.024  1.00  0.00    -0.057 A 
HETATM   14  C   UNL     1      32.281  51.711  44.123  1.00  0.00     0.048 C 
HETATM   15  C   UNL     1      31.435  49.916  42.560  1.00  0.00     0.057 A 
ENDBRANCH   7   9
ENDBRANCH   5   7
ENDBRANCH   2   5
BRANCH   1  16
HETATM   16  C   UNL     1      30.077  51.295  39.466  1.00  0.00     0.032 A 
HETATM   17  C   UNL     1      31.418  51.557  39.154  1.00  0.00     0.023 A 
HETATM   18  C   UNL     1      32.096  52.614  39.778  1.00  0.00    -0.061 A 
HETATM   19  C   UNL     1      33.526  52.908  39.435  1.00  0.00     0.048 C 
HETATM   20  C   UNL     1      31.405  53.428  40.685  1.00  0.00     0.007 A 
HETATM   21  C   UNL     1      30.065  53.182  40.982  1.00  0.00     0.002 A 
HETATM   22  C   UNL     1      29.399  52.120  40.371  1.00  0.00     0.017 A 
ENDBRANCH   1  16
TORSDOF 4
ENDMDL
MODEL 7
REMARK VINA RESULT:      -7.5     12.090     13.121
REMARK  4 active torsions:
REMARK  status: ('A' for Active; 'I' for Inactive)
REMARK    1  A    between atoms: C_4  and  C_5 
REMARK       I    between atoms: C_5  and  N_6 
REMARK    2  A    between atoms: N_6  and  C_7 
REMARK    3  A    between atoms: C_7  and  N_8 
REMARK    4  A    between atoms: N_8  and  C_9 
ROOT
HETATM    1  C   UNL     1      28.990  47.039  40.274  1.00  0.00     0.257 C 
HETATM    2  N   UNL     1      27.660  47.247  40.619  1.00  0.00    -0.299 N 
HETATM    3  O   UNL     1      29.365  45.909  39.968  1.00  0.00    -0.267 OA
HETATM    4  H   UNL     1      27.234  46.337  40.742  1.00  0.00     0.171 HD
ENDROOT
BRANCH   2   5
HETATM    5  C   UNL     1      26.713  48.145  40.072  1.00  0.00     0.180 C 
HETATM    6  S   UNL     1      25.659  47.758  38.837  1.00  0.00    -0.040 SA
BRANCH   5   7
HETATM    7  N   UNL     1      26.829  49.358  40.740  1.00  0.00    -0.318 N 
HETATM    8  H   UNL     1      26.356  49.426  41.633  1.00  0.00     0.170 HD
BRANCH   7   9
HETATM    9  C   UNL     1      27.545  50.540  40.522  1.00  0.00     0.129 A 
HETATM   10  N   UNL     1      27.935  51.105  41.686  1.00  0.00    -0.243 NA
HETATM   11  C   UNL     1      28.614  52.272  41.624  1.00  0.00     0.119 A 
HETATM   12  C   UNL     1      28.930  52.916  40.443  1.00  0.00     0.026 A 
HETATM   13  C   UNL     1      28.522  52.332  39.247  1.00  0.00    -0.057 A 
HETATM   14  C   UNL     1      28.836  52.996  37.940  1.00  0.00     0.048 C 
HETATM   15  C   UNL     1      27.809  51.127  39.293  1.00  0.00     0.057 A 
ENDBRANCH   7   9
ENDBRANCH   5   7
ENDBRANCH   2   5
BRANCH   1  16
HETATM   16  C   UNL     1      29.954  48.168  40.314  1.00  0.00     0.032 A 
HETATM   17  C   UNL     1      30.471  48.659  41.521  1.00  0.00     0.023 A 
HETATM   18  C   UNL     1      31.392  49.716  41.518  1.00  0.00    -0.061 A 
HETATM   19  C   UNL     1      31.961  50.234  42.806  1.00  0.00     0.048 C 
HETATM   20  C   UNL     1      31.819  50.248  40.294  1.00  0.00     0.007 A 
HETATM   21  C   UNL     1      31.321  49.747  39.091  1.00  0.00     0.002 A 
HETATM   22  C   UNL     1      30.393  48.706  39.099  1.00  0.00     0.017 A 
ENDBRANCH   1  16
TORSDOF 4
ENDMDL
MODEL 8
REMARK VINA RESULT:      -7.3     13.255     14.890
REMARK  4 active torsions:
REMARK  status: ('A' for Active; 'I' for Inactive)
REMARK    1  A    between atoms: C_4  and  C_5 
REMARK       I    between atoms: C_5  and  N_6 
REMARK    2  A    between atoms: N_6  and  C_7 
REMARK    3  A    between atoms: C_7  and  N_8 
REMARK    4  A    between atoms: N_8  and  C_9 
ROOT
HETATM    1  C   UNL     1      35.642  50.845  41.154  1.00  0.00     0.257 C 
HETATM    2  N   UNL     1      35.685  51.643  40.017  1.00  0.00    -0.299 N 
HETATM    3  O   UNL     1      36.578  50.086  41.395  1.00  0.00    -0.267 OA
HETATM    4  H   UNL     1      36.450  51.310  39.444  1.00  0.00     0.171 HD
ENDROOT
BRANCH   2   5
HETATM    5  C   UNL     1      35.573  53.048  39.892  1.00  0.00     0.180 C 
HETATM    6  S   UNL     1      36.786  54.124  40.291  1.00  0.00    -0.040 SA
BRANCH   5   7
HETATM    7  N   UNL     1      34.311  53.340  39.391  1.00  0.00    -0.318 N 
HETATM    8  H   UNL     1      34.229  54.187  38.844  1.00  0.00     0.170 HD
BRANCH   7   9
HETATM    9  C   UNL     1      33.078  52.677  39.377  1.00  0.00     0.129 A 
HETATM   10  N   UNL     1      33.006  51.787  38.361  1.00  0.00    -0.243 NA
HETATM   11  C   UNL     1      31.856  51.095  38.211  1.00  0.00     0.119 A 
HETATM   12  C   UNL     1      30.755  51.244  39.033  1.00  0.00     0.026 A 
HETATM   13  C   UNL     1      30.833  52.164  40.075  1.00  0.00    -0.057 A 
HETATM   14  C   UNL     1      29.663  52.366  40.991  1.00  0.00     0.048 C 
HETATM   15  C   UNL     1      32.015  52.898  40.239  1.00  0.00     0.057 A 
ENDBRANCH   7   9
ENDBRANCH   5   7
ENDBRANCH   2   5
BRANCH   1  16
HETATM   16  C   UNL     1      34.456  50.886  42.048  1.00  0.00     0.032 A 
HETATM   17  C   UNL     1      33.364  50.026  41.870  1.00  0.00     0.023 A 
HETATM   18  C   UNL     1      32.269  50.083  42.743  1.00  0.00    -0.061 A 
HETATM   19  C   UNL     1      31.105  49.153  42.568  1.00  0.00     0.048 C 
HETATM   20  C   UNL     1      32.298  50.982  43.818  1.00  0.00     0.007 A 
HETATM   21  C   UNL     1      33.394  51.825  44.009  1.00  0.00     0.002 A 
HETATM   22  C   UNL     1      34.473  51.776  43.129  1.00  0.00     0.017 A 
ENDBRANCH   1  16
TORSDOF 4
ENDMDL
MODEL 9
REMARK VINA RESULT:      -7.2      8.921     10.694
REMARK  4 active torsions:
REMARK  status: ('A' for Active; 'I' for Inactive)
REMARK    1  A    between atoms: C_4  and  C_5 
REMARK       I    between atoms: C_5  and  N_6 
REMARK    2  A    between atoms: N_6  and  C_7 
REMARK    3  A    between atoms: C_7  and  N_8 
REMARK    4  A    between atoms: N_8  and  C_9 
ROOT
HETATM    1  C   UNL     1      18.508  48.789  50.566  1.00  0.00     0.257 C 
HETATM    2  N   UNL     1      18.161  47.663  49.830  1.00  0.00    -0.299 N 
HETATM    3  O   UNL     1      18.725  48.680  51.771  1.00  0.00    -0.267 OA
HETATM    4  H   UNL     1      17.955  46.923  50.490  1.00  0.00     0.171 HD
ENDROOT
BRANCH   2   5
HETATM    5  C   UNL     1      18.766  47.115  48.674  1.00  0.00     0.180 C 
HETATM    6  S   UNL     1      20.191  46.246  48.684  1.00  0.00    -0.040 SA
BRANCH   5   7
HETATM    7  N   UNL     1      17.971  47.429  47.579  1.00  0.00    -0.318 N 
HETATM    8  H   UNL     1      17.731  46.662  46.963  1.00  0.00     0.170 HD
BRANCH   7   9
HETATM    9  C   UNL     1      17.311  48.581  47.137  1.00  0.00     0.129 A 
HETATM   10  N   UNL     1      16.019  48.596  47.538  1.00  0.00    -0.243 NA
HETATM   11  C   UNL     1      15.253  49.640  47.156  1.00  0.00     0.119 A 
HETATM   12  C   UNL     1      15.712  50.690  46.383  1.00  0.00     0.026 A 
HETATM   13  C   UNL     1      17.042  50.668  45.969  1.00  0.00    -0.057 A 
HETATM   14  C   UNL     1      17.586  51.781  45.125  1.00  0.00     0.048 C 
HETATM   15  C   UNL     1      17.848  49.587  46.348  1.00  0.00     0.057 A 
ENDBRANCH   7   9
ENDBRANCH   5   7
ENDBRANCH   2   5
BRANCH   1  16
HETATM   16  C   UNL     1      18.578  50.118  49.905  1.00  0.00     0.032 A 
HETATM   17  C   UNL     1      17.499  51.012  49.923  1.00  0.00     0.023 A 
HETATM   18  C   UNL     1      17.608  52.264  49.302  1.00  0.00    -0.061 A 
HETATM   19  C   UNL     1      16.462  53.231  49.333  1.00  0.00     0.048 C 
HETATM   20  C   UNL     1      18.820  52.625  48.699  1.00  0.00     0.007 A 
HETATM   21  C   UNL     1      19.902  51.744  48.699  1.00  0.00     0.002 A 
HETATM   22  C   UNL     1      19.784  50.494  49.303  1.00  0.00     0.017 A 
ENDBRANCH   1  16
TORSDOF 4
ENDMDL
MODEL 10
REMARK VINA RESULT:      -7.2     12.924     14.425
REMARK  4 active torsions:
REMARK  status: ('A' for Active; 'I' for Inactive)
REMARK    1  A    between atoms: C_4  and  C_5 
REMARK       I    between atoms: C_5  and  N_6 
REMARK    2  A    between atoms: N_6  and  C_7 
REMARK    3  A    between atoms: C_7  and  N_8 
REMARK    4  A    between atoms: N_8  and  C_9 
ROOT
HETATM    1  C   UNL     1      27.250  49.966  39.414  1.00  0.00     0.257 C 
HETATM    2  N   UNL     1      27.826  48.858  38.803  1.00  0.00    -0.299 N 
HETATM    3  O   UNL     1      26.049  49.957  39.672  1.00  0.00    -0.267 OA
HETATM    4  H   UNL     1      27.071  48.260  38.490  1.00  0.00     0.171 HD
ENDROOT
BRANCH   2   5
HETATM    5  C   UNL     1      28.921  48.064  39.218  1.00  0.00     0.180 C 
HETATM    6  S   UNL     1      28.793  46.747  40.236  1.00  0.00    -0.040 SA
BRANCH   5   7
HETATM    7  N   UNL     1      30.073  48.574  38.631  1.00  0.00    -0.318 N 
HETATM    8  H   UNL     1      30.269  48.268  37.686  1.00  0.00     0.170 HD
BRANCH   7   9
HETATM    9  C   UNL     1      31.032  49.522  39.003  1.00  0.00     0.129 A 
HETATM   10  N   UNL     1      31.260  50.411  38.010  1.00  0.00    -0.243 NA
HETATM   11  C   UNL     1      32.188  51.370  38.223  1.00  0.00     0.119 A 
HETATM   12  C   UNL     1      32.913  51.492  39.393  1.00  0.00     0.026 A 
HETATM   13  C   UNL     1      32.678  50.571  40.411  1.00  0.00    -0.057 A 
HETATM   14  C   UNL     1      33.444  50.658  41.697  1.00  0.00     0.048 C 
HETATM   15  C   UNL     1      31.726  49.564  40.203  1.00  0.00     0.057 A 
ENDBRANCH   7   9
ENDBRANCH   5   7
ENDBRANCH   2   5
BRANCH   1  16
HETATM   16  C   UNL     1      28.076  51.163  39.714  1.00  0.00     0.032 A 
HETATM   17  C   UNL     1      28.719  51.330  40.948  1.00  0.00     0.023 A 
HETATM   18  C   UNL     1      29.504  52.467  41.189  1.00  0.00    -0.061 A 
HETATM   19  C   UNL     1      30.207  52.641  42.502  1.00  0.00     0.048 C 
HETATM   20  C   UNL     1      29.670  53.411  40.168  1.00  0.00     0.007 A 
HETATM   21  C   UNL     1      29.049  53.236  38.931  1.00  0.00     0.002 A 
HETATM   22  C   UNL     1      28.256  52.113  38.702  1.00  0.00     0.017 A 
ENDBRANCH   1  16
TORSDOF 4
ENDMDL
