MODEL 1
REMARK VINA RESULT:     -10.2      0.000      0.000
REMARK  6 active torsions:
REMARK  status: ('A' for Active; 'I' for Inactive)
REMARK    1  A    between atoms: C_4  and  C_5 
REMARK    2  A    between atoms: C_5  and  N_6 
REMARK    3  A    between atoms: C_9  and  C_10 
REMARK       I    between atoms: C_10  and  N_11 
REMARK    4  A    between atoms: N_11  and  N_12 
REMARK    5  A    between atoms: C_13  and  C_14 
REMARK    6  A    between atoms: C_15  and  O_16 
ROOT
HETATM    1  C   UNL     1      25.833  46.364  49.937  1.00  0.00     0.271 C 
HETATM    2  N   UNL     1      25.741  45.396  50.926  1.00  0.00    -0.243 N 
HETATM    3  O   UNL     1      26.889  46.749  49.445  1.00  0.00    -0.266 OA
HETATM    4  H   UNL     1      24.868  45.022  51.273  1.00  0.00     0.192 HD
ENDROOT
BRANCH   2   5
HETATM    5  N   UNL     1      26.906  44.908  51.433  1.00  0.00    -0.183 NA
HETATM    6  C   UNL     1      26.936  44.610  52.696  1.00  0.00     0.153 C 
BRANCH   6   7
HETATM    7  C   UNL     1      28.180  44.091  53.326  1.00  0.00     0.027 A 
HETATM    8  C   UNL     1      28.856  43.014  52.721  1.00  0.00     0.078 A 
HETATM    9  C   UNL     1      30.019  42.502  53.279  1.00  0.00     0.038 A 
HETATM   10  C   UNL     1      30.530  43.060  54.445  1.00  0.00     0.015 A 
HETATM   11  C   UNL     1      29.887  44.137  55.072  1.00  0.00    -0.025 A 
HETATM   12  C   UNL     1      28.692  44.680  54.524  1.00  0.00    -0.012 A 
HETATM   13  C   UNL     1      30.441  44.674  56.243  1.00  0.00     0.012 A 
HETATM   14  C   UNL     1      28.112  45.774  55.222  1.00  0.00     0.013 A 
HETATM   15  C   UNL     1      28.678  46.296  56.388  1.00  0.00     0.001 A 
HETATM   16  C   UNL     1      29.843  45.746  56.899  1.00  0.00     0.001 A 
BRANCH   8  17
HETATM   17  O   UNL     1      28.443  42.394  51.571  1.00  0.00    -0.360 OA
HETATM   18  H   UNL     1      28.113  43.073  50.942  1.00  0.00     0.217 HD
ENDBRANCH   8  17
ENDBRANCH   6   7
ENDBRANCH   2   5
BRANCH   1  19
HETATM   19  C   UNL     1      24.574  46.994  49.444  1.00  0.00     0.036 A 
HETATM   20  C   UNL     1      24.405  48.363  49.254  1.00  0.00     0.034 A 
HETATM   21  C   UNL     1      23.212  48.833  48.702  1.00  0.00     0.091 A 
HETATM   22  N   UNL     1      22.227  47.977  48.342  1.00  0.00    -0.362 N 
HETATM   23  C   UNL     1      22.368  46.646  48.529  1.00  0.00     0.091 A 
HETATM   24  C   UNL     1      23.532  46.134  49.083  1.00  0.00     0.034 A 
BRANCH  22  25
HETATM   25  C   UNL     1      21.001  48.498  47.679  1.00  0.00     0.166 C 
BRANCH  25  26
HETATM   26  C   UNL     1      20.360  49.611  48.464  1.00  0.00    -0.040 A 
HETATM   27  C   UNL     1      20.408  50.926  47.972  1.00  0.00     0.009 A 
HETATM   28  C   UNL     1      19.775  51.965  48.657  1.00  0.00     0.001 A 
HETATM   29  C   UNL     1      19.082  51.703  49.835  1.00  0.00     0.000 A 
HETATM   30  C   UNL     1      19.016  50.403  50.330  1.00  0.00     0.001 A 
HETATM   31  C   UNL     1      19.646  49.360  49.647  1.00  0.00     0.009 A 
ENDBRANCH  25  26
ENDBRANCH  22  25
ENDBRANCH   1  19
TORSDOF 6
ENDMDL
MODEL 2
REMARK VINA RESULT:      -9.9      1.483      2.705
REMARK  6 active torsions:
REMARK  status: ('A' for Active; 'I' for Inactive)
REMARK    1  A    between atoms: C_4  and  C_5 
REMARK    2  A    between atoms: C_5  and  N_6 
REMARK    3  A    between atoms: C_9  and  C_10 
REMARK       I    between atoms: C_10  and  N_11 
REMARK    4  A    between atoms: N_11  and  N_12 
REMARK    5  A    between atoms: C_13  and  C_14 
REMARK    6  A    between atoms: C_15  and  O_16 
ROOT
HETATM    1  C   UNL     1      25.255  47.487  50.285  1.00  0.00     0.271 C 
HETATM    2  N   UNL     1      25.076  47.007  51.574  1.00  0.00    -0.243 N 
HETATM    3  O   UNL     1      26.351  47.687  49.769  1.00  0.00    -0.266 OA
HETATM    4  H   UNL     1      24.177  46.766  51.969  1.00  0.00     0.192 HD
ENDROOT
BRANCH   2   5
HETATM    5  N   UNL     1      26.191  46.826  52.334  1.00  0.00    -0.183 NA
HETATM    6  C   UNL     1      26.215  45.808  53.138  1.00  0.00     0.153 C 
BRANCH   6   7
HETATM    7  C   UNL     1      27.391  45.558  54.015  1.00  0.00     0.027 A 
HETATM    8  C   UNL     1      27.608  46.399  55.124  1.00  0.00     0.078 A 
HETATM    9  C   UNL     1      28.694  46.199  55.965  1.00  0.00     0.038 A 
HETATM   10  C   UNL     1      29.576  45.153  55.717  1.00  0.00     0.015 A 
HETATM   11  C   UNL     1      29.388  44.294  54.626  1.00  0.00    -0.025 A 
HETATM   12  C   UNL     1      28.285  44.477  53.746  1.00  0.00    -0.012 A 
HETATM   13  C   UNL     1      30.299  43.247  54.417  1.00  0.00     0.012 A 
HETATM   14  C   UNL     1      28.170  43.554  52.671  1.00  0.00     0.013 A 
HETATM   15  C   UNL     1      29.087  42.518  52.478  1.00  0.00     0.001 A 
HETATM   16  C   UNL     1      30.152  42.364  53.352  1.00  0.00     0.001 A 
BRANCH   8  17
HETATM   17  O   UNL     1      26.801  47.453  55.461  1.00  0.00    -0.360 OA
HETATM   18  H   UNL     1      26.609  47.413  56.425  1.00  0.00     0.217 HD
ENDBRANCH   8  17
ENDBRANCH   6   7
ENDBRANCH   2   5
BRANCH   1  19
HETATM   19  C   UNL     1      24.045  47.798  49.472  1.00  0.00     0.036 A 
HETATM   20  C   UNL     1      23.127  46.846  49.034  1.00  0.00     0.034 A 
HETATM   21  C   UNL     1      21.982  47.264  48.354  1.00  0.00     0.091 A 
HETATM   22  N   UNL     1      21.749  48.577  48.124  1.00  0.00    -0.362 N 
HETATM   23  C   UNL     1      22.633  49.515  48.531  1.00  0.00     0.091 A 
HETATM   24  C   UNL     1      23.789  49.146  49.203  1.00  0.00     0.034 A 
BRANCH  22  25
HETATM   25  C   UNL     1      20.481  48.999  47.472  1.00  0.00     0.166 C 
BRANCH  25  26
HETATM   26  C   UNL     1      19.761  50.061  48.260  1.00  0.00    -0.040 A 
HETATM   27  C   UNL     1      19.811  51.398  47.831  1.00  0.00     0.009 A 
HETATM   28  C   UNL     1      19.109  52.391  48.517  1.00  0.00     0.001 A 
HETATM   29  C   UNL     1      18.345  52.061  49.632  1.00  0.00     0.000 A 
HETATM   30  C   UNL     1      18.278  50.738  50.064  1.00  0.00     0.001 A 
HETATM   31  C   UNL     1      18.977  49.741  49.379  1.00  0.00     0.009 A 
ENDBRANCH  25  26
ENDBRANCH  22  25
ENDBRANCH   1  19
TORSDOF 6
ENDMDL
MODEL 3
REMARK VINA RESULT:      -9.4      0.886      1.568
REMARK  6 active torsions:
REMARK  status: ('A' for Active; 'I' for Inactive)
REMARK    1  A    between atoms: C_4  and  C_5 
REMARK    2  A    between atoms: C_5  and  N_6 
REMARK    3  A    between atoms: C_9  and  C_10 
REMARK       I    between atoms: C_10  and  N_11 
REMARK    4  A    between atoms: N_11  and  N_12 
REMARK    5  A    between atoms: C_13  and  C_14 
REMARK    6  A    between atoms: C_15  and  O_16 
ROOT
HETATM    1  C   UNL     1      25.026  45.170  49.776  1.00  0.00     0.271 C 
HETATM    2  N   UNL     1      25.495  45.698  50.969  1.00  0.00    -0.243 N 
HETATM    3  O   UNL     1      25.572  44.257  49.163  1.00  0.00    -0.266 OA
HETATM    4  H   UNL     1      25.002  46.393  51.514  1.00  0.00     0.192 HD
ENDROOT
BRANCH   2   5
HETATM    5  N   UNL     1      26.681  45.222  51.440  1.00  0.00    -0.183 NA
HETATM    6  C   UNL     1      26.686  44.665  52.612  1.00  0.00     0.153 C 
BRANCH   6   7
HETATM    7  C   UNL     1      27.948  44.141  53.200  1.00  0.00     0.027 A 
HETATM    8  C   UNL     1      28.605  43.069  52.568  1.00  0.00     0.078 A 
HETATM    9  C   UNL     1      29.783  42.552  53.087  1.00  0.00     0.038 A 
HETATM   10  C   UNL     1      30.329  43.102  54.241  1.00  0.00     0.015 A 
HETATM   11  C   UNL     1      29.705  44.173  54.895  1.00  0.00    -0.025 A 
HETATM   12  C   UNL     1      28.495  44.721  54.387  1.00  0.00    -0.012 A 
HETATM   13  C   UNL     1      30.295  44.701  56.053  1.00  0.00     0.012 A 
HETATM   14  C   UNL     1      27.936  45.810  55.110  1.00  0.00     0.013 A 
HETATM   15  C   UNL     1      28.537  46.323  56.263  1.00  0.00     0.001 A 
HETATM   16  C   UNL     1      29.717  45.769  56.735  1.00  0.00     0.001 A 
BRANCH   8  17
HETATM   17  O   UNL     1      28.157  42.457  51.426  1.00  0.00    -0.360 OA
HETATM   18  H   UNL     1      28.576  41.571  51.352  1.00  0.00     0.217 HD
ENDBRANCH   8  17
ENDBRANCH   6   7
ENDBRANCH   2   5
BRANCH   1  19
HETATM   19  C   UNL     1      23.787  45.752  49.183  1.00  0.00     0.036 A 
HETATM   20  C   UNL     1      22.726  44.998  48.686  1.00  0.00     0.034 A 
HETATM   21  C   UNL     1      21.578  45.651  48.237  1.00  0.00     0.091 A 
HETATM   22  N   UNL     1      21.478  47.000  48.287  1.00  0.00    -0.362 N 
HETATM   23  C   UNL     1      22.501  47.749  48.756  1.00  0.00     0.091 A 
HETATM   24  C   UNL     1      23.666  47.145  49.205  1.00  0.00     0.034 A 
BRANCH  22  25
HETATM   25  C   UNL     1      20.211  47.663  47.879  1.00  0.00     0.166 C 
BRANCH  25  26
HETATM   26  C   UNL     1      20.045  49.016  48.518  1.00  0.00    -0.040 A 
HETATM   27  C   UNL     1      19.547  49.110  49.828  1.00  0.00     0.009 A 
HETATM   28  C   UNL     1      19.435  50.351  50.458  1.00  0.00     0.001 A 
HETATM   29  C   UNL     1      19.824  51.509  49.792  1.00  0.00     0.000 A 
HETATM   30  C   UNL     1      20.329  51.431  48.496  1.00  0.00     0.001 A 
HETATM   31  C   UNL     1      20.446  50.192  47.863  1.00  0.00     0.009 A 
ENDBRANCH  25  26
ENDBRANCH  22  25
ENDBRANCH   1  19
TORSDOF 6
ENDMDL
MODEL 4
REMARK VINA RESULT:      -9.2      2.048     10.841
REMARK  6 active torsions:
REMARK  status: ('A' for Active; 'I' for Inactive)
REMARK    1  A    between atoms: C_4  and  C_5 
REMARK    2  A    between atoms: C_5  and  N_6 
REMARK    3  A    between atoms: C_9  and  C_10 
REMARK       I    between atoms: C_10  and  N_11 
REMARK    4  A    between atoms: N_11  and  N_12 
REMARK    5  A    between atoms: C_13  and  C_14 
REMARK    6  A    between atoms: C_15  and  O_16 
ROOT
HETATM    1  C   UNL     1      24.151  46.680  49.976  1.00  0.00     0.271 C 
HETATM    2  N   UNL     1      23.519  47.913  49.949  1.00  0.00    -0.243 N 
HETATM    3  O   UNL     1      24.081  45.848  49.075  1.00  0.00    -0.266 OA
HETATM    4  H   UNL     1      23.642  48.628  50.654  1.00  0.00     0.192 HD
ENDROOT
BRANCH   2   5
HETATM    5  N   UNL     1      22.704  48.176  48.890  1.00  0.00    -0.183 NA
HETATM    6  C   UNL     1      21.443  48.363  49.130  1.00  0.00     0.153 C 
BRANCH   6   7
HETATM    7  C   UNL     1      20.489  48.633  48.021  1.00  0.00     0.027 A 
HETATM    8  C   UNL     1      20.217  47.614  47.088  1.00  0.00     0.078 A 
HETATM    9  C   UNL     1      19.334  47.828  46.040  1.00  0.00     0.038 A 
HETATM   10  C   UNL     1      18.704  49.060  45.908  1.00  0.00     0.015 A 
HETATM   11  C   UNL     1      18.947  50.096  46.820  1.00  0.00    -0.025 A 
HETATM   12  C   UNL     1      19.849  49.906  47.903  1.00  0.00    -0.012 A 
HETATM   13  C   UNL     1      18.283  51.321  46.653  1.00  0.00     0.012 A 
HETATM   14  C   UNL     1      20.029  51.008  48.783  1.00  0.00     0.013 A 
HETATM   15  C   UNL     1      19.360  52.221  48.600  1.00  0.00     0.001 A 
HETATM   16  C   UNL     1      18.487  52.378  47.536  1.00  0.00     0.001 A 
BRANCH   8  17
HETATM   17  O   UNL     1      20.778  46.364  47.127  1.00  0.00    -0.360 OA
HETATM   18  H   UNL     1      20.573  45.895  46.288  1.00  0.00     0.217 HD
ENDBRANCH   8  17
ENDBRANCH   6   7
ENDBRANCH   2   5
BRANCH   1  19
HETATM   19  C   UNL     1      24.959  46.324  51.178  1.00  0.00     0.036 A 
HETATM   20  C   UNL     1      25.937  47.144  51.737  1.00  0.00     0.034 A 
HETATM   21  C   UNL     1      26.568  46.746  52.916  1.00  0.00     0.091 A 
HETATM   22  N   UNL     1      26.236  45.584  53.527  1.00  0.00    -0.362 N 
HETATM   23  C   UNL     1      25.297  44.770  52.993  1.00  0.00     0.091 A 
HETATM   24  C   UNL     1      24.650  45.120  51.818  1.00  0.00     0.034 A 
BRANCH  22  25
HETATM   25  C   UNL     1      26.864  45.226  54.826  1.00  0.00     0.166 C 
BRANCH  25  26
HETATM   26  C   UNL     1      28.163  44.486  54.645  1.00  0.00    -0.040 A 
HETATM   27  C   UNL     1      29.273  44.827  55.435  1.00  0.00     0.009 A 
HETATM   28  C   UNL     1      30.471  44.119  55.320  1.00  0.00     0.001 A 
HETATM   29  C   UNL     1      30.572  43.060  54.423  1.00  0.00     0.000 A 
HETATM   30  C   UNL     1      29.476  42.703  53.641  1.00  0.00     0.001 A 
HETATM   31  C   UNL     1      28.275  43.407  53.754  1.00  0.00     0.009 A 
ENDBRANCH  25  26
ENDBRANCH  22  25
ENDBRANCH   1  19
TORSDOF 6
ENDMDL
MODEL 5
REMARK VINA RESULT:      -8.8      5.978      8.909
REMARK  6 active torsions:
REMARK  status: ('A' for Active; 'I' for Inactive)
REMARK    1  A    between atoms: C_4  and  C_5 
REMARK    2  A    between atoms: C_5  and  N_6 
REMARK    3  A    between atoms: C_9  and  C_10 
REMARK       I    between atoms: C_10  and  N_11 
REMARK    4  A    between atoms: N_11  and  N_12 
REMARK    5  A    between atoms: C_13  and  C_14 
REMARK    6  A    between atoms: C_15  and  O_16 
ROOT
HETATM    1  C   UNL     1      27.855  40.863  51.489  1.00  0.00     0.271 C 
HETATM    2  N   UNL     1      26.920  41.834  51.814  1.00  0.00    -0.243 N 
HETATM    3  O   UNL     1      28.863  40.626  52.149  1.00  0.00    -0.266 OA
HETATM    4  H   UNL     1      26.051  41.974  51.316  1.00  0.00     0.192 HD
ENDROOT
BRANCH   2   5
HETATM    5  N   UNL     1      27.188  42.624  52.890  1.00  0.00    -0.183 NA
HETATM    6  C   UNL     1      27.539  43.853  52.665  1.00  0.00     0.153 C 
BRANCH   6   7
HETATM    7  C   UNL     1      27.867  44.769  53.789  1.00  0.00     0.027 A 
HETATM    8  C   UNL     1      27.071  45.911  53.997  1.00  0.00     0.078 A 
HETATM    9  C   UNL     1      27.346  46.790  55.035  1.00  0.00     0.038 A 
HETATM   10  C   UNL     1      28.416  46.540  55.886  1.00  0.00     0.015 A 
HETATM   11  C   UNL     1      29.228  45.411  55.713  1.00  0.00    -0.025 A 
HETATM   12  C   UNL     1      28.971  44.494  54.656  1.00  0.00    -0.012 A 
HETATM   13  C   UNL     1      30.293  45.194  56.600  1.00  0.00     0.012 A 
HETATM   14  C   UNL     1      29.840  43.374  54.559  1.00  0.00     0.013 A 
HETATM   15  C   UNL     1      30.897  43.174  55.452  1.00  0.00     0.001 A 
HETATM   16  C   UNL     1      31.124  44.084  56.472  1.00  0.00     0.001 A 
BRANCH   8  17
HETATM   17  O   UNL     1      25.992  46.249  53.222  1.00  0.00    -0.360 OA
HETATM   18  H   UNL     1      25.557  47.042  53.608  1.00  0.00     0.217 HD
ENDBRANCH   8  17
ENDBRANCH   6   7
ENDBRANCH   2   5
BRANCH   1  19
HETATM   19  C   UNL     1      27.639  40.060  50.251  1.00  0.00     0.036 A 
HETATM   20  C   UNL     1      26.426  39.974  49.572  1.00  0.00     0.034 A 
HETATM   21  C   UNL     1      26.365  39.264  48.372  1.00  0.00     0.091 A 
HETATM   22  N   UNL     1      27.466  38.667  47.858  1.00  0.00    -0.362 N 
HETATM   23  C   UNL     1      28.649  38.730  48.508  1.00  0.00     0.091 A 
HETATM   24  C   UNL     1      28.757  39.417  49.708  1.00  0.00     0.034 A 
BRANCH  22  25
HETATM   25  C   UNL     1      27.389  37.988  46.537  1.00  0.00     0.166 C 
BRANCH  25  26
HETATM   26  C   UNL     1      28.089  38.767  45.455  1.00  0.00    -0.040 A 
HETATM   27  C   UNL     1      28.822  38.085  44.471  1.00  0.00     0.009 A 
HETATM   28  C   UNL     1      29.435  38.785  43.429  1.00  0.00     0.001 A 
HETATM   29  C   UNL     1      29.318  40.169  43.355  1.00  0.00     0.000 A 
HETATM   30  C   UNL     1      28.586  40.859  44.319  1.00  0.00     0.001 A 
HETATM   31  C   UNL     1      27.969  40.163  45.361  1.00  0.00     0.009 A 
ENDBRANCH  25  26
ENDBRANCH  22  25
ENDBRANCH   1  19
TORSDOF 6
ENDMDL
MODEL 6
REMARK VINA RESULT:      -8.5      1.740      2.573
REMARK  6 active torsions:
REMARK  status: ('A' for Active; 'I' for Inactive)
REMARK    1  A    between atoms: C_4  and  C_5 
REMARK    2  A    between atoms: C_5  and  N_6 
REMARK    3  A    between atoms: C_9  and  C_10 
REMARK       I    between atoms: C_10  and  N_11 
REMARK    4  A    between atoms: N_11  and  N_12 
REMARK    5  A    between atoms: C_13  and  C_14 
REMARK    6  A    between atoms: C_15  and  O_16 
ROOT
HETATM    1  C   UNL     1      25.408  46.404  50.055  1.00  0.00     0.271 C 
HETATM    2  N   UNL     1      25.471  45.055  50.365  1.00  0.00    -0.243 N 
HETATM    3  O   UNL     1      26.341  47.190  50.198  1.00  0.00    -0.266 OA
HETATM    4  H   UNL     1      24.731  44.393  50.172  1.00  0.00     0.192 HD
ENDROOT
BRANCH   2   5
HETATM    5  N   UNL     1      26.618  44.598  50.940  1.00  0.00    -0.183 NA
HETATM    6  C   UNL     1      26.593  44.333  52.210  1.00  0.00     0.153 C 
BRANCH   6   7
HETATM    7  C   UNL     1      27.813  43.851  52.911  1.00  0.00     0.027 A 
HETATM    8  C   UNL     1      28.485  42.717  52.415  1.00  0.00     0.078 A 
HETATM    9  C   UNL     1      29.625  42.237  53.042  1.00  0.00     0.038 A 
HETATM   10  C   UNL     1      30.117  42.883  54.170  1.00  0.00     0.015 A 
HETATM   11  C   UNL     1      29.478  44.017  54.689  1.00  0.00    -0.025 A 
HETATM   12  C   UNL     1      28.305  44.530  54.069  1.00  0.00    -0.012 A 
HETATM   13  C   UNL     1      30.013  44.642  55.826  1.00  0.00     0.012 A 
HETATM   14  C   UNL     1      27.727  45.687  54.659  1.00  0.00     0.013 A 
HETATM   15  C   UNL     1      28.274  46.296  55.792  1.00  0.00     0.001 A 
HETATM   16  C   UNL     1      29.418  45.773  56.375  1.00  0.00     0.001 A 
BRANCH   8  17
HETATM   17  O   UNL     1      28.089  42.010  51.310  1.00  0.00    -0.360 OA
HETATM   18  H   UNL     1      28.867  41.866  50.727  1.00  0.00     0.217 HD
ENDBRANCH   8  17
ENDBRANCH   6   7
ENDBRANCH   2   5
BRANCH   1  19
HETATM   19  C   UNL     1      24.124  46.950  49.528  1.00  0.00     0.036 A 
HETATM   20  C   UNL     1      23.736  48.284  49.634  1.00  0.00     0.034 A 
HETATM   21  C   UNL     1      22.552  48.700  49.024  1.00  0.00     0.091 A 
HETATM   22  N   UNL     1      21.785  47.830  48.325  1.00  0.00    -0.362 N 
HETATM   23  C   UNL     1      22.140  46.530  48.220  1.00  0.00     0.091 A 
HETATM   24  C   UNL     1      23.303  46.069  48.817  1.00  0.00     0.034 A 
BRANCH  22  25
HETATM   25  C   UNL     1      20.573  48.319  47.615  1.00  0.00     0.166 C 
BRANCH  25  26
HETATM   26  C   UNL     1      19.570  47.222  47.379  1.00  0.00    -0.040 A 
HETATM   27  C   UNL     1      18.635  46.908  48.379  1.00  0.00     0.009 A 
HETATM   28  C   UNL     1      17.663  45.929  48.161  1.00  0.00     0.001 A 
HETATM   29  C   UNL     1      17.609  45.259  46.943  1.00  0.00     0.000 A 
HETATM   30  C   UNL     1      18.523  45.566  45.938  1.00  0.00     0.001 A 
HETATM   31  C   UNL     1      19.495  46.546  46.151  1.00  0.00     0.009 A 
ENDBRANCH  25  26
ENDBRANCH  22  25
ENDBRANCH   1  19
TORSDOF 6
ENDMDL
MODEL 7
REMARK VINA RESULT:      -8.3      2.136     10.750
REMARK  6 active torsions:
REMARK  status: ('A' for Active; 'I' for Inactive)
REMARK    1  A    between atoms: C_4  and  C_5 
REMARK    2  A    between atoms: C_5  and  N_6 
REMARK    3  A    between atoms: C_9  and  C_10 
REMARK       I    between atoms: C_10  and  N_11 
REMARK    4  A    between atoms: N_11  and  N_12 
REMARK    5  A    between atoms: C_13  and  C_14 
REMARK    6  A    between atoms: C_15  and  O_16 
ROOT
HETATM    1  C   UNL     1      23.953  45.991  49.736  1.00  0.00     0.271 C 
HETATM    2  N   UNL     1      24.148  47.360  49.835  1.00  0.00    -0.243 N 
HETATM    3  O   UNL     1      22.895  45.467  49.399  1.00  0.00    -0.266 OA
HETATM    4  H   UNL     1      25.040  47.793  50.034  1.00  0.00     0.192 HD
ENDROOT
BRANCH   2   5
HETATM    5  N   UNL     1      23.068  48.162  49.622  1.00  0.00    -0.183 NA
HETATM    6  C   UNL     1      22.761  48.447  48.394  1.00  0.00     0.153 C 
BRANCH   6   7
HETATM    7  C   UNL     1      21.608  49.335  48.084  1.00  0.00     0.027 A 
HETATM    8  C   UNL     1      21.609  50.655  48.573  1.00  0.00     0.078 A 
HETATM    9  C   UNL     1      20.552  51.513  48.306  1.00  0.00     0.038 A 
HETATM   10  C   UNL     1      19.479  51.069  47.542  1.00  0.00     0.015 A 
HETATM   11  C   UNL     1      19.446  49.763  47.034  1.00  0.00    -0.025 A 
HETATM   12  C   UNL     1      20.515  48.861  47.294  1.00  0.00    -0.012 A 
HETATM   13  C   UNL     1      18.346  49.360  46.262  1.00  0.00     0.012 A 
HETATM   14  C   UNL     1      20.400  47.560  46.734  1.00  0.00     0.013 A 
HETATM   15  C   UNL     1      19.297  47.175  45.967  1.00  0.00     0.001 A 
HETATM   16  C   UNL     1      18.270  48.075  45.730  1.00  0.00     0.001 A 
BRANCH   8  17
HETATM   17  O   UNL     1      22.616  51.195  49.331  1.00  0.00    -0.360 OA
HETATM   18  H   UNL     1      22.686  50.694  50.174  1.00  0.00     0.217 HD
ENDBRANCH   8  17
ENDBRANCH   6   7
ENDBRANCH   2   5
BRANCH   1  19
HETATM   19  C   UNL     1      25.091  45.088  50.073  1.00  0.00     0.036 A 
HETATM   20  C   UNL     1      26.430  45.390  49.836  1.00  0.00     0.034 A 
HETATM   21  C   UNL     1      27.416  44.507  50.276  1.00  0.00     0.091 A 
HETATM   22  N   UNL     1      27.091  43.370  50.935  1.00  0.00    -0.362 N 
HETATM   23  C   UNL     1      25.796  43.054  51.165  1.00  0.00     0.091 A 
HETATM   24  C   UNL     1      24.781  43.897  50.738  1.00  0.00     0.034 A 
BRANCH  22  25
HETATM   25  C   UNL     1      28.165  42.489  51.465  1.00  0.00     0.166 C 
BRANCH  25  26
HETATM   26  C   UNL     1      28.782  43.039  52.724  1.00  0.00    -0.040 A 
HETATM   27  C   UNL     1      28.052  43.936  53.521  1.00  0.00     0.009 A 
HETATM   28  C   UNL     1      28.586  44.417  54.719  1.00  0.00     0.001 A 
HETATM   29  C   UNL     1      29.847  44.005  55.136  1.00  0.00     0.000 A 
HETATM   30  C   UNL     1      30.579  43.108  54.361  1.00  0.00     0.001 A 
HETATM   31  C   UNL     1      30.049  42.622  53.164  1.00  0.00     0.009 A 
ENDBRANCH  25  26
ENDBRANCH  22  25
ENDBRANCH   1  19
TORSDOF 6
ENDMDL
MODEL 8
REMARK VINA RESULT:      -8.2      2.534     10.957
REMARK  6 active torsions:
REMARK  status: ('A' for Active; 'I' for Inactive)
REMARK    1  A    between atoms: C_4  and  C_5 
REMARK    2  A    between atoms: C_5  and  N_6 
REMARK    3  A    between atoms: C_9  and  C_10 
REMARK       I    between atoms: C_10  and  N_11 
REMARK    4  A    between atoms: N_11  and  N_12 
REMARK    5  A    between atoms: C_13  and  C_14 
REMARK    6  A    between atoms: C_15  and  O_16 
ROOT
HETATM    1  C   UNL     1      23.110  47.169  48.867  1.00  0.00     0.271 C 
HETATM    2  N   UNL     1      22.701  48.291  49.573  1.00  0.00    -0.243 N 
HETATM    3  O   UNL     1      22.723  46.886  47.737  1.00  0.00    -0.266 OA
HETATM    4  H   UNL     1      23.081  48.566  50.469  1.00  0.00     0.192 HD
ENDROOT
BRANCH   2   5
HETATM    5  N   UNL     1      21.748  49.077  49.000  1.00  0.00    -0.183 NA
HETATM    6  C   UNL     1      20.543  49.007  49.476  1.00  0.00     0.153 C 
BRANCH   6   7
HETATM    7  C   UNL     1      19.445  49.820  48.888  1.00  0.00     0.027 A 
HETATM    8  C   UNL     1      19.694  51.164  48.549  1.00  0.00     0.078 A 
HETATM    9  C   UNL     1      18.695  51.955  48.000  1.00  0.00     0.038 A 
HETATM   10  C   UNL     1      17.434  51.416  47.773  1.00  0.00     0.015 A 
HETATM   11  C   UNL     1      17.151  50.081  48.093  1.00  0.00    -0.025 A 
HETATM   12  C   UNL     1      18.155  49.248  48.660  1.00  0.00    -0.012 A 
HETATM   13  C   UNL     1      15.866  49.577  47.840  1.00  0.00     0.012 A 
HETATM   14  C   UNL     1      17.782  47.907  48.946  1.00  0.00     0.013 A 
HETATM   15  C   UNL     1      16.496  47.422  48.688  1.00  0.00     0.001 A 
HETATM   16  C   UNL     1      15.538  48.257  48.135  1.00  0.00     0.001 A 
BRANCH   8  17
HETATM   17  O   UNL     1      20.899  51.793  48.726  1.00  0.00    -0.360 OA
HETATM   18  H   UNL     1      20.920  52.606  48.174  1.00  0.00     0.217 HD
ENDBRANCH   8  17
ENDBRANCH   6   7
ENDBRANCH   2   5
BRANCH   1  19
HETATM   19  C   UNL     1      24.069  46.233  49.519  1.00  0.00     0.036 A 
HETATM   20  C   UNL     1      23.761  44.927  49.893  1.00  0.00     0.034 A 
HETATM   21  C   UNL     1      24.766  44.112  50.415  1.00  0.00     0.091 A 
HETATM   22  N   UNL     1      26.033  44.568  50.553  1.00  0.00    -0.362 N 
HETATM   23  C   UNL     1      26.349  45.836  50.206  1.00  0.00     0.091 A 
HETATM   24  C   UNL     1      25.382  46.686  49.691  1.00  0.00     0.034 A 
BRANCH  22  25
HETATM   25  C   UNL     1      27.101  43.651  51.033  1.00  0.00     0.166 C 
BRANCH  25  26
HETATM   26  C   UNL     1      27.615  44.039  52.394  1.00  0.00    -0.040 A 
HETATM   27  C   UNL     1      26.825  44.845  53.231  1.00  0.00     0.009 A 
HETATM   28  C   UNL     1      27.261  45.173  54.517  1.00  0.00     0.001 A 
HETATM   29  C   UNL     1      28.482  44.697  54.982  1.00  0.00     0.000 A 
HETATM   30  C   UNL     1      29.271  43.889  54.167  1.00  0.00     0.001 A 
HETATM   31  C   UNL     1      28.839  43.556  52.882  1.00  0.00     0.009 A 
ENDBRANCH  25  26
ENDBRANCH  22  25
ENDBRANCH   1  19
TORSDOF 6
ENDMDL
MODEL 9
REMARK VINA RESULT:      -7.9     13.305     16.521
REMARK  6 active torsions:
REMARK  status: ('A' for Active; 'I' for Inactive)
REMARK    1  A    between atoms: C_4  and  C_5 
REMARK    2  A    between atoms: C_5  and  N_6 
REMARK    3  A    between atoms: C_9  and  C_10 
REMARK       I    between atoms: C_10  and  N_11 
REMARK    4  A    between atoms: N_11  and  N_12 
REMARK    5  A    between atoms: C_13  and  C_14 
REMARK    6  A    between atoms: C_15  and  O_16 
ROOT
HETATM    1  C   UNL     1      35.513  51.621  42.236  1.00  0.00     0.271 C 
HETATM    2  N   UNL     1      35.055  50.337  42.490  1.00  0.00    -0.243 N 
HETATM    3  O   UNL     1      35.032  52.371  41.391  1.00  0.00    -0.266 OA
HETATM    4  H   UNL     1      35.399  49.751  43.239  1.00  0.00     0.192 HD
ENDROOT
BRANCH   2   5
HETATM    5  N   UNL     1      34.063  49.857  41.690  1.00  0.00    -0.183 NA
HETATM    6  C   UNL     1      32.857  49.842  42.169  1.00  0.00     0.153 C 
BRANCH   6   7
HETATM    7  C   UNL     1      31.725  49.313  41.362  1.00  0.00     0.027 A 
HETATM    8  C   UNL     1      31.839  48.038  40.775  1.00  0.00     0.078 A 
HETATM    9  C   UNL     1      30.805  47.511  40.015  1.00  0.00     0.038 A 
HETATM   10  C   UNL     1      29.638  48.244  39.833  1.00  0.00     0.015 A 
HETATM   11  C   UNL     1      29.487  49.514  40.406  1.00  0.00    -0.025 A 
HETATM   12  C   UNL     1      30.531  50.080  41.188  1.00  0.00    -0.012 A 
HETATM   13  C   UNL     1      28.289  50.215  40.202  1.00  0.00     0.012 A 
HETATM   14  C   UNL     1      30.288  51.369  41.736  1.00  0.00     0.013 A 
HETATM   15  C   UNL     1      29.089  52.054  41.522  1.00  0.00     0.001 A 
HETATM   16  C   UNL     1      28.089  51.477  40.756  1.00  0.00     0.001 A 
BRANCH   8  17
HETATM   17  O   UNL     1      32.941  47.232  40.894  1.00  0.00    -0.360 OA
HETATM   18  H   UNL     1      33.692  47.765  41.237  1.00  0.00     0.217 HD
ENDBRANCH   8  17
ENDBRANCH   6   7
ENDBRANCH   2   5
BRANCH   1  19
HETATM   19  C   UNL     1      36.673  52.128  43.024  1.00  0.00     0.036 A 
HETATM   20  C   UNL     1      37.590  51.313  43.684  1.00  0.00     0.034 A 
HETATM   21  C   UNL     1      38.688  51.896  44.316  1.00  0.00     0.091 A 
HETATM   22  N   UNL     1      38.879  53.236  44.288  1.00  0.00    -0.362 N 
HETATM   23  C   UNL     1      37.995  54.044  43.662  1.00  0.00     0.091 A 
HETATM   24  C   UNL     1      36.883  53.511  43.028  1.00  0.00     0.034 A 
BRANCH  22  25
HETATM   25  C   UNL     1      40.103  53.821  44.899  1.00  0.00     0.166 C 
BRANCH  25  26
HETATM   26  C   UNL     1      40.048  53.813  46.403  1.00  0.00    -0.040 A 
HETATM   27  C   UNL     1      41.240  53.897  47.142  1.00  0.00     0.009 A 
HETATM   28  C   UNL     1      41.208  53.943  48.538  1.00  0.00     0.001 A 
HETATM   29  C   UNL     1      39.990  53.912  49.209  1.00  0.00     0.000 A 
HETATM   30  C   UNL     1      38.800  53.839  48.489  1.00  0.00     0.001 A 
HETATM   31  C   UNL     1      38.826  53.795  47.094  1.00  0.00     0.009 A 
ENDBRANCH  25  26
ENDBRANCH  22  25
ENDBRANCH   1  19
TORSDOF 6
ENDMDL
MODEL 10
REMARK VINA RESULT:      -7.9     14.202     15.173
REMARK  6 active torsions:
REMARK  status: ('A' for Active; 'I' for Inactive)
REMARK    1  A    between atoms: C_4  and  C_5 
REMARK    2  A    between atoms: C_5  and  N_6 
REMARK    3  A    between atoms: C_9  and  C_10 
REMARK       I    between atoms: C_10  and  N_11 
REMARK    4  A    between atoms: N_11  and  N_12 
REMARK    5  A    between atoms: C_13  and  C_14 
REMARK    6  A    between atoms: C_15  and  O_16 
ROOT
HETATM    1  C   UNL     1      35.755  52.156  43.152  1.00  0.00     0.271 C 
HETATM    2  N   UNL     1      36.406  51.739  44.303  1.00  0.00    -0.243 N 
HETATM    3  O   UNL     1      36.217  52.963  42.351  1.00  0.00    -0.266 OA
HETATM    4  H   UNL     1      36.060  51.015  44.919  1.00  0.00     0.192 HD
ENDROOT
BRANCH   2   5
HETATM    5  N   UNL     1      37.598  52.329  44.596  1.00  0.00    -0.183 NA
HETATM    6  C   UNL     1      37.592  53.313  45.442  1.00  0.00     0.153 C 
BRANCH   6   7
HETATM    7  C   UNL     1      38.852  54.020  45.795  1.00  0.00     0.027 A 
HETATM    8  C   UNL     1      39.897  53.296  46.400  1.00  0.00     0.078 A 
HETATM    9  C   UNL     1      41.087  53.921  46.745  1.00  0.00     0.038 A 
HETATM   10  C   UNL     1      41.256  55.276  46.485  1.00  0.00     0.015 A 
HETATM   11  C   UNL     1      40.240  56.027  45.880  1.00  0.00    -0.025 A 
HETATM   12  C   UNL     1      39.008  55.414  45.518  1.00  0.00    -0.012 A 
HETATM   13  C   UNL     1      40.456  57.391  45.630  1.00  0.00     0.012 A 
HETATM   14  C   UNL     1      38.037  56.250  44.903  1.00  0.00     0.013 A 
HETATM   15  C   UNL     1      38.270  57.607  44.662  1.00  0.00     0.001 A 
HETATM   16  C   UNL     1      39.480  58.177  45.025  1.00  0.00     0.001 A 
BRANCH   8  17
HETATM   17  O   UNL     1      39.838  51.959  46.696  1.00  0.00    -0.360 OA
HETATM   18  H   UNL     1      40.607  51.722  47.260  1.00  0.00     0.217 HD
ENDBRANCH   8  17
ENDBRANCH   6   7
ENDBRANCH   2   5
BRANCH   1  19
HETATM   19  C   UNL     1      34.398  51.606  42.868  1.00  0.00     0.036 A 
HETATM   20  C   UNL     1      33.325  51.667  43.754  1.00  0.00     0.034 A 
HETATM   21  C   UNL     1      32.076  51.199  43.345  1.00  0.00     0.091 A 
HETATM   22  N   UNL     1      31.892  50.698  42.101  1.00  0.00    -0.362 N 
HETATM   23  C   UNL     1      32.924  50.620  41.231  1.00  0.00     0.091 A 
HETATM   24  C   UNL     1      34.185  51.065  41.596  1.00  0.00     0.034 A 
BRANCH  22  25
HETATM   25  C   UNL     1      30.532  50.284  41.664  1.00  0.00     0.166 C 
BRANCH  25  26
HETATM   26  C   UNL     1      29.992  51.166  40.570  1.00  0.00    -0.040 A 
HETATM   27  C   UNL     1      29.669  50.607  39.323  1.00  0.00     0.009 A 
HETATM   28  C   UNL     1      29.119  51.397  38.311  1.00  0.00     0.001 A 
HETATM   29  C   UNL     1      28.880  52.749  38.534  1.00  0.00     0.000 A 
HETATM   30  C   UNL     1      29.187  53.316  39.769  1.00  0.00     0.001 A 
HETATM   31  C   UNL     1      29.734  52.529  40.785  1.00  0.00     0.009 A 
ENDBRANCH  25  26
ENDBRANCH  22  25
ENDBRANCH   1  19
TORSDOF 6
ENDMDL
