MODEL 1
REMARK VINA RESULT:      -8.1      0.000      0.000
REMARK  6 active torsions:
REMARK  status: ('A' for Active; 'I' for Inactive)
REMARK    1  A    between atoms: C_2  and  N_3 
REMARK    2  A    between atoms: C_2  and  C_21 
REMARK       I    between atoms: N_3  and  C_4 
REMARK       I    between atoms: C_4  and  N_5 
REMARK    3  A    between atoms: N_5  and  C_6 
REMARK    4  A    between atoms: C_6  and  C_7 
REMARK    5  A    between atoms: C_10  and  O_11 
REMARK    6  A    between atoms: O_11  and  C_12 
ROOT
HETATM    1  N   UNL     1      23.521  47.004  49.692  1.00  0.00    -0.332 N 
HETATM    2  C   UNL     1      23.974  45.720  49.735  1.00  0.00     0.317 C 
HETATM    3  N   UNL     1      24.502  45.413  50.960  1.00  0.00    -0.339 N 
HETATM    4  O   UNL     1      23.928  44.942  48.793  1.00  0.00    -0.247 OA
HETATM    5  H   UNL     1      23.325  47.484  50.559  1.00  0.00     0.165 HD
HETATM    6  H   UNL     1      24.866  46.194  51.483  1.00  0.00     0.164 HD
ENDROOT
BRANCH   3   7
HETATM    7  C   UNL     1      25.162  44.143  51.147  1.00  0.00     0.162 C 
BRANCH   7   8
HETATM    8  C   UNL     1      26.116  44.198  52.308  1.00  0.00    -0.040 A 
HETATM    9  C   UNL     1      26.309  45.392  53.016  1.00  0.00     0.011 A 
HETATM   10  C   UNL     1      27.206  45.450  54.091  1.00  0.00     0.037 A 
HETATM   11  C   UNL     1      27.930  44.319  54.463  1.00  0.00     0.069 A 
HETATM   12  C   UNL     1      27.753  43.134  53.746  1.00  0.00     0.037 A 
HETATM   13  C   UNL     1      26.856  43.070  52.677  1.00  0.00     0.011 A 
BRANCH  11  14
HETATM   14  O   UNL     1      28.831  44.228  55.485  1.00  0.00    -0.346 OA
BRANCH  14  15
HETATM   15  C   UNL     1      30.079  44.926  55.395  1.00  0.00     0.129 C 
HETATM   16  C   UNL     1      30.117  46.101  56.383  1.00  0.00     0.032 C 
HETATM   17  C   UNL     1      30.047  45.636  57.838  1.00  0.00     0.002 C 
HETATM   18  C   UNL     1      31.145  44.626  58.157  1.00  0.00     0.000 C 
HETATM   19  C   UNL     1      31.127  43.449  57.189  1.00  0.00     0.002 C 
HETATM   20  C   UNL     1      31.187  43.915  55.734  1.00  0.00     0.032 C 
ENDBRANCH  14  15
ENDBRANCH  11  14
ENDBRANCH   7   8
ENDBRANCH   3   7
BRANCH   1  21
HETATM   21  C   UNL     1      22.887  47.565  48.505  1.00  0.00     0.155 C 
HETATM   22  C   UNL     1      21.398  47.230  48.455  1.00  0.00     0.041 C 
BRANCH  21  23
HETATM   23  C   UNL     1      23.107  49.054  48.512  1.00  0.00     0.169 A 
HETATM   24  N   UNL     1      23.620  49.729  47.465  1.00  0.00    -0.156 NA
HETATM   25  N   UNL     1      23.618  50.989  47.932  1.00  0.00    -0.270 N 
HETATM   26  H   UNL     1      23.959  51.741  47.344  1.00  0.00     0.190 HD
HETATM   27  C   UNL     1      23.128  51.045  49.197  1.00  0.00     0.227 A 
HETATM   28  N   UNL     1      22.798  49.841  49.596  1.00  0.00    -0.223 NA
ENDBRANCH  21  23
ENDBRANCH   1  21
TORSDOF 6
ENDMDL
MODEL 2
REMARK VINA RESULT:      -7.9      4.034     11.103
REMARK  6 active torsions:
REMARK  status: ('A' for Active; 'I' for Inactive)
REMARK    1  A    between atoms: C_2  and  N_3 
REMARK    2  A    between atoms: C_2  and  C_21 
REMARK       I    between atoms: N_3  and  C_4 
REMARK       I    between atoms: C_4  and  N_5 
REMARK    3  A    between atoms: N_5  and  C_6 
REMARK    4  A    between atoms: C_6  and  C_7 
REMARK    5  A    between atoms: C_10  and  O_11 
REMARK    6  A    between atoms: O_11  and  C_12 
ROOT
HETATM    1  N   UNL     1      24.929  46.366  51.415  1.00  0.00    -0.332 N 
HETATM    2  C   UNL     1      24.715  47.346  50.493  1.00  0.00     0.317 C 
HETATM    3  N   UNL     1      23.477  47.239  49.921  1.00  0.00    -0.339 N 
HETATM    4  O   UNL     1      25.533  48.208  50.203  1.00  0.00    -0.247 OA
HETATM    5  H   UNL     1      24.135  45.881  51.808  1.00  0.00     0.165 HD
HETATM    6  H   UNL     1      23.085  46.311  49.909  1.00  0.00     0.164 HD
ENDROOT
BRANCH   3   7
HETATM    7  C   UNL     1      23.130  48.105  48.819  1.00  0.00     0.162 C 
BRANCH   7   8
HETATM    8  C   UNL     1      21.907  48.919  49.139  1.00  0.00    -0.040 A 
HETATM    9  C   UNL     1      22.027  50.235  49.603  1.00  0.00     0.011 A 
HETATM   10  C   UNL     1      20.889  50.992  49.914  1.00  0.00     0.037 A 
HETATM   11  C   UNL     1      19.618  50.437  49.775  1.00  0.00     0.069 A 
HETATM   12  C   UNL     1      19.498  49.119  49.330  1.00  0.00     0.037 A 
HETATM   13  C   UNL     1      20.629  48.362  49.015  1.00  0.00     0.011 A 
BRANCH  11  14
HETATM   14  O   UNL     1      18.427  51.053  50.035  1.00  0.00    -0.346 OA
BRANCH  14  15
HETATM   15  C   UNL     1      18.183  52.369  49.524  1.00  0.00     0.129 C 
HETATM   16  C   UNL     1      18.292  52.386  47.992  1.00  0.00     0.032 C 
HETATM   17  C   UNL     1      17.225  51.517  47.327  1.00  0.00     0.002 C 
HETATM   18  C   UNL     1      15.821  51.913  47.773  1.00  0.00     0.000 C 
HETATM   19  C   UNL     1      15.688  51.904  49.291  1.00  0.00     0.002 C 
HETATM   20  C   UNL     1      16.763  52.766  49.956  1.00  0.00     0.032 C 
ENDBRANCH  14  15
ENDBRANCH  11  14
ENDBRANCH   7   8
ENDBRANCH   3   7
BRANCH   1  21
HETATM   21  C   UNL     1      26.163  46.279  52.186  1.00  0.00     0.155 C 
HETATM   22  C   UNL     1      26.036  46.997  53.528  1.00  0.00     0.041 C 
BRANCH  21  23
HETATM   23  C   UNL     1      26.496  44.824  52.381  1.00  0.00     0.169 A 
HETATM   24  N   UNL     1      26.232  44.153  53.519  1.00  0.00    -0.156 NA
HETATM   25  N   UNL     1      26.692  42.927  53.220  1.00  0.00    -0.270 N 
HETATM   26  H   UNL     1      26.624  42.186  53.909  1.00  0.00     0.190 HD
HETATM   27  C   UNL     1      27.203  42.885  51.963  1.00  0.00     0.227 A 
HETATM   28  N   UNL     1      27.099  44.067  51.405  1.00  0.00    -0.223 NA
ENDBRANCH  21  23
ENDBRANCH   1  21
TORSDOF 6
ENDMDL
MODEL 3
REMARK VINA RESULT:      -7.8      2.687      4.117
REMARK  6 active torsions:
REMARK  status: ('A' for Active; 'I' for Inactive)
REMARK    1  A    between atoms: C_2  and  N_3 
REMARK    2  A    between atoms: C_2  and  C_21 
REMARK       I    between atoms: N_3  and  C_4 
REMARK       I    between atoms: C_4  and  N_5 
REMARK    3  A    between atoms: N_5  and  C_6 
REMARK    4  A    between atoms: C_6  and  C_7 
REMARK    5  A    between atoms: C_10  and  O_11 
REMARK    6  A    between atoms: O_11  and  C_12 
ROOT
HETATM    1  N   UNL     1      20.459  48.372  49.661  1.00  0.00    -0.332 N 
HETATM    2  C   UNL     1      21.551  48.105  48.891  1.00  0.00     0.317 C 
HETATM    3  N   UNL     1      22.631  47.754  49.654  1.00  0.00    -0.339 N 
HETATM    4  O   UNL     1      21.567  48.181  47.671  1.00  0.00    -0.247 OA
HETATM    5  H   UNL     1      20.427  48.019  50.607  1.00  0.00     0.165 HD
HETATM    6  H   UNL     1      22.636  48.122  50.592  1.00  0.00     0.164 HD
ENDROOT
BRANCH   3   7
HETATM    7  C   UNL     1      23.916  47.576  49.020  1.00  0.00     0.162 C 
BRANCH   7   8
HETATM    8  C   UNL     1      24.846  46.788  49.900  1.00  0.00    -0.040 A 
HETATM    9  C   UNL     1      25.224  47.278  51.157  1.00  0.00     0.011 A 
HETATM   10  C   UNL     1      26.100  46.552  51.975  1.00  0.00     0.037 A 
HETATM   11  C   UNL     1      26.618  45.333  51.541  1.00  0.00     0.069 A 
HETATM   12  C   UNL     1      26.256  44.852  50.281  1.00  0.00     0.037 A 
HETATM   13  C   UNL     1      25.380  45.570  49.464  1.00  0.00     0.011 A 
BRANCH  11  14
HETATM   14  O   UNL     1      27.473  44.519  52.228  1.00  0.00    -0.346 OA
BRANCH  14  15
HETATM   15  C   UNL     1      26.989  43.761  53.343  1.00  0.00     0.129 C 
HETATM   16  C   UNL     1      27.596  42.351  53.345  1.00  0.00     0.032 C 
HETATM   17  C   UNL     1      29.112  42.374  53.534  1.00  0.00     0.002 C 
HETATM   18  C   UNL     1      29.510  43.135  54.795  1.00  0.00     0.000 C 
HETATM   19  C   UNL     1      28.918  44.540  54.815  1.00  0.00     0.002 C 
HETATM   20  C   UNL     1      27.402  44.516  54.617  1.00  0.00     0.032 C 
ENDBRANCH  14  15
ENDBRANCH  11  14
ENDBRANCH   7   8
ENDBRANCH   3   7
BRANCH   1  21
HETATM   21  C   UNL     1      19.172  48.741  49.083  1.00  0.00     0.155 C 
HETATM   22  C   UNL     1      18.019  48.023  49.783  1.00  0.00     0.041 C 
BRANCH  21  23
HETATM   23  C   UNL     1      19.020  50.236  49.185  1.00  0.00     0.169 A 
HETATM   24  N   UNL     1      18.405  50.845  50.218  1.00  0.00    -0.156 NA
HETATM   25  N   UNL     1      18.521  52.138  49.872  1.00  0.00    -0.270 N 
HETATM   26  H   UNL     1      18.139  52.854  50.480  1.00  0.00     0.190 HD
HETATM   27  C   UNL     1      19.173  52.276  48.689  1.00  0.00     0.227 A 
HETATM   28  N   UNL     1      19.500  51.094  48.226  1.00  0.00    -0.223 NA
ENDBRANCH  21  23
ENDBRANCH   1  21
TORSDOF 6
ENDMDL
MODEL 4
REMARK VINA RESULT:      -7.8      3.421      5.749
REMARK  6 active torsions:
REMARK  status: ('A' for Active; 'I' for Inactive)
REMARK    1  A    between atoms: C_2  and  N_3 
REMARK    2  A    between atoms: C_2  and  C_21 
REMARK       I    between atoms: N_3  and  C_4 
REMARK       I    between atoms: C_4  and  N_5 
REMARK    3  A    between atoms: N_5  and  C_6 
REMARK    4  A    between atoms: C_6  and  C_7 
REMARK    5  A    between atoms: C_10  and  O_11 
REMARK    6  A    between atoms: O_11  and  C_12 
ROOT
HETATM    1  N   UNL     1      25.741  42.691  49.952  1.00  0.00    -0.332 N 
HETATM    2  C   UNL     1      25.072  43.493  50.826  1.00  0.00     0.317 C 
HETATM    3  N   UNL     1      25.651  44.730  50.921  1.00  0.00    -0.339 N 
HETATM    4  O   UNL     1      24.083  43.149  51.457  1.00  0.00    -0.247 OA
HETATM    5  H   UNL     1      26.351  43.113  49.267  1.00  0.00     0.165 HD
HETATM    6  H   UNL     1      26.637  44.762  50.713  1.00  0.00     0.164 HD
ENDROOT
BRANCH   3   7
HETATM    7  C   UNL     1      25.164  45.665  51.907  1.00  0.00     0.162 C 
BRANCH   7   8
HETATM    8  C   UNL     1      26.062  45.690  53.113  1.00  0.00    -0.040 A 
HETATM    9  C   UNL     1      26.620  46.894  53.562  1.00  0.00     0.011 A 
HETATM   10  C   UNL     1      27.467  46.919  54.678  1.00  0.00     0.037 A 
HETATM   11  C   UNL     1      27.776  45.739  55.351  1.00  0.00     0.069 A 
HETATM   12  C   UNL     1      27.236  44.535  54.893  1.00  0.00     0.037 A 
HETATM   13  C   UNL     1      26.388  44.506  53.784  1.00  0.00     0.011 A 
BRANCH  11  14
HETATM   14  O   UNL     1      28.579  45.612  56.449  1.00  0.00    -0.346 OA
BRANCH  14  15
HETATM   15  C   UNL     1      29.931  46.084  56.397  1.00  0.00     0.129 C 
HETATM   16  C   UNL     1      30.544  46.132  57.804  1.00  0.00     0.032 C 
HETATM   17  C   UNL     1      30.651  44.745  58.436  1.00  0.00     0.002 C 
HETATM   18  C   UNL     1      31.424  43.779  57.542  1.00  0.00     0.000 C 
HETATM   19  C   UNL     1      30.833  43.715  56.138  1.00  0.00     0.002 C 
HETATM   20  C   UNL     1      30.717  45.105  55.511  1.00  0.00     0.032 C 
ENDBRANCH  14  15
ENDBRANCH  11  14
ENDBRANCH   7   8
ENDBRANCH   3   7
BRANCH   1  21
HETATM   21  C   UNL     1      25.304  41.332  49.653  1.00  0.00     0.155 C 
HETATM   22  C   UNL     1      24.771  41.218  48.226  1.00  0.00     0.041 C 
BRANCH  21  23
HETATM   23  C   UNL     1      26.469  40.403  49.871  1.00  0.00     0.169 A 
HETATM   24  N   UNL     1      27.408  40.608  50.815  1.00  0.00    -0.156 NA
HETATM   25  N   UNL     1      28.209  39.545  50.630  1.00  0.00    -0.270 N 
HETATM   26  H   UNL     1      29.027  39.426  51.217  1.00  0.00     0.190 HD
HETATM   27  C   UNL     1      27.757  38.756  49.621  1.00  0.00     0.227 A 
HETATM   28  N   UNL     1      26.661  39.271  49.117  1.00  0.00    -0.223 NA
ENDBRANCH  21  23
ENDBRANCH   1  21
TORSDOF 6
ENDMDL
MODEL 5
REMARK VINA RESULT:      -7.8      3.363     10.161
REMARK  6 active torsions:
REMARK  status: ('A' for Active; 'I' for Inactive)
REMARK    1  A    between atoms: C_2  and  N_3 
REMARK    2  A    between atoms: C_2  and  C_21 
REMARK       I    between atoms: N_3  and  C_4 
REMARK       I    between atoms: C_4  and  N_5 
REMARK    3  A    between atoms: N_5  and  C_6 
REMARK    4  A    between atoms: C_6  and  C_7 
REMARK    5  A    between atoms: C_10  and  O_11 
REMARK    6  A    between atoms: O_11  and  C_12 
ROOT
HETATM    1  N   UNL     1      26.022  45.583  52.636  1.00  0.00    -0.332 N 
HETATM    2  C   UNL     1      26.027  46.819  52.064  1.00  0.00     0.317 C 
HETATM    3  N   UNL     1      26.069  46.743  50.698  1.00  0.00    -0.339 N 
HETATM    4  O   UNL     1      26.009  47.868  52.693  1.00  0.00    -0.247 OA
HETATM    5  H   UNL     1      25.749  44.786  52.079  1.00  0.00     0.165 HD
HETATM    6  H   UNL     1      26.495  45.909  50.325  1.00  0.00     0.164 HD
ENDROOT
BRANCH   3   7
HETATM    7  C   UNL     1      26.227  47.953  49.928  1.00  0.00     0.162 C 
BRANCH   7   8
HETATM    8  C   UNL     1      24.919  48.376  49.317  1.00  0.00    -0.040 A 
HETATM    9  C   UNL     1      24.808  49.600  48.646  1.00  0.00     0.011 A 
HETATM   10  C   UNL     1      23.588  50.003  48.087  1.00  0.00     0.037 A 
HETATM   11  C   UNL     1      22.461  49.191  48.203  1.00  0.00     0.069 A 
HETATM   12  C   UNL     1      22.566  47.979  48.888  1.00  0.00     0.037 A 
HETATM   13  C   UNL     1      23.781  47.572  49.443  1.00  0.00     0.011 A 
BRANCH  11  14
HETATM   14  O   UNL     1      21.214  49.451  47.708  1.00  0.00    -0.346 OA
BRANCH  14  15
HETATM   15  C   UNL     1      20.089  49.469  48.594  1.00  0.00     0.129 C 
HETATM   16  C   UNL     1      20.090  50.745  49.449  1.00  0.00     0.032 C 
HETATM   17  C   UNL     1      19.926  52.007  48.603  1.00  0.00     0.002 C 
HETATM   18  C   UNL     1      18.674  51.940  47.732  1.00  0.00     0.000 C 
HETATM   19  C   UNL     1      18.651  50.680  46.875  1.00  0.00     0.002 C 
HETATM   20  C   UNL     1      18.825  49.419  47.721  1.00  0.00     0.032 C 
ENDBRANCH  14  15
ENDBRANCH  11  14
ENDBRANCH   7   8
ENDBRANCH   3   7
BRANCH   1  21
HETATM   21  C   UNL     1      25.950  45.394  54.080  1.00  0.00     0.155 C 
HETATM   22  C   UNL     1      25.185  44.123  54.441  1.00  0.00     0.041 C 
BRANCH  21  23
HETATM   23  C   UNL     1      27.355  45.351  54.620  1.00  0.00     0.169 A 
HETATM   24  N   UNL     1      28.155  44.273  54.511  1.00  0.00    -0.156 NA
HETATM   25  N   UNL     1      29.271  44.705  55.119  1.00  0.00    -0.270 N 
HETATM   26  H   UNL     1      30.073  44.088  55.190  1.00  0.00     0.190 HD
HETATM   27  C   UNL     1      29.129  45.979  55.566  1.00  0.00     0.227 A 
HETATM   28  N   UNL     1      27.929  46.417  55.271  1.00  0.00    -0.223 NA
ENDBRANCH  21  23
ENDBRANCH   1  21
TORSDOF 6
ENDMDL
MODEL 6
REMARK VINA RESULT:      -7.8      7.962     11.882
REMARK  6 active torsions:
REMARK  status: ('A' for Active; 'I' for Inactive)
REMARK    1  A    between atoms: C_2  and  N_3 
REMARK    2  A    between atoms: C_2  and  C_21 
REMARK       I    between atoms: N_3  and  C_4 
REMARK       I    between atoms: C_4  and  N_5 
REMARK    3  A    between atoms: N_5  and  C_6 
REMARK    4  A    between atoms: C_6  and  C_7 
REMARK    5  A    between atoms: C_10  and  O_11 
REMARK    6  A    between atoms: O_11  and  C_12 
ROOT
HETATM    1  N   UNL     1      15.219  54.849  51.637  1.00  0.00    -0.332 N 
HETATM    2  C   UNL     1      15.180  54.126  50.484  1.00  0.00     0.317 C 
HETATM    3  N   UNL     1      15.907  52.971  50.587  1.00  0.00    -0.339 N 
HETATM    4  O   UNL     1      14.580  54.472  49.476  1.00  0.00    -0.247 OA
HETATM    5  H   UNL     1      15.477  54.386  52.498  1.00  0.00     0.165 HD
HETATM    6  H   UNL     1      16.663  52.995  51.253  1.00  0.00     0.164 HD
ENDROOT
BRANCH   3   7
HETATM    7  C   UNL     1      16.099  52.150  49.415  1.00  0.00     0.162 C 
BRANCH   7   8
HETATM    8  C   UNL     1      17.431  51.453  49.460  1.00  0.00    -0.040 A 
HETATM    9  C   UNL     1      18.597  52.162  49.776  1.00  0.00     0.011 A 
HETATM   10  C   UNL     1      19.842  51.518  49.806  1.00  0.00     0.037 A 
HETATM   11  C   UNL     1      19.936  50.160  49.509  1.00  0.00     0.069 A 
HETATM   12  C   UNL     1      18.777  49.456  49.177  1.00  0.00     0.037 A 
HETATM   13  C   UNL     1      17.534  50.093  49.150  1.00  0.00     0.011 A 
BRANCH  11  14
HETATM   14  O   UNL     1      21.074  49.404  49.503  1.00  0.00    -0.346 OA
BRANCH  14  15
HETATM   15  C   UNL     1      21.634  48.977  48.256  1.00  0.00     0.129 C 
HETATM   16  C   UNL     1      22.351  50.139  47.556  1.00  0.00     0.032 C 
HETATM   17  C   UNL     1      23.551  50.646  48.356  1.00  0.00     0.002 C 
HETATM   18  C   UNL     1      24.530  49.519  48.673  1.00  0.00     0.000 C 
HETATM   19  C   UNL     1      23.840  48.352  49.369  1.00  0.00     0.002 C 
HETATM   20  C   UNL     1      22.634  47.853  48.572  1.00  0.00     0.032 C 
ENDBRANCH  14  15
ENDBRANCH  11  14
ENDBRANCH   7   8
ENDBRANCH   3   7
BRANCH   1  21
HETATM   21  C   UNL     1      14.499  56.107  51.792  1.00  0.00     0.155 C 
HETATM   22  C   UNL     1      13.035  55.872  52.162  1.00  0.00     0.041 C 
BRANCH  21  23
HETATM   23  C   UNL     1      15.198  56.925  52.845  1.00  0.00     0.169 A 
HETATM   24  N   UNL     1      15.309  58.266  52.783  1.00  0.00    -0.156 NA
HETATM   25  N   UNL     1      15.986  58.530  53.913  1.00  0.00    -0.270 N 
HETATM   26  H   UNL     1      16.221  59.489  54.143  1.00  0.00     0.190 HD
HETATM   27  C   UNL     1      16.258  57.393  54.603  1.00  0.00     0.227 A 
HETATM   28  N   UNL     1      15.777  56.359  53.955  1.00  0.00    -0.223 NA
ENDBRANCH  21  23
ENDBRANCH   1  21
TORSDOF 6
ENDMDL
MODEL 7
REMARK VINA RESULT:      -7.6      2.088      3.335
REMARK  6 active torsions:
REMARK  status: ('A' for Active; 'I' for Inactive)
REMARK    1  A    between atoms: C_2  and  N_3 
REMARK    2  A    between atoms: C_2  and  C_21 
REMARK       I    between atoms: N_3  and  C_4 
REMARK       I    between atoms: C_4  and  N_5 
REMARK    3  A    between atoms: N_5  and  C_6 
REMARK    4  A    between atoms: C_6  and  C_7 
REMARK    5  A    between atoms: C_10  and  O_11 
REMARK    6  A    between atoms: O_11  and  C_12 
ROOT
HETATM    1  N   UNL     1      21.611  47.088  48.741  1.00  0.00    -0.332 N 
HETATM    2  C   UNL     1      21.937  45.799  48.445  1.00  0.00     0.317 C 
HETATM    3  N   UNL     1      21.986  45.020  49.569  1.00  0.00    -0.339 N 
HETATM    4  O   UNL     1      22.170  45.390  47.316  1.00  0.00    -0.247 OA
HETATM    5  H   UNL     1      21.159  47.290  49.621  1.00  0.00     0.165 HD
HETATM    6  H   UNL     1      22.196  45.510  50.425  1.00  0.00     0.164 HD
ENDROOT
BRANCH   3   7
HETATM    7  C   UNL     1      22.456  43.660  49.466  1.00  0.00     0.162 C 
BRANCH   7   8
HETATM    8  C   UNL     1      23.807  43.509  50.110  1.00  0.00    -0.040 A 
HETATM    9  C   UNL     1      24.572  42.354  49.900  1.00  0.00     0.011 A 
HETATM   10  C   UNL     1      25.826  42.204  50.509  1.00  0.00     0.037 A 
HETATM   11  C   UNL     1      26.324  43.202  51.344  1.00  0.00     0.069 A 
HETATM   12  C   UNL     1      25.555  44.346  51.568  1.00  0.00     0.037 A 
HETATM   13  C   UNL     1      24.307  44.501  50.961  1.00  0.00     0.011 A 
BRANCH  11  14
HETATM   14  O   UNL     1      27.523  43.195  51.997  1.00  0.00    -0.346 OA
BRANCH  14  15
HETATM   15  C   UNL     1      27.754  42.247  53.046  1.00  0.00     0.129 C 
HETATM   16  C   UNL     1      29.179  41.681  52.963  1.00  0.00     0.032 C 
HETATM   17  C   UNL     1      30.243  42.756  53.184  1.00  0.00     0.002 C 
HETATM   18  C   UNL     1      30.030  43.493  54.503  1.00  0.00     0.000 C 
HETATM   19  C   UNL     1      28.620  44.065  54.608  1.00  0.00     0.002 C 
HETATM   20  C   UNL     1      27.557  42.990  54.377  1.00  0.00     0.032 C 
ENDBRANCH  14  15
ENDBRANCH  11  14
ENDBRANCH   7   8
ENDBRANCH   3   7
BRANCH   1  21
HETATM   21  C   UNL     1      21.467  48.110  47.711  1.00  0.00     0.155 C 
HETATM   22  C   UNL     1      20.002  48.488  47.500  1.00  0.00     0.041 C 
BRANCH  21  23
HETATM   23  C   UNL     1      22.281  49.309  48.117  1.00  0.00     0.169 A 
HETATM   24  N   UNL     1      23.277  49.814  47.363  1.00  0.00    -0.156 NA
HETATM   25  N   UNL     1      23.686  50.847  48.118  1.00  0.00    -0.270 N 
HETATM   26  H   UNL     1      24.448  51.432  47.794  1.00  0.00     0.190 HD
HETATM   27  C   UNL     1      22.962  50.939  49.263  1.00  0.00     0.227 A 
HETATM   28  N   UNL     1      22.068  49.981  49.297  1.00  0.00    -0.223 NA
ENDBRANCH  21  23
ENDBRANCH   1  21
TORSDOF 6
ENDMDL
MODEL 8
REMARK VINA RESULT:      -7.6      3.444     10.225
REMARK  6 active torsions:
REMARK  status: ('A' for Active; 'I' for Inactive)
REMARK    1  A    between atoms: C_2  and  N_3 
REMARK    2  A    between atoms: C_2  and  C_21 
REMARK       I    between atoms: N_3  and  C_4 
REMARK       I    between atoms: C_4  and  N_5 
REMARK    3  A    between atoms: N_5  and  C_6 
REMARK    4  A    between atoms: C_6  and  C_7 
REMARK    5  A    between atoms: C_10  and  O_11 
REMARK    6  A    between atoms: O_11  and  C_12 
ROOT
HETATM    1  N   UNL     1      26.141  45.509  51.856  1.00  0.00    -0.332 N 
HETATM    2  C   UNL     1      26.129  46.805  51.440  1.00  0.00     0.317 C 
HETATM    3  N   UNL     1      25.829  46.905  50.108  1.00  0.00    -0.339 N 
HETATM    4  O   UNL     1      26.369  47.762  52.162  1.00  0.00    -0.247 OA
HETATM    5  H   UNL     1      25.663  44.811  51.303  1.00  0.00     0.165 HD
HETATM    6  H   UNL     1      26.065  46.099  49.551  1.00  0.00     0.164 HD
ENDROOT
BRANCH   3   7
HETATM    7  C   UNL     1      25.913  48.191  49.459  1.00  0.00     0.162 C 
BRANCH   7   8
HETATM    8  C   UNL     1      24.543  48.721  49.136  1.00  0.00    -0.040 A 
HETATM    9  C   UNL     1      23.424  47.878  49.175  1.00  0.00     0.011 A 
HETATM   10  C   UNL     1      22.148  48.365  48.862  1.00  0.00     0.037 A 
HETATM   11  C   UNL     1      21.977  49.698  48.496  1.00  0.00     0.069 A 
HETATM   12  C   UNL     1      23.093  50.536  48.439  1.00  0.00     0.037 A 
HETATM   13  C   UNL     1      24.366  50.055  48.753  1.00  0.00     0.011 A 
BRANCH  11  14
HETATM   14  O   UNL     1      20.799  50.310  48.170  1.00  0.00    -0.346 OA
BRANCH  14  15
HETATM   15  C   UNL     1      20.431  51.532  48.821  1.00  0.00     0.129 C 
HETATM   16  C   UNL     1      19.254  52.200  48.096  1.00  0.00     0.032 C 
HETATM   17  C   UNL     1      17.986  51.348  48.146  1.00  0.00     0.002 C 
HETATM   18  C   UNL     1      17.606  50.991  49.580  1.00  0.00     0.000 C 
HETATM   19  C   UNL     1      18.760  50.326  50.320  1.00  0.00     0.002 C 
HETATM   20  C   UNL     1      20.031  51.174  50.261  1.00  0.00     0.032 C 
ENDBRANCH  14  15
ENDBRANCH  11  14
ENDBRANCH   7   8
ENDBRANCH   3   7
BRANCH   1  21
HETATM   21  C   UNL     1      26.405  45.140  53.241  1.00  0.00     0.155 C 
HETATM   22  C   UNL     1      25.279  44.282  53.817  1.00  0.00     0.041 C 
BRANCH  21  23
HETATM   23  C   UNL     1      27.721  44.408  53.292  1.00  0.00     0.169 A 
HETATM   24  N   UNL     1      28.250  43.769  52.231  1.00  0.00    -0.156 NA
HETATM   25  N   UNL     1      29.393  43.291  52.750  1.00  0.00    -0.270 N 
HETATM   26  H   UNL     1      30.021  42.751  52.165  1.00  0.00     0.190 HD
HETATM   27  C   UNL     1      29.524  43.635  54.057  1.00  0.00     0.227 A 
HETATM   28  N   UNL     1      28.483  44.339  54.433  1.00  0.00    -0.223 NA
ENDBRANCH  21  23
ENDBRANCH   1  21
TORSDOF 6
ENDMDL
MODEL 9
REMARK VINA RESULT:      -7.6      2.939      4.382
REMARK  6 active torsions:
REMARK  status: ('A' for Active; 'I' for Inactive)
REMARK    1  A    between atoms: C_2  and  N_3 
REMARK    2  A    between atoms: C_2  and  C_21 
REMARK       I    between atoms: N_3  and  C_4 
REMARK       I    between atoms: C_4  and  N_5 
REMARK    3  A    between atoms: N_5  and  C_6 
REMARK    4  A    between atoms: C_6  and  C_7 
REMARK    5  A    between atoms: C_10  and  O_11 
REMARK    6  A    between atoms: O_11  and  C_12 
ROOT
HETATM    1  N   UNL     1      21.001  47.082  48.557  1.00  0.00    -0.332 N 
HETATM    2  C   UNL     1      22.242  47.641  48.547  1.00  0.00     0.317 C 
HETATM    3  N   UNL     1      22.988  47.234  49.621  1.00  0.00    -0.339 N 
HETATM    4  O   UNL     1      22.639  48.420  47.692  1.00  0.00    -0.247 OA
HETATM    5  H   UNL     1      20.842  46.250  49.108  1.00  0.00     0.165 HD
HETATM    6  H   UNL     1      22.460  46.964  50.436  1.00  0.00     0.164 HD
ENDROOT
BRANCH   3   7
HETATM    7  C   UNL     1      24.279  47.837  49.854  1.00  0.00     0.162 C 
BRANCH   7   8
HETATM    8  C   UNL     1      25.213  46.865  50.519  1.00  0.00    -0.040 A 
HETATM    9  C   UNL     1      25.338  46.836  51.914  1.00  0.00     0.011 A 
HETATM   10  C   UNL     1      26.217  45.940  52.537  1.00  0.00     0.037 A 
HETATM   11  C   UNL     1      26.991  45.071  51.771  1.00  0.00     0.069 A 
HETATM   12  C   UNL     1      26.882  45.111  50.380  1.00  0.00     0.037 A 
HETATM   13  C   UNL     1      26.004  45.999  49.755  1.00  0.00     0.011 A 
BRANCH  11  14
HETATM   14  O   UNL     1      27.882  44.146  52.238  1.00  0.00    -0.346 OA
BRANCH  14  15
HETATM   15  C   UNL     1      27.526  43.315  53.349  1.00  0.00     0.129 C 
HETATM   16  C   UNL     1      28.372  42.035  53.364  1.00  0.00     0.032 C 
HETATM   17  C   UNL     1      29.859  42.326  53.571  1.00  0.00     0.002 C 
HETATM   18  C   UNL     1      30.098  43.148  54.835  1.00  0.00     0.000 C 
HETATM   19  C   UNL     1      29.267  44.425  54.843  1.00  0.00     0.002 C 
HETATM   20  C   UNL     1      27.782  44.133  54.625  1.00  0.00     0.032 C 
ENDBRANCH  14  15
ENDBRANCH  11  14
ENDBRANCH   7   8
ENDBRANCH   3   7
BRANCH   1  21
HETATM   21  C   UNL     1      20.025  47.335  47.504  1.00  0.00     0.155 C 
HETATM   22  C   UNL     1      20.386  46.593  46.218  1.00  0.00     0.041 C 
BRANCH  21  23
HETATM   23  C   UNL     1      18.669  46.917  48.006  1.00  0.00     0.169 A 
HETATM   24  N   UNL     1      18.213  45.651  47.933  1.00  0.00    -0.156 NA
HETATM   25  N   UNL     1      16.998  45.772  48.494  1.00  0.00    -0.270 N 
HETATM   26  H   UNL     1      16.404  44.955  48.581  1.00  0.00     0.190 HD
HETATM   27  C   UNL     1      16.756  47.052  48.876  1.00  0.00     0.227 A 
HETATM   28  N   UNL     1      17.789  47.803  48.580  1.00  0.00    -0.223 NA
ENDBRANCH  21  23
ENDBRANCH   1  21
TORSDOF 6
ENDMDL
MODEL 10
REMARK VINA RESULT:      -7.5      6.085     12.607
REMARK  6 active torsions:
REMARK  status: ('A' for Active; 'I' for Inactive)
REMARK    1  A    between atoms: C_2  and  N_3 
REMARK    2  A    between atoms: C_2  and  C_21 
REMARK       I    between atoms: N_3  and  C_4 
REMARK       I    between atoms: C_4  and  N_5 
REMARK    3  A    between atoms: N_5  and  C_6 
REMARK    4  A    between atoms: C_6  and  C_7 
REMARK    5  A    between atoms: C_10  and  O_11 
REMARK    6  A    between atoms: O_11  and  C_12 
ROOT
HETATM    1  N   UNL     1      22.823  49.075  49.544  1.00  0.00    -0.332 N 
HETATM    2  C   UNL     1      21.586  48.655  49.159  1.00  0.00     0.317 C 
HETATM    3  N   UNL     1      20.598  49.283  49.867  1.00  0.00    -0.339 N 
HETATM    4  O   UNL     1      21.383  47.812  48.297  1.00  0.00    -0.247 OA
HETATM    5  H   UNL     1      22.913  49.953  50.034  1.00  0.00     0.165 HD
HETATM    6  H   UNL     1      20.862  49.606  50.785  1.00  0.00     0.164 HD
ENDROOT
BRANCH   3   7
HETATM    7  C   UNL     1      19.228  48.860  49.697  1.00  0.00     0.162 C 
BRANCH   7   8
HETATM    8  C   UNL     1      18.322  50.042  49.490  1.00  0.00    -0.040 A 
HETATM    9  C   UNL     1      17.125  49.907  48.774  1.00  0.00     0.011 A 
HETATM   10  C   UNL     1      16.285  51.009  48.569  1.00  0.00     0.037 A 
HETATM   11  C   UNL     1      16.637  52.262  49.067  1.00  0.00     0.069 A 
HETATM   12  C   UNL     1      17.838  52.402  49.765  1.00  0.00     0.037 A 
HETATM   13  C   UNL     1      18.677  51.305  49.975  1.00  0.00     0.011 A 
BRANCH  11  14
HETATM   14  O   UNL     1      15.918  53.418  48.948  1.00  0.00    -0.346 OA
BRANCH  14  15
HETATM   15  C   UNL     1      14.504  53.400  49.175  1.00  0.00     0.129 C 
HETATM   16  C   UNL     1      14.195  53.179  50.662  1.00  0.00     0.032 C 
HETATM   17  C   UNL     1      14.703  54.325  51.536  1.00  0.00     0.002 C 
HETATM   18  C   UNL     1      14.162  55.672  51.066  1.00  0.00     0.000 C 
HETATM   19  C   UNL     1      14.457  55.914  49.590  1.00  0.00     0.002 C 
HETATM   20  C   UNL     1      13.956  54.762  48.718  1.00  0.00     0.032 C 
ENDBRANCH  14  15
ENDBRANCH  11  14
ENDBRANCH   7   8
ENDBRANCH   3   7
BRANCH   1  21
HETATM   21  C   UNL     1      24.043  48.576  48.919  1.00  0.00     0.155 C 
HETATM   22  C   UNL     1      25.015  49.712  48.605  1.00  0.00     0.041 C 
BRANCH  21  23
HETATM   23  C   UNL     1      24.670  47.569  49.846  1.00  0.00     0.169 A 
HETATM   24  N   UNL     1      25.696  47.862  50.668  1.00  0.00    -0.156 NA
HETATM   25  N   UNL     1      25.897  46.682  51.277  1.00  0.00    -0.270 N 
HETATM   26  H   UNL     1      26.629  46.596  51.973  1.00  0.00     0.190 HD
HETATM   27  C   UNL     1      25.026  45.741  50.829  1.00  0.00     0.227 A 
HETATM   28  N   UNL     1      24.239  46.266  49.921  1.00  0.00    -0.223 NA
ENDBRANCH  21  23
ENDBRANCH   1  21
TORSDOF 6
ENDMDL
