MODEL 1
REMARK VINA RESULT:      -8.3      0.000      0.000
REMARK  3 active torsions:
REMARK  status: ('A' for Active; 'I' for Inactive)
REMARK    1  A    between atoms: C_4  and  N_5 
REMARK       I    between atoms: N_5  and  C_6 
REMARK    2  A    between atoms: C_6  and  C_7 
REMARK    3  A    between atoms: C_7  and  C_8 
ROOT
HETATM    1  C   UNL     1      26.973  44.302  54.371  1.00  0.00     0.286 C 
HETATM    2  N   UNL     1      27.977  44.512  53.243  1.00  0.00    -0.056 N 
HETATM    3  H   UNL     1      27.770  45.465  52.870  1.00  0.00     0.278 HD
HETATM    4  H   UNL     1      28.938  44.556  53.600  1.00  0.00     0.278 HD
HETATM    5  C   UNL     1      27.860  43.545  52.097  1.00  0.00     0.209 C 
HETATM    6  C   UNL     1      26.396  43.516  51.591  1.00  0.00     0.115 C 
HETATM    7  N   UNL     1      25.421  43.367  52.669  1.00  0.00    -0.353 N 
HETATM    8  C   UNL     1      25.542  44.016  53.875  1.00  0.00     0.249 C 
HETATM    9  O   UNL     1      24.545  44.238  54.554  1.00  0.00    -0.271 OA
HETATM   10  C   UNL     1      28.387  42.172  52.519  1.00  0.00     0.035 C 
HETATM   11  C   UNL     1      28.193  41.145  51.406  1.00  0.00     0.002 C 
HETATM   12  C   UNL     1      26.731  41.067  50.973  1.00  0.00     0.002 C 
HETATM   13  C   UNL     1      26.202  42.429  50.527  1.00  0.00     0.027 C 
HETATM   14  H   UNL     1      24.445  43.243  52.405  1.00  0.00     0.163 HD
ENDROOT
BRANCH   1  15
HETATM   15  C   UNL     1      26.998  45.463  55.378  1.00  0.00     0.146 C 
BRANCH  15  16
HETATM   16  C   UNL     1      28.022  46.500  55.004  1.00  0.00     0.224 C 
HETATM   17  N   UNL     1      29.311  46.450  55.424  1.00  0.00    -0.327 N 
HETATM   18  H   UNL     1      29.844  47.238  55.065  1.00  0.00     0.169 HD
HETATM   19  O   UNL     1      27.692  47.396  54.213  1.00  0.00    -0.273 OA
BRANCH  17  20
HETATM   20  C   UNL     1      30.059  45.562  56.225  1.00  0.00     0.034 A 
HETATM   21  C   UNL     1      30.382  45.736  57.570  1.00  0.00     0.029 A 
HETATM   22  C   UNL     1      31.141  44.777  58.253  1.00  0.00     0.002 A 
HETATM   23  C   UNL     1      31.576  43.626  57.605  1.00  0.00     0.000 A 
HETATM   24  C   UNL     1      31.252  43.430  56.269  1.00  0.00     0.002 A 
HETATM   25  C   UNL     1      30.502  44.391  55.585  1.00  0.00     0.029 A 
ENDBRANCH  17  20
ENDBRANCH  15  16
ENDBRANCH   1  15
TORSDOF 3
ENDMDL
MODEL 2
REMARK VINA RESULT:      -8.1      1.881      2.803
REMARK  3 active torsions:
REMARK  status: ('A' for Active; 'I' for Inactive)
REMARK    1  A    between atoms: C_4  and  N_5 
REMARK       I    between atoms: N_5  and  C_6 
REMARK    2  A    between atoms: C_6  and  C_7 
REMARK    3  A    between atoms: C_7  and  C_8 
ROOT
HETATM    1  C   UNL     1      27.380  42.751  52.723  1.00  0.00     0.286 C 
HETATM    2  N   UNL     1      26.049  42.839  51.985  1.00  0.00    -0.056 N 
HETATM    3  H   UNL     1      25.344  42.454  52.651  1.00  0.00     0.278 HD
HETATM    4  H   UNL     1      25.776  43.815  51.822  1.00  0.00     0.278 HD
HETATM    5  C   UNL     1      25.966  42.027  50.722  1.00  0.00     0.209 C 
HETATM    6  C   UNL     1      26.384  40.565  51.017  1.00  0.00     0.115 C 
HETATM    7  N   UNL     1      27.633  40.468  51.770  1.00  0.00    -0.353 N 
HETATM    8  C   UNL     1      27.943  41.318  52.806  1.00  0.00     0.249 C 
HETATM    9  O   UNL     1      28.727  40.959  53.678  1.00  0.00    -0.271 OA
HETATM   10  C   UNL     1      26.798  42.689  49.621  1.00  0.00     0.035 C 
HETATM   11  C   UNL     1      26.809  41.837  48.355  1.00  0.00     0.002 C 
HETATM   12  C   UNL     1      27.301  40.421  48.644  1.00  0.00     0.002 C 
HETATM   13  C   UNL     1      26.461  39.742  49.725  1.00  0.00     0.027 C 
HETATM   14  H   UNL     1      28.020  39.538  51.918  1.00  0.00     0.163 HD
ENDROOT
BRANCH   1  15
HETATM   15  C   UNL     1      27.305  43.406  54.112  1.00  0.00     0.146 C 
BRANCH  15  16
HETATM   16  C   UNL     1      27.648  44.870  54.055  1.00  0.00     0.224 C 
HETATM   17  N   UNL     1      28.661  45.419  54.771  1.00  0.00    -0.327 N 
HETATM   18  H   UNL     1      28.734  46.418  54.595  1.00  0.00     0.169 HD
HETATM   19  O   UNL     1      27.029  45.590  53.257  1.00  0.00    -0.273 OA
BRANCH  17  20
HETATM   20  C   UNL     1      29.618  44.919  55.679  1.00  0.00     0.034 A 
HETATM   21  C   UNL     1      30.465  43.832  55.469  1.00  0.00     0.029 A 
HETATM   22  C   UNL     1      31.372  43.430  56.459  1.00  0.00     0.002 A 
HETATM   23  C   UNL     1      31.453  44.119  57.665  1.00  0.00     0.000 A 
HETATM   24  C   UNL     1      30.627  45.213  57.884  1.00  0.00     0.002 A 
HETATM   25  C   UNL     1      29.716  45.607  56.900  1.00  0.00     0.029 A 
ENDBRANCH  17  20
ENDBRANCH  15  16
ENDBRANCH   1  15
TORSDOF 3
ENDMDL
MODEL 3
REMARK VINA RESULT:      -8.0      1.633      2.232
REMARK  3 active torsions:
REMARK  status: ('A' for Active; 'I' for Inactive)
REMARK    1  A    between atoms: C_4  and  N_5 
REMARK       I    between atoms: N_5  and  C_6 
REMARK    2  A    between atoms: C_6  and  C_7 
REMARK    3  A    between atoms: C_7  and  C_8 
ROOT
HETATM    1  C   UNL     1      26.747  44.901  53.468  1.00  0.00     0.286 C 
HETATM    2  N   UNL     1      25.404  45.483  53.040  1.00  0.00    -0.056 N 
HETATM    3  H   UNL     1      24.730  45.180  53.778  1.00  0.00     0.278 HD
HETATM    4  H   UNL     1      25.413  46.509  53.074  1.00  0.00     0.278 HD
HETATM    5  C   UNL     1      24.884  44.981  51.721  1.00  0.00     0.209 C 
HETATM    6  C   UNL     1      24.887  43.432  51.718  1.00  0.00     0.115 C 
HETATM    7  N   UNL     1      26.152  42.861  52.177  1.00  0.00    -0.353 N 
HETATM    8  C   UNL     1      26.862  43.382  53.233  1.00  0.00     0.249 C 
HETATM    9  O   UNL     1      27.630  42.666  53.866  1.00  0.00    -0.271 OA
HETATM   10  C   UNL     1      25.691  45.595  50.576  1.00  0.00     0.035 C 
HETATM   11  C   UNL     1      25.246  45.030  49.229  1.00  0.00     0.002 C 
HETATM   12  C   UNL     1      25.332  43.506  49.211  1.00  0.00     0.002 C 
HETATM   13  C   UNL     1      24.509  42.883  50.338  1.00  0.00     0.027 C 
HETATM   14  H   UNL     1      26.262  41.851  52.111  1.00  0.00     0.163 HD
ENDROOT
BRANCH   1  15
HETATM   15  C   UNL     1      27.091  45.273  54.919  1.00  0.00     0.146 C 
BRANCH  15  16
HETATM   16  C   UNL     1      27.990  46.478  54.986  1.00  0.00     0.224 C 
HETATM   17  N   UNL     1      29.215  46.455  55.569  1.00  0.00    -0.327 N 
HETATM   18  H   UNL     1      29.665  47.365  55.510  1.00  0.00     0.169 HD
HETATM   19  O   UNL     1      27.628  47.516  54.411  1.00  0.00    -0.273 OA
BRANCH  17  20
HETATM   20  C   UNL     1      29.986  45.468  56.217  1.00  0.00     0.034 A 
HETATM   21  C   UNL     1      30.433  45.506  57.537  1.00  0.00     0.029 A 
HETATM   22  C   UNL     1      31.201  44.458  58.062  1.00  0.00     0.002 A 
HETATM   23  C   UNL     1      31.520  43.353  57.279  1.00  0.00     0.000 A 
HETATM   24  C   UNL     1      31.070  43.293  55.967  1.00  0.00     0.002 A 
HETATM   25  C   UNL     1      30.312  44.343  55.441  1.00  0.00     0.029 A 
ENDBRANCH  17  20
ENDBRANCH  15  16
ENDBRANCH   1  15
TORSDOF 3
ENDMDL
MODEL 4
REMARK VINA RESULT:      -7.8      2.500      3.466
REMARK  3 active torsions:
REMARK  status: ('A' for Active; 'I' for Inactive)
REMARK    1  A    between atoms: C_4  and  N_5 
REMARK       I    between atoms: N_5  and  C_6 
REMARK    2  A    between atoms: C_6  and  C_7 
REMARK    3  A    between atoms: C_7  and  C_8 
ROOT
HETATM    1  C   UNL     1      27.556  43.607  53.123  1.00  0.00     0.286 C 
HETATM    2  N   UNL     1      26.484  44.420  53.839  1.00  0.00    -0.056 N 
HETATM    3  H   UNL     1      25.956  43.727  54.413  1.00  0.00     0.278 HD
HETATM    4  H   UNL     1      26.899  45.078  54.509  1.00  0.00     0.278 HD
HETATM    5  C   UNL     1      25.494  45.105  52.937  1.00  0.00     0.209 C 
HETATM    6  C   UNL     1      24.894  44.074  51.949  1.00  0.00     0.115 C 
HETATM    7  N   UNL     1      25.910  43.252  51.294  1.00  0.00    -0.353 N 
HETATM    8  C   UNL     1      27.008  42.758  51.958  1.00  0.00     0.249 C 
HETATM    9  O   UNL     1      27.571  41.750  51.546  1.00  0.00    -0.271 OA
HETATM   10  C   UNL     1      26.158  46.298  52.246  1.00  0.00     0.035 C 
HETATM   11  C   UNL     1      25.204  46.955  51.252  1.00  0.00     0.002 C 
HETATM   12  C   UNL     1      24.684  45.945  50.233  1.00  0.00     0.002 C 
HETATM   13  C   UNL     1      23.997  44.761  50.913  1.00  0.00     0.027 C 
HETATM   14  H   UNL     1      25.598  42.618  50.560  1.00  0.00     0.163 HD
ENDROOT
BRANCH   1  15
HETATM   15  C   UNL     1      28.372  42.752  54.105  1.00  0.00     0.146 C 
BRANCH  15  16
HETATM   16  C   UNL     1      29.852  42.895  53.870  1.00  0.00     0.224 C 
HETATM   17  N   UNL     1      30.666  43.600  54.695  1.00  0.00    -0.327 N 
HETATM   18  H   UNL     1      31.628  43.577  54.367  1.00  0.00     0.169 HD
HETATM   19  O   UNL     1      30.361  42.275  52.924  1.00  0.00    -0.273 OA
BRANCH  17  20
HETATM   20  C   UNL     1      30.477  44.335  55.884  1.00  0.00     0.034 A 
HETATM   21  C   UNL     1      29.587  45.392  56.067  1.00  0.00     0.029 A 
HETATM   22  C   UNL     1      29.499  46.046  57.303  1.00  0.00     0.002 A 
HETATM   23  C   UNL     1      30.290  45.644  58.374  1.00  0.00     0.000 A 
HETATM   24  C   UNL     1      31.172  44.584  58.212  1.00  0.00     0.002 A 
HETATM   25  C   UNL     1      31.266  43.937  56.977  1.00  0.00     0.029 A 
ENDBRANCH  17  20
ENDBRANCH  15  16
ENDBRANCH   1  15
TORSDOF 3
ENDMDL
MODEL 5
REMARK VINA RESULT:      -7.7      7.493      9.295
REMARK  3 active torsions:
REMARK  status: ('A' for Active; 'I' for Inactive)
REMARK    1  A    between atoms: C_4  and  N_5 
REMARK       I    between atoms: N_5  and  C_6 
REMARK    2  A    between atoms: C_6  and  C_7 
REMARK    3  A    between atoms: C_7  and  C_8 
ROOT
HETATM    1  C   UNL     1      21.942  48.790  48.965  1.00  0.00     0.286 C 
HETATM    2  N   UNL     1      21.933  49.986  49.911  1.00  0.00    -0.056 N 
HETATM    3  H   UNL     1      22.044  49.578  50.865  1.00  0.00     0.278 HD
HETATM    4  H   UNL     1      22.755  50.584  49.766  1.00  0.00     0.278 HD
HETATM    5  C   UNL     1      20.662  50.790  49.910  1.00  0.00     0.209 C 
HETATM    6  C   UNL     1      19.453  49.848  50.134  1.00  0.00     0.115 C 
HETATM    7  N   UNL     1      19.477  48.670  49.269  1.00  0.00    -0.353 N 
HETATM    8  C   UNL     1      20.632  47.978  48.988  1.00  0.00     0.249 C 
HETATM    9  O   UNL     1      20.574  46.797  48.664  1.00  0.00    -0.271 OA
HETATM   10  C   UNL     1      20.566  51.610  48.622  1.00  0.00     0.035 C 
HETATM   11  C   UNL     1      19.240  52.364  48.550  1.00  0.00     0.002 C 
HETATM   12  C   UNL     1      18.054  51.413  48.690  1.00  0.00     0.002 C 
HETATM   13  C   UNL     1      18.129  50.606  49.986  1.00  0.00     0.027 C 
HETATM   14  H   UNL     1      18.666  48.055  49.292  1.00  0.00     0.163 HD
ENDROOT
BRANCH   1  15
HETATM   15  C   UNL     1      23.165  47.890  49.198  1.00  0.00     0.146 C 
BRANCH  15  16
HETATM   16  C   UNL     1      24.452  48.663  49.092  1.00  0.00     0.224 C 
HETATM   17  N   UNL     1      25.630  48.209  49.590  1.00  0.00    -0.327 N 
HETATM   18  H   UNL     1      26.380  48.873  49.418  1.00  0.00     0.169 HD
HETATM   19  O   UNL     1      24.451  49.725  48.451  1.00  0.00    -0.273 OA
BRANCH  17  20
HETATM   20  C   UNL     1      26.034  47.043  50.272  1.00  0.00     0.034 A 
HETATM   21  C   UNL     1      26.638  45.922  49.703  1.00  0.00     0.029 A 
HETATM   22  C   UNL     1      26.987  44.819  50.494  1.00  0.00     0.002 A 
HETATM   23  C   UNL     1      26.749  44.828  51.864  1.00  0.00     0.000 A 
HETATM   24  C   UNL     1      26.161  45.941  52.449  1.00  0.00     0.002 A 
HETATM   25  C   UNL     1      25.805  47.038  51.658  1.00  0.00     0.029 A 
ENDBRANCH  17  20
ENDBRANCH  15  16
ENDBRANCH   1  15
TORSDOF 3
ENDMDL
MODEL 6
REMARK VINA RESULT:      -7.5      2.972      4.375
REMARK  3 active torsions:
REMARK  status: ('A' for Active; 'I' for Inactive)
REMARK    1  A    between atoms: C_4  and  N_5 
REMARK       I    between atoms: N_5  and  C_6 
REMARK    2  A    between atoms: C_6  and  C_7 
REMARK    3  A    between atoms: C_7  and  C_8 
ROOT
HETATM    1  C   UNL     1      27.288  44.393  50.839  1.00  0.00     0.286 C 
HETATM    2  N   UNL     1      26.278  44.876  51.875  1.00  0.00    -0.056 N 
HETATM    3  H   UNL     1      25.963  44.013  52.369  1.00  0.00     0.278 HD
HETATM    4  H   UNL     1      26.727  45.459  52.591  1.00  0.00     0.278 HD
HETATM    5  C   UNL     1      25.055  45.543  51.309  1.00  0.00     0.209 C 
HETATM    6  C   UNL     1      24.413  44.626  50.238  1.00  0.00     0.115 C 
HETATM    7  N   UNL     1      25.380  44.114  49.270  1.00  0.00    -0.353 N 
HETATM    8  C   UNL     1      26.639  43.693  49.628  1.00  0.00     0.249 C 
HETATM    9  O   UNL     1      27.236  42.882  48.929  1.00  0.00    -0.271 OA
HETATM   10  C   UNL     1      25.416  46.934  50.784  1.00  0.00     0.035 C 
HETATM   11  C   UNL     1      24.214  47.597  50.118  1.00  0.00     0.002 C 
HETATM   12  C   UNL     1      23.641  46.719  49.009  1.00  0.00     0.002 C 
HETATM   13  C   UNL     1      23.254  45.335  49.529  1.00  0.00     0.027 C 
HETATM   14  H   UNL     1      25.017  43.582  48.481  1.00  0.00     0.163 HD
ENDROOT
BRANCH   1  15
HETATM   15  C   UNL     1      28.380  43.517  51.475  1.00  0.00     0.146 C 
BRANCH  15  16
HETATM   16  C   UNL     1      27.814  42.596  52.522  1.00  0.00     0.224 C 
HETATM   17  N   UNL     1      28.057  42.746  53.848  1.00  0.00    -0.327 N 
HETATM   18  H   UNL     1      27.586  42.027  54.390  1.00  0.00     0.169 HD
HETATM   19  O   UNL     1      27.026  41.708  52.161  1.00  0.00    -0.273 OA
BRANCH  17  20
HETATM   20  C   UNL     1      28.797  43.664  54.622  1.00  0.00     0.034 A 
HETATM   21  C   UNL     1      28.399  44.952  54.977  1.00  0.00     0.029 A 
HETATM   22  C   UNL     1      29.235  45.771  55.750  1.00  0.00     0.002 A 
HETATM   23  C   UNL     1      30.471  45.307  56.188  1.00  0.00     0.000 A 
HETATM   24  C   UNL     1      30.876  44.021  55.855  1.00  0.00     0.002 A 
HETATM   25  C   UNL     1      30.046  43.209  55.077  1.00  0.00     0.029 A 
ENDBRANCH  17  20
ENDBRANCH  15  16
ENDBRANCH   1  15
TORSDOF 3
ENDMDL
MODEL 7
REMARK VINA RESULT:      -7.5     14.015     15.870
REMARK  3 active torsions:
REMARK  status: ('A' for Active; 'I' for Inactive)
REMARK    1  A    between atoms: C_4  and  N_5 
REMARK       I    between atoms: N_5  and  C_6 
REMARK    2  A    between atoms: C_6  and  C_7 
REMARK    3  A    between atoms: C_7  and  C_8 
ROOT
HETATM    1  C   UNL     1      31.566  48.626  40.700  1.00  0.00     0.286 C 
HETATM    2  N   UNL     1      31.602  50.086  40.260  1.00  0.00    -0.056 N 
HETATM    3  H   UNL     1      32.185  50.094  39.395  1.00  0.00     0.278 HD
HETATM    4  H   UNL     1      30.672  50.412  39.973  1.00  0.00     0.278 HD
HETATM    5  C   UNL     1      32.238  51.031  41.242  1.00  0.00     0.209 C 
HETATM    6  C   UNL     1      33.636  50.499  41.643  1.00  0.00     0.115 C 
HETATM    7  N   UNL     1      33.624  49.086  42.017  1.00  0.00    -0.353 N 
HETATM    8  C   UNL     1      32.883  48.145  41.342  1.00  0.00     0.249 C 
HETATM    9  O   UNL     1      33.220  46.967  41.367  1.00  0.00    -0.271 OA
HETATM   10  C   UNL     1      31.303  51.251  42.434  1.00  0.00     0.035 C 
HETATM   11  C   UNL     1      31.963  52.132  43.491  1.00  0.00     0.002 C 
HETATM   12  C   UNL     1      33.302  51.553  43.938  1.00  0.00     0.002 C 
HETATM   13  C   UNL     1      34.252  51.353  42.758  1.00  0.00     0.027 C 
HETATM   14  H   UNL     1      34.488  48.691  42.384  1.00  0.00     0.163 HD
ENDROOT
BRANCH   1  15
HETATM   15  C   UNL     1      31.127  47.698  39.556  1.00  0.00     0.146 C 
BRANCH  15  16
HETATM   16  C   UNL     1      29.782  47.080  39.827  1.00  0.00     0.224 C 
HETATM   17  N   UNL     1      28.652  47.813  39.994  1.00  0.00    -0.327 N 
HETATM   18  H   UNL     1      27.849  47.213  40.166  1.00  0.00     0.169 HD
HETATM   19  O   UNL     1      29.689  45.843  39.818  1.00  0.00    -0.273 OA
BRANCH  17  20
HETATM   20  C   UNL     1      28.353  49.191  39.975  1.00  0.00     0.034 A 
HETATM   21  C   UNL     1      28.295  50.006  38.846  1.00  0.00     0.029 A 
HETATM   22  C   UNL     1      27.991  51.369  38.963  1.00  0.00     0.002 A 
HETATM   23  C   UNL     1      27.726  51.931  40.208  1.00  0.00     0.000 A 
HETATM   24  C   UNL     1      27.766  51.129  41.341  1.00  0.00     0.002 A 
HETATM   25  C   UNL     1      28.078  49.771  41.225  1.00  0.00     0.029 A 
ENDBRANCH  17  20
ENDBRANCH  15  16
ENDBRANCH   1  15
TORSDOF 3
ENDMDL
MODEL 8
REMARK VINA RESULT:      -7.5      5.150      7.976
REMARK  3 active torsions:
REMARK  status: ('A' for Active; 'I' for Inactive)
REMARK    1  A    between atoms: C_4  and  N_5 
REMARK       I    between atoms: N_5  and  C_6 
REMARK    2  A    between atoms: C_6  and  C_7 
REMARK    3  A    between atoms: C_7  and  C_8 
ROOT
HETATM    1  C   UNL     1      25.858  46.344  51.444  1.00  0.00     0.286 C 
HETATM    2  N   UNL     1      25.695  44.857  51.147  1.00  0.00    -0.056 N 
HETATM    3  H   UNL     1      24.674  44.671  51.249  1.00  0.00     0.278 HD
HETATM    4  H   UNL     1      25.921  44.645  50.168  1.00  0.00     0.278 HD
HETATM    5  C   UNL     1      26.418  43.936  52.090  1.00  0.00     0.209 C 
HETATM    6  C   UNL     1      26.046  44.292  53.551  1.00  0.00     0.115 C 
HETATM    7  N   UNL     1      26.148  45.723  53.834  1.00  0.00    -0.353 N 
HETATM    8  C   UNL     1      25.741  46.687  52.942  1.00  0.00     0.249 C 
HETATM    9  O   UNL     1      25.417  47.798  53.348  1.00  0.00    -0.271 OA
HETATM   10  C   UNL     1      27.923  43.985  51.815  1.00  0.00     0.035 C 
HETATM   11  C   UNL     1      28.691  43.131  52.820  1.00  0.00     0.002 C 
HETATM   12  C   UNL     1      28.378  43.547  54.255  1.00  0.00     0.002 C 
HETATM   13  C   UNL     1      26.879  43.478  54.547  1.00  0.00     0.027 C 
HETATM   14  H   UNL     1      26.011  46.020  54.798  1.00  0.00     0.163 HD
ENDROOT
BRANCH   1  15
HETATM   15  C   UNL     1      24.906  47.201  50.595  1.00  0.00     0.146 C 
BRANCH  15  16
HETATM   16  C   UNL     1      25.660  48.147  49.700  1.00  0.00     0.224 C 
HETATM   17  N   UNL     1      25.044  49.035  48.879  1.00  0.00    -0.327 N 
HETATM   18  H   UNL     1      25.724  49.584  48.358  1.00  0.00     0.169 HD
HETATM   19  O   UNL     1      26.897  48.171  49.776  1.00  0.00    -0.273 OA
BRANCH  17  20
HETATM   20  C   UNL     1      23.701  49.361  48.600  1.00  0.00     0.034 A 
HETATM   21  C   UNL     1      22.724  48.491  48.120  1.00  0.00     0.029 A 
HETATM   22  C   UNL     1      21.420  48.944  47.877  1.00  0.00     0.002 A 
HETATM   23  C   UNL     1      21.074  50.268  48.123  1.00  0.00     0.000 A 
HETATM   24  C   UNL     1      22.032  51.145  48.614  1.00  0.00     0.002 A 
HETATM   25  C   UNL     1      23.334  50.695  48.848  1.00  0.00     0.029 A 
ENDBRANCH  17  20
ENDBRANCH  15  16
ENDBRANCH   1  15
TORSDOF 3
ENDMDL
MODEL 9
REMARK VINA RESULT:      -7.5      3.331      6.400
REMARK  3 active torsions:
REMARK  status: ('A' for Active; 'I' for Inactive)
REMARK    1  A    between atoms: C_4  and  N_5 
REMARK       I    between atoms: N_5  and  C_6 
REMARK    2  A    between atoms: C_6  and  C_7 
REMARK    3  A    between atoms: C_7  and  C_8 
ROOT
HETATM    1  C   UNL     1      26.410  44.957  52.757  1.00  0.00     0.286 C 
HETATM    2  N   UNL     1      26.327  43.473  53.097  1.00  0.00    -0.056 N 
HETATM    3  H   UNL     1      25.656  43.414  53.894  1.00  0.00     0.278 HD
HETATM    4  H   UNL     1      25.899  42.937  52.333  1.00  0.00     0.278 HD
HETATM    5  C   UNL     1      27.619  42.850  53.549  1.00  0.00     0.209 C 
HETATM    6  C   UNL     1      28.224  43.689  54.702  1.00  0.00     0.115 C 
HETATM    7  N   UNL     1      28.261  45.121  54.408  1.00  0.00    -0.353 N 
HETATM    8  C   UNL     1      27.233  45.775  53.771  1.00  0.00     0.249 C 
HETATM    9  O   UNL     1      27.078  46.980  53.937  1.00  0.00    -0.271 OA
HETATM   10  C   UNL     1      28.562  42.683  52.355  1.00  0.00     0.035 C 
HETATM   11  C   UNL     1      29.918  42.140  52.800  1.00  0.00     0.002 C 
HETATM   12  C   UNL     1      30.541  43.022  53.879  1.00  0.00     0.002 C 
HETATM   13  C   UNL     1      29.616  43.175  55.086  1.00  0.00     0.027 C 
HETATM   14  H   UNL     1      28.733  45.724  55.079  1.00  0.00     0.163 HD
ENDROOT
BRANCH   1  15
HETATM   15  C   UNL     1      25.017  45.569  52.539  1.00  0.00     0.146 C 
BRANCH  15  16
HETATM   16  C   UNL     1      24.381  45.067  51.271  1.00  0.00     0.224 C 
HETATM   17  N   UNL     1      24.434  45.749  50.099  1.00  0.00    -0.327 N 
HETATM   18  H   UNL     1      23.948  45.246  49.361  1.00  0.00     0.169 HD
HETATM   19  O   UNL     1      23.855  43.944  51.279  1.00  0.00    -0.273 OA
BRANCH  17  20
HETATM   20  C   UNL     1      25.007  46.970  49.687  1.00  0.00     0.034 A 
HETATM   21  C   UNL     1      24.316  48.113  49.289  1.00  0.00     0.029 A 
HETATM   22  C   UNL     1      25.007  49.266  48.895  1.00  0.00     0.002 A 
HETATM   23  C   UNL     1      26.398  49.296  48.906  1.00  0.00     0.000 A 
HETATM   24  C   UNL     1      27.102  48.170  49.313  1.00  0.00     0.002 A 
HETATM   25  C   UNL     1      26.412  47.017  49.698  1.00  0.00     0.029 A 
ENDBRANCH  17  20
ENDBRANCH  15  16
ENDBRANCH   1  15
TORSDOF 3
ENDMDL
MODEL 10
REMARK VINA RESULT:      -7.2     14.641     16.858
REMARK  3 active torsions:
REMARK  status: ('A' for Active; 'I' for Inactive)
REMARK    1  A    between atoms: C_4  and  N_5 
REMARK       I    between atoms: N_5  and  C_6 
REMARK    2  A    between atoms: C_6  and  C_7 
REMARK    3  A    between atoms: C_7  and  C_8 
ROOT
HETATM    1  C   UNL     1      33.371  50.244  41.897  1.00  0.00     0.286 C 
HETATM    2  N   UNL     1      34.741  49.586  41.765  1.00  0.00    -0.056 N 
HETATM    3  H   UNL     1      34.816  48.948  42.587  1.00  0.00     0.278 HD
HETATM    4  H   UNL     1      34.787  48.982  40.936  1.00  0.00     0.278 HD
HETATM    5  C   UNL     1      35.909  50.532  41.821  1.00  0.00     0.209 C 
HETATM    6  C   UNL     1      35.798  51.419  43.085  1.00  0.00     0.115 C 
HETATM    7  N   UNL     1      34.473  52.014  43.252  1.00  0.00    -0.353 N 
HETATM    8  C   UNL     1      33.312  51.324  42.996  1.00  0.00     0.249 C 
HETATM    9  O   UNL     1      32.269  51.654  43.550  1.00  0.00    -0.271 OA
HETATM   10  C   UNL     1      35.994  51.332  40.519  1.00  0.00     0.035 C 
HETATM   11  C   UNL     1      37.115  52.367  40.586  1.00  0.00     0.002 C 
HETATM   12  C   UNL     1      36.948  53.288  41.791  1.00  0.00     0.002 C 
HETATM   13  C   UNL     1      36.886  52.499  43.098  1.00  0.00     0.027 C 
HETATM   14  H   UNL     1      34.353  52.686  44.008  1.00  0.00     0.163 HD
ENDROOT
BRANCH   1  15
HETATM   15  C   UNL     1      32.255  49.202  42.072  1.00  0.00     0.146 C 
BRANCH  15  16
HETATM   16  C   UNL     1      32.293  48.160  40.988  1.00  0.00     0.224 C 
HETATM   17  N   UNL     1      31.705  48.332  39.777  1.00  0.00    -0.327 N 
HETATM   18  H   UNL     1      31.843  47.517  39.184  1.00  0.00     0.169 HD
HETATM   19  O   UNL     1      32.959  47.131  41.181  1.00  0.00    -0.273 OA
BRANCH  17  20
HETATM   20  C   UNL     1      30.968  49.371  39.172  1.00  0.00     0.034 A 
HETATM   21  C   UNL     1      29.579  49.461  39.098  1.00  0.00     0.029 A 
HETATM   22  C   UNL     1      28.966  50.548  38.460  1.00  0.00     0.002 A 
HETATM   23  C   UNL     1      29.734  51.564  37.900  1.00  0.00     0.000 A 
HETATM   24  C   UNL     1      31.118  51.496  37.977  1.00  0.00     0.002 A 
HETATM   25  C   UNL     1      31.729  50.407  38.606  1.00  0.00     0.029 A 
ENDBRANCH  17  20
ENDBRANCH  15  16
ENDBRANCH   1  15
TORSDOF 3
ENDMDL
