MODEL 1
REMARK VINA RESULT:      -8.0      0.000      0.000
REMARK  9 active torsions:
REMARK  status: ('A' for Active; 'I' for Inactive)
REMARK    1  A    between atoms: C_2  and  C_3 
REMARK    2  A    between atoms: C_3  and  O_4 
REMARK    3  A    between atoms: C_3  and  C_5 
REMARK    4  A    between atoms: C_5  and  N_6 
REMARK    5  A    between atoms: N_6  and  C_8 
REMARK    6  A    between atoms: N_6  and  C_21 
REMARK    7  A    between atoms: C_8  and  C_9 
REMARK    8  A    between atoms: C_10  and  C_11 
REMARK    9  A    between atoms: C_21  and  C_22 
ROOT
HETATM    1  N   UNL     1      27.327  44.496  54.814  1.00  0.00    -0.061 N 
HETATM    2  H   UNL     1      27.315  44.506  55.838  1.00  0.00     0.280 HD
ENDROOT
BRANCH   1   3
HETATM    3  C   UNL     1      26.369  45.597  54.382  1.00  0.00     0.267 C 
BRANCH   3   4
HETATM    4  C   UNL     1      27.044  46.838  53.752  1.00  0.00     0.143 C 
BRANCH   4   5
HETATM    5  C   UNL     1      27.524  47.904  54.742  1.00  0.00     0.029 C 
HETATM    6  C   UNL     1      26.463  48.326  55.744  1.00  0.00     0.007 C 
ENDBRANCH   4   5
BRANCH   4   7
HETATM    7  O   UNL     1      26.144  47.446  52.826  1.00  0.00    -0.394 OA
HETATM    8  H   UNL     1      25.457  46.789  52.596  1.00  0.00     0.210 HD
ENDBRANCH   4   7
ENDBRANCH   3   4
ENDBRANCH   1   3
BRANCH   1   9
HETATM    9  C   UNL     1      26.940  43.075  54.447  1.00  0.00     0.277 C 
BRANCH   9  10
HETATM   10  C   UNL     1      27.675  42.358  53.370  1.00  0.00     0.016 A 
HETATM   11  C   UNL     1      27.541  42.616  51.961  1.00  0.00     0.096 A 
HETATM   12  N   UNL     1      28.285  41.765  51.244  1.00  0.00    -0.174 NA
HETATM   13  N   UNL     1      28.951  41.041  52.143  1.00  0.00    -0.288 N 
HETATM   14  H   UNL     1      29.618  40.352  51.805  1.00  0.00     0.188 HD
HETATM   15  C   UNL     1      28.605  41.335  53.431  1.00  0.00     0.120 A 
BRANCH  11  16
HETATM   16  C   UNL     1      26.708  43.612  51.289  1.00  0.00    -0.005 A 
HETATM   17  C   UNL     1      25.313  43.599  51.422  1.00  0.00     0.014 A 
HETATM   18  C   UNL     1      24.534  44.553  50.762  1.00  0.00     0.001 A 
HETATM   19  C   UNL     1      25.141  45.532  49.978  1.00  0.00     0.000 A 
HETATM   20  C   UNL     1      26.528  45.566  49.858  1.00  0.00     0.001 A 
HETATM   21  C   UNL     1      27.310  44.612  50.512  1.00  0.00     0.014 A 
ENDBRANCH  11  16
ENDBRANCH   9  10
ENDBRANCH   1   9
BRANCH   1  22
HETATM   22  C   UNL     1      28.767  44.782  54.439  1.00  0.00     0.273 C 
BRANCH  22  23
HETATM   23  C   UNL     1      29.718  44.631  55.599  1.00  0.00    -0.033 A 
HETATM   24  C   UNL     1      30.617  43.554  55.653  1.00  0.00     0.009 A 
HETATM   25  C   UNL     1      31.468  43.400  56.748  1.00  0.00     0.001 A 
HETATM   26  C   UNL     1      31.434  44.318  57.795  1.00  0.00     0.000 A 
HETATM   27  C   UNL     1      30.555  45.397  57.747  1.00  0.00     0.001 A 
HETATM   28  C   UNL     1      29.701  45.556  56.655  1.00  0.00     0.009 A 
ENDBRANCH  22  23
ENDBRANCH   1  22
TORSDOF 9
ENDMDL
MODEL 2
REMARK VINA RESULT:      -7.9      1.936      5.965
REMARK  9 active torsions:
REMARK  status: ('A' for Active; 'I' for Inactive)
REMARK    1  A    between atoms: C_2  and  C_3 
REMARK    2  A    between atoms: C_3  and  O_4 
REMARK    3  A    between atoms: C_3  and  C_5 
REMARK    4  A    between atoms: C_5  and  N_6 
REMARK    5  A    between atoms: N_6  and  C_8 
REMARK    6  A    between atoms: N_6  and  C_21 
REMARK    7  A    between atoms: C_8  and  C_9 
REMARK    8  A    between atoms: C_10  and  C_11 
REMARK    9  A    between atoms: C_21  and  C_22 
ROOT
HETATM    1  N   UNL     1      26.864  45.036  51.360  1.00  0.00    -0.061 N 
HETATM    2  H   UNL     1      27.253  45.922  51.693  1.00  0.00     0.280 HD
ENDROOT
BRANCH   1   3
HETATM    3  C   UNL     1      25.689  44.734  52.278  1.00  0.00     0.267 C 
BRANCH   3   4
HETATM    4  C   UNL     1      25.284  45.891  53.222  1.00  0.00     0.143 C 
BRANCH   4   5
HETATM    5  C   UNL     1      26.246  47.082  53.258  1.00  0.00     0.029 C 
HETATM    6  C   UNL     1      26.361  47.731  54.628  1.00  0.00     0.007 C 
ENDBRANCH   4   5
BRANCH   4   7
HETATM    7  O   UNL     1      25.131  45.386  54.549  1.00  0.00    -0.394 OA
HETATM    8  H   UNL     1      24.673  44.524  54.493  1.00  0.00     0.210 HD
ENDBRANCH   4   7
ENDBRANCH   3   4
ENDBRANCH   1   3
BRANCH   1   9
HETATM    9  C   UNL     1      28.033  44.069  51.411  1.00  0.00     0.277 C 
BRANCH   9  10
HETATM   10  C   UNL     1      27.887  42.760  52.104  1.00  0.00     0.016 A 
HETATM   11  C   UNL     1      28.372  42.463  53.425  1.00  0.00     0.096 A 
HETATM   12  N   UNL     1      28.144  41.183  53.745  1.00  0.00    -0.174 NA
HETATM   13  N   UNL     1      27.456  40.685  52.718  1.00  0.00    -0.288 N 
HETATM   14  H   UNL     1      27.138  39.722  52.776  1.00  0.00     0.188 HD
HETATM   15  C   UNL     1      27.297  41.578  51.696  1.00  0.00     0.120 A 
BRANCH  11  16
HETATM   16  C   UNL     1      29.070  43.342  54.363  1.00  0.00    -0.005 A 
HETATM   17  C   UNL     1      30.341  43.016  54.853  1.00  0.00     0.014 A 
HETATM   18  C   UNL     1      30.987  43.864  55.757  1.00  0.00     0.001 A 
HETATM   19  C   UNL     1      30.375  45.048  56.165  1.00  0.00     0.000 A 
HETATM   20  C   UNL     1      29.121  45.392  55.666  1.00  0.00     0.001 A 
HETATM   21  C   UNL     1      28.471  44.544  54.766  1.00  0.00     0.014 A 
ENDBRANCH  11  16
ENDBRANCH   9  10
ENDBRANCH   1   9
BRANCH   1  22
HETATM   22  C   UNL     1      26.445  45.308  49.930  1.00  0.00     0.273 C 
BRANCH  22  23
HETATM   23  C   UNL     1      26.414  46.777  49.595  1.00  0.00    -0.033 A 
HETATM   24  C   UNL     1      25.197  47.475  49.545  1.00  0.00     0.009 A 
HETATM   25  C   UNL     1      25.172  48.827  49.197  1.00  0.00     0.001 A 
HETATM   26  C   UNL     1      26.358  49.494  48.902  1.00  0.00     0.000 A 
HETATM   27  C   UNL     1      27.572  48.816  48.960  1.00  0.00     0.001 A 
HETATM   28  C   UNL     1      27.603  47.464  49.306  1.00  0.00     0.009 A 
ENDBRANCH  22  23
ENDBRANCH   1  22
TORSDOF 9
ENDMDL
MODEL 3
REMARK VINA RESULT:      -7.7     12.830     15.368
REMARK  9 active torsions:
REMARK  status: ('A' for Active; 'I' for Inactive)
REMARK    1  A    between atoms: C_2  and  C_3 
REMARK    2  A    between atoms: C_3  and  O_4 
REMARK    3  A    between atoms: C_3  and  C_5 
REMARK    4  A    between atoms: C_5  and  N_6 
REMARK    5  A    between atoms: N_6  and  C_8 
REMARK    6  A    between atoms: N_6  and  C_21 
REMARK    7  A    between atoms: C_8  and  C_9 
REMARK    8  A    between atoms: C_10  and  C_11 
REMARK    9  A    between atoms: C_21  and  C_22 
ROOT
HETATM    1  N   UNL     1      29.311  48.613  41.215  1.00  0.00    -0.061 N 
HETATM    2  H   UNL     1      29.982  48.896  40.495  1.00  0.00     0.280 HD
ENDROOT
BRANCH   1   3
HETATM    3  C   UNL     1      28.847  47.220  40.816  1.00  0.00     0.267 C 
BRANCH   3   4
HETATM    4  C   UNL     1      29.668  46.557  39.686  1.00  0.00     0.143 C 
BRANCH   4   5
HETATM    5  C   UNL     1      29.444  47.126  38.283  1.00  0.00     0.029 C 
HETATM    6  C   UNL     1      27.989  47.105  37.842  1.00  0.00     0.007 C 
ENDBRANCH   4   5
BRANCH   4   7
HETATM    7  O   UNL     1      29.393  45.156  39.661  1.00  0.00    -0.394 OA
HETATM    8  H   UNL     1      30.188  44.697  39.324  1.00  0.00     0.210 HD
ENDBRANCH   4   7
ENDBRANCH   3   4
ENDBRANCH   1   3
BRANCH   1   9
HETATM    9  C   UNL     1      28.262  49.709  41.203  1.00  0.00     0.277 C 
BRANCH   9  10
HETATM   10  C   UNL     1      27.770  50.256  39.909  1.00  0.00     0.016 A 
HETATM   11  C   UNL     1      28.555  51.027  38.982  1.00  0.00     0.096 A 
HETATM   12  N   UNL     1      27.814  51.427  37.941  1.00  0.00    -0.174 NA
HETATM   13  N   UNL     1      26.620  50.866  38.127  1.00  0.00    -0.288 N 
HETATM   14  H   UNL     1      25.907  51.008  37.416  1.00  0.00     0.188 HD
HETATM   15  C   UNL     1      26.529  50.175  39.302  1.00  0.00     0.120 A 
BRANCH  11  16
HETATM   16  C   UNL     1      29.961  51.418  39.078  1.00  0.00    -0.005 A 
HETATM   17  C   UNL     1      30.937  50.816  38.273  1.00  0.00     0.014 A 
HETATM   18  C   UNL     1      32.277  51.197  38.388  1.00  0.00     0.001 A 
HETATM   19  C   UNL     1      32.648  52.188  39.295  1.00  0.00     0.000 A 
HETATM   20  C   UNL     1      31.681  52.807  40.084  1.00  0.00     0.001 A 
HETATM   21  C   UNL     1      30.342  52.426  39.975  1.00  0.00     0.014 A 
ENDBRANCH  11  16
ENDBRANCH   9  10
ENDBRANCH   1   9
BRANCH   1  22
HETATM   22  C   UNL     1      30.099  48.628  42.509  1.00  0.00     0.273 C 
BRANCH  22  23
HETATM   23  C   UNL     1      31.478  49.215  42.351  1.00  0.00    -0.033 A 
HETATM   24  C   UNL     1      31.855  50.361  43.070  1.00  0.00     0.009 A 
HETATM   25  C   UNL     1      33.121  50.922  42.890  1.00  0.00     0.001 A 
HETATM   26  C   UNL     1      34.022  50.343  41.998  1.00  0.00     0.000 A 
HETATM   27  C   UNL     1      33.663  49.200  41.290  1.00  0.00     0.001 A 
HETATM   28  C   UNL     1      32.398  48.636  41.464  1.00  0.00     0.009 A 
ENDBRANCH  22  23
ENDBRANCH   1  22
TORSDOF 9
ENDMDL
MODEL 4
REMARK VINA RESULT:      -7.6      4.361      6.631
REMARK  9 active torsions:
REMARK  status: ('A' for Active; 'I' for Inactive)
REMARK    1  A    between atoms: C_2  and  C_3 
REMARK    2  A    between atoms: C_3  and  O_4 
REMARK    3  A    between atoms: C_3  and  C_5 
REMARK    4  A    between atoms: C_5  and  N_6 
REMARK    5  A    between atoms: N_6  and  C_8 
REMARK    6  A    between atoms: N_6  and  C_21 
REMARK    7  A    between atoms: C_8  and  C_9 
REMARK    8  A    between atoms: C_10  and  C_11 
REMARK    9  A    between atoms: C_21  and  C_22 
ROOT
HETATM    1  N   UNL     1      25.919  46.514  50.837  1.00  0.00    -0.061 N 
HETATM    2  H   UNL     1      26.817  46.971  51.022  1.00  0.00     0.280 HD
ENDROOT
BRANCH   1   3
HETATM    3  C   UNL     1      26.245  45.310  49.966  1.00  0.00     0.267 C 
BRANCH   3   4
HETATM    4  C   UNL     1      25.076  44.318  49.760  1.00  0.00     0.143 C 
BRANCH   4   5
HETATM    5  C   UNL     1      25.280  42.922  50.357  1.00  0.00     0.029 C 
HETATM    6  C   UNL     1      26.682  42.688  50.894  1.00  0.00     0.007 C 
ENDBRANCH   4   5
BRANCH   4   7
HETATM    7  O   UNL     1      24.810  44.185  48.364  1.00  0.00    -0.394 OA
HETATM    8  H   UNL     1      24.017  43.622  48.260  1.00  0.00     0.210 HD
ENDBRANCH   4   7
ENDBRANCH   3   4
ENDBRANCH   1   3
BRANCH   1   9
HETATM    9  C   UNL     1      25.067  47.599  50.206  1.00  0.00     0.277 C 
BRANCH   9  10
HETATM   10  C   UNL     1      25.685  48.588  49.281  1.00  0.00     0.016 A 
HETATM   11  C   UNL     1      24.960  49.520  48.459  1.00  0.00     0.096 A 
HETATM   12  N   UNL     1      25.793  50.233  47.691  1.00  0.00    -0.174 NA
HETATM   13  N   UNL     1      27.016  49.854  48.059  1.00  0.00    -0.288 N 
HETATM   14  H   UNL     1      27.812  50.313  47.623  1.00  0.00     0.188 HD
HETATM   15  C   UNL     1      27.011  48.853  48.989  1.00  0.00     0.120 A 
BRANCH  11  16
HETATM   16  C   UNL     1      23.514  49.720  48.359  1.00  0.00    -0.005 A 
HETATM   17  C   UNL     1      22.665  48.682  47.956  1.00  0.00     0.014 A 
HETATM   18  C   UNL     1      21.287  48.897  47.856  1.00  0.00     0.001 A 
HETATM   19  C   UNL     1      20.749  50.143  48.173  1.00  0.00     0.000 A 
HETATM   20  C   UNL     1      21.583  51.175  48.596  1.00  0.00     0.001 A 
HETATM   21  C   UNL     1      22.961  50.965  48.692  1.00  0.00     0.014 A 
ENDBRANCH  11  16
ENDBRANCH   9  10
ENDBRANCH   1   9
BRANCH   1  22
HETATM   22  C   UNL     1      25.388  46.131  52.204  1.00  0.00     0.273 C 
BRANCH  22  23
HETATM   23  C   UNL     1      26.430  46.230  53.288  1.00  0.00    -0.033 A 
HETATM   24  C   UNL     1      26.643  47.439  53.969  1.00  0.00     0.009 A 
HETATM   25  C   UNL     1      27.636  47.534  54.946  1.00  0.00     0.001 A 
HETATM   26  C   UNL     1      28.420  46.424  55.256  1.00  0.00     0.000 A 
HETATM   27  C   UNL     1      28.209  45.216  54.596  1.00  0.00     0.001 A 
HETATM   28  C   UNL     1      27.219  45.116  53.617  1.00  0.00     0.009 A 
ENDBRANCH  22  23
ENDBRANCH   1  22
TORSDOF 9
ENDMDL
MODEL 5
REMARK VINA RESULT:      -7.6      8.501     11.709
REMARK  9 active torsions:
REMARK  status: ('A' for Active; 'I' for Inactive)
REMARK    1  A    between atoms: C_2  and  C_3 
REMARK    2  A    between atoms: C_3  and  O_4 
REMARK    3  A    between atoms: C_3  and  C_5 
REMARK    4  A    between atoms: C_5  and  N_6 
REMARK    5  A    between atoms: N_6  and  C_8 
REMARK    6  A    between atoms: N_6  and  C_21 
REMARK    7  A    between atoms: C_8  and  C_9 
REMARK    8  A    between atoms: C_10  and  C_11 
REMARK    9  A    between atoms: C_21  and  C_22 
ROOT
HETATM    1  N   UNL     1      21.167  48.457  48.238  1.00  0.00    -0.061 N 
HETATM    2  H   UNL     1      21.357  49.356  47.787  1.00  0.00     0.280 HD
ENDROOT
BRANCH   1   3
HETATM    3  C   UNL     1      22.528  47.894  48.620  1.00  0.00     0.267 C 
BRANCH   3   4
HETATM    4  C   UNL     1      23.413  48.843  49.462  1.00  0.00     0.143 C 
BRANCH   4   5
HETATM    5  C   UNL     1      24.396  49.710  48.668  1.00  0.00     0.029 C 
HETATM    6  C   UNL     1      23.721  50.779  47.825  1.00  0.00     0.007 C 
ENDBRANCH   4   5
BRANCH   4   7
HETATM    7  O   UNL     1      24.147  48.079  50.419  1.00  0.00    -0.394 OA
HETATM    8  H   UNL     1      24.184  47.154  50.104  1.00  0.00     0.210 HD
ENDBRANCH   4   7
ENDBRANCH   3   4
ENDBRANCH   1   3
BRANCH   1   9
HETATM    9  C   UNL     1      20.373  47.678  47.207  1.00  0.00     0.277 C 
BRANCH   9  10
HETATM   10  C   UNL     1      19.374  46.665  47.646  1.00  0.00     0.016 A 
HETATM   11  C   UNL     1      17.956  46.885  47.739  1.00  0.00     0.096 A 
HETATM   12  N   UNL     1      17.332  45.804  48.223  1.00  0.00    -0.174 NA
HETATM   13  N   UNL     1      18.285  44.881  48.354  1.00  0.00    -0.288 N 
HETATM   14  H   UNL     1      18.014  43.955  48.672  1.00  0.00     0.188 HD
HETATM   15  C   UNL     1      19.531  45.350  48.048  1.00  0.00     0.120 A 
BRANCH  11  16
HETATM   16  C   UNL     1      17.194  48.092  47.419  1.00  0.00    -0.005 A 
HETATM   17  C   UNL     1      16.048  48.439  48.145  1.00  0.00     0.014 A 
HETATM   18  C   UNL     1      15.327  49.591  47.817  1.00  0.00     0.001 A 
HETATM   19  C   UNL     1      15.755  50.410  46.773  1.00  0.00     0.000 A 
HETATM   20  C   UNL     1      16.907  50.085  46.060  1.00  0.00     0.001 A 
HETATM   21  C   UNL     1      17.626  48.932  46.382  1.00  0.00     0.014 A 
ENDBRANCH  11  16
ENDBRANCH   9  10
ENDBRANCH   1   9
BRANCH   1  22
HETATM   22  C   UNL     1      20.309  48.800  49.440  1.00  0.00     0.273 C 
BRANCH  22  23
HETATM   23  C   UNL     1      19.568  50.103  49.281  1.00  0.00    -0.033 A 
HETATM   24  C   UNL     1      20.044  51.096  48.411  1.00  0.00     0.009 A 
HETATM   25  C   UNL     1      19.374  52.316  48.298  1.00  0.00     0.001 A 
HETATM   26  C   UNL     1      18.223  52.553  49.045  1.00  0.00     0.000 A 
HETATM   27  C   UNL     1      17.734  51.570  49.903  1.00  0.00     0.001 A 
HETATM   28  C   UNL     1      18.401  50.350  50.021  1.00  0.00     0.009 A 
ENDBRANCH  22  23
ENDBRANCH   1  22
TORSDOF 9
ENDMDL
MODEL 6
REMARK VINA RESULT:      -7.5      1.167      5.896
REMARK  9 active torsions:
REMARK  status: ('A' for Active; 'I' for Inactive)
REMARK    1  A    between atoms: C_2  and  C_3 
REMARK    2  A    between atoms: C_3  and  O_4 
REMARK    3  A    between atoms: C_3  and  C_5 
REMARK    4  A    between atoms: C_5  and  N_6 
REMARK    5  A    between atoms: N_6  and  C_8 
REMARK    6  A    between atoms: N_6  and  C_21 
REMARK    7  A    between atoms: C_8  and  C_9 
REMARK    8  A    between atoms: C_10  and  C_11 
REMARK    9  A    between atoms: C_21  and  C_22 
ROOT
HETATM    1  N   UNL     1      26.256  44.601  53.805  1.00  0.00    -0.061 N 
HETATM    2  H   UNL     1      26.817  44.909  53.006  1.00  0.00     0.280 HD
ENDROOT
BRANCH   1   3
HETATM    3  C   UNL     1      26.069  45.836  54.674  1.00  0.00     0.267 C 
BRANCH   3   4
HETATM    4  C   UNL     1      26.587  47.155  54.053  1.00  0.00     0.143 C 
BRANCH   4   5
HETATM    5  C   UNL     1      27.290  48.111  55.021  1.00  0.00     0.029 C 
HETATM    6  C   UNL     1      26.363  48.711  56.065  1.00  0.00     0.007 C 
ENDBRANCH   4   5
BRANCH   4   7
HETATM    7  O   UNL     1      25.500  47.845  53.437  1.00  0.00    -0.394 OA
HETATM    8  H   UNL     1      25.872  48.503  52.816  1.00  0.00     0.210 HD
ENDBRANCH   4   7
ENDBRANCH   3   4
ENDBRANCH   1   3
BRANCH   1   9
HETATM    9  C   UNL     1      27.054  43.460  54.407  1.00  0.00     0.277 C 
BRANCH   9  10
HETATM   10  C   UNL     1      28.285  42.971  53.728  1.00  0.00     0.016 A 
HETATM   11  C   UNL     1      29.629  43.171  54.200  1.00  0.00     0.096 A 
HETATM   12  N   UNL     1      30.522  42.668  53.339  1.00  0.00    -0.174 NA
HETATM   13  N   UNL     1      29.796  42.081  52.388  1.00  0.00    -0.288 N 
HETATM   14  H   UNL     1      30.286  41.590  51.645  1.00  0.00     0.188 HD
HETATM   15  C   UNL     1      28.451  42.253  52.557  1.00  0.00     0.120 A 
BRANCH  11  16
HETATM   16  C   UNL     1      30.080  43.851  55.414  1.00  0.00    -0.005 A 
HETATM   17  C   UNL     1      29.611  45.129  55.746  1.00  0.00     0.014 A 
HETATM   18  C   UNL     1      30.063  45.766  56.905  1.00  0.00     0.001 A 
HETATM   19  C   UNL     1      30.972  45.127  57.746  1.00  0.00     0.000 A 
HETATM   20  C   UNL     1      31.427  43.847  57.436  1.00  0.00     0.001 A 
HETATM   21  C   UNL     1      30.981  43.209  56.276  1.00  0.00     0.014 A 
ENDBRANCH  11  16
ENDBRANCH   9  10
ENDBRANCH   1   9
BRANCH   1  22
HETATM   22  C   UNL     1      24.961  44.099  53.200  1.00  0.00     0.273 C 
BRANCH  22  23
HETATM   23  C   UNL     1      24.972  44.109  51.693  1.00  0.00    -0.033 A 
HETATM   24  C   UNL     1      24.522  42.996  50.966  1.00  0.00     0.009 A 
HETATM   25  C   UNL     1      24.571  42.998  49.571  1.00  0.00     0.001 A 
HETATM   26  C   UNL     1      25.062  44.109  48.890  1.00  0.00     0.000 A 
HETATM   27  C   UNL     1      25.499  45.224  49.600  1.00  0.00     0.001 A 
HETATM   28  C   UNL     1      25.454  45.227  50.995  1.00  0.00     0.009 A 
ENDBRANCH  22  23
ENDBRANCH   1  22
TORSDOF 9
ENDMDL
MODEL 7
REMARK VINA RESULT:      -7.3     14.228     16.550
REMARK  9 active torsions:
REMARK  status: ('A' for Active; 'I' for Inactive)
REMARK    1  A    between atoms: C_2  and  C_3 
REMARK    2  A    between atoms: C_3  and  O_4 
REMARK    3  A    between atoms: C_3  and  C_5 
REMARK    4  A    between atoms: C_5  and  N_6 
REMARK    5  A    between atoms: N_6  and  C_8 
REMARK    6  A    between atoms: N_6  and  C_21 
REMARK    7  A    between atoms: C_8  and  C_9 
REMARK    8  A    between atoms: C_10  and  C_11 
REMARK    9  A    between atoms: C_21  and  C_22 
ROOT
HETATM    1  N   UNL     1      37.878  44.104  64.445  1.00  0.00    -0.061 N 
HETATM    2  H   UNL     1      38.325  43.905  63.545  1.00  0.00     0.280 HD
ENDROOT
BRANCH   1   3
HETATM    3  C   UNL     1      36.694  45.005  64.124  1.00  0.00     0.267 C 
BRANCH   3   4
HETATM    4  C   UNL     1      36.901  46.499  64.469  1.00  0.00     0.143 C 
BRANCH   4   5
HETATM    5  C   UNL     1      35.909  47.088  65.477  1.00  0.00     0.029 C 
HETATM    6  C   UNL     1      36.543  48.062  66.457  1.00  0.00     0.007 C 
ENDBRANCH   4   5
BRANCH   4   7
HETATM    7  O   UNL     1      36.848  47.272  63.270  1.00  0.00    -0.394 OA
HETATM    8  H   UNL     1      36.731  46.657  62.518  1.00  0.00     0.210 HD
ENDBRANCH   4   7
ENDBRANCH   3   4
ENDBRANCH   1   3
BRANCH   1   9
HETATM    9  C   UNL     1      38.984  44.707  65.290  1.00  0.00     0.277 C 
BRANCH   9  10
HETATM   10  C   UNL     1      40.307  45.010  64.679  1.00  0.00     0.016 A 
HETATM   11  C   UNL     1      40.950  46.296  64.690  1.00  0.00     0.096 A 
HETATM   12  N   UNL     1      42.100  46.265  64.006  1.00  0.00    -0.174 NA
HETATM   13  N   UNL     1      42.254  44.992  63.641  1.00  0.00    -0.288 N 
HETATM   14  H   UNL     1      43.100  44.736  63.140  1.00  0.00     0.188 HD
HETATM   15  C   UNL     1      41.198  44.202  63.995  1.00  0.00     0.120 A 
BRANCH  11  16
HETATM   16  C   UNL     1      40.488  47.546  65.293  1.00  0.00    -0.005 A 
HETATM   17  C   UNL     1      40.603  47.771  66.671  1.00  0.00     0.014 A 
HETATM   18  C   UNL     1      40.145  48.968  67.230  1.00  0.00     0.001 A 
HETATM   19  C   UNL     1      39.583  49.950  66.416  1.00  0.00     0.000 A 
HETATM   20  C   UNL     1      39.485  49.744  65.042  1.00  0.00     0.001 A 
HETATM   21  C   UNL     1      39.937  48.548  64.481  1.00  0.00     0.014 A 
ENDBRANCH  11  16
ENDBRANCH   9  10
ENDBRANCH   1   9
BRANCH   1  22
HETATM   22  C   UNL     1      37.463  42.748  64.980  1.00  0.00     0.273 C 
BRANCH  22  23
HETATM   23  C   UNL     1      38.168  41.605  64.297  1.00  0.00    -0.033 A 
HETATM   24  C   UNL     1      38.487  40.435  65.004  1.00  0.00     0.009 A 
HETATM   25  C   UNL     1      39.175  39.395  64.375  1.00  0.00     0.001 A 
HETATM   26  C   UNL     1      39.544  39.510  63.037  1.00  0.00     0.000 A 
HETATM   27  C   UNL     1      39.222  40.661  62.322  1.00  0.00     0.001 A 
HETATM   28  C   UNL     1      38.536  41.704  62.946  1.00  0.00     0.009 A 
ENDBRANCH  22  23
ENDBRANCH   1  22
TORSDOF 9
ENDMDL
MODEL 8
REMARK VINA RESULT:      -7.2      6.175     10.101
REMARK  9 active torsions:
REMARK  status: ('A' for Active; 'I' for Inactive)
REMARK    1  A    between atoms: C_2  and  C_3 
REMARK    2  A    between atoms: C_3  and  O_4 
REMARK    3  A    between atoms: C_3  and  C_5 
REMARK    4  A    between atoms: C_5  and  N_6 
REMARK    5  A    between atoms: N_6  and  C_8 
REMARK    6  A    between atoms: N_6  and  C_21 
REMARK    7  A    between atoms: C_8  and  C_9 
REMARK    8  A    between atoms: C_10  and  C_11 
REMARK    9  A    between atoms: C_21  and  C_22 
ROOT
HETATM    1  N   UNL     1      22.125  48.859  49.178  1.00  0.00    -0.061 N 
HETATM    2  H   UNL     1      21.388  48.399  49.720  1.00  0.00     0.280 HD
ENDROOT
BRANCH   1   3
HETATM    3  C   UNL     1      21.784  48.595  47.718  1.00  0.00     0.267 C 
BRANCH   3   4
HETATM    4  C   UNL     1      20.479  47.797  47.488  1.00  0.00     0.143 C 
BRANCH   4   5
HETATM    5  C   UNL     1      19.327  48.581  46.852  1.00  0.00     0.029 C 
HETATM    6  C   UNL     1      17.987  48.352  47.531  1.00  0.00     0.007 C 
ENDBRANCH   4   5
BRANCH   4   7
HETATM    7  O   UNL     1      20.032  47.254  48.730  1.00  0.00    -0.394 OA
HETATM    8  H   UNL     1      19.620  47.976  49.245  1.00  0.00     0.210 HD
ENDBRANCH   4   7
ENDBRANCH   3   4
ENDBRANCH   1   3
BRANCH   1   9
HETATM    9  C   UNL     1      23.413  48.247  49.697  1.00  0.00     0.277 C 
BRANCH   9  10
HETATM   10  C   UNL     1      24.725  48.727  49.183  1.00  0.00     0.016 A 
HETATM   11  C   UNL     1      26.001  48.138  49.490  1.00  0.00     0.096 A 
HETATM   12  N   UNL     1      26.999  48.832  48.929  1.00  0.00    -0.174 NA
HETATM   13  N   UNL     1      26.401  49.780  48.208  1.00  0.00    -0.288 N 
HETATM   14  H   UNL     1      26.985  50.402  47.656  1.00  0.00     0.188 HD
HETATM   15  C   UNL     1      25.041  49.780  48.344  1.00  0.00     0.120 A 
BRANCH  11  16
HETATM   16  C   UNL     1      26.294  46.971  50.322  1.00  0.00    -0.005 A 
HETATM   17  C   UNL     1      26.829  45.801  49.766  1.00  0.00     0.014 A 
HETATM   18  C   UNL     1      27.091  44.693  50.577  1.00  0.00     0.001 A 
HETATM   19  C   UNL     1      26.836  44.751  51.946  1.00  0.00     0.000 A 
HETATM   20  C   UNL     1      26.325  45.917  52.510  1.00  0.00     0.001 A 
HETATM   21  C   UNL     1      26.057  47.024  51.703  1.00  0.00     0.014 A 
ENDBRANCH  11  16
ENDBRANCH   9  10
ENDBRANCH   1   9
BRANCH   1  22
HETATM   22  C   UNL     1      22.028  50.324  49.553  1.00  0.00     0.273 C 
BRANCH  22  23
HETATM   23  C   UNL     1      20.631  50.874  49.418  1.00  0.00    -0.033 A 
HETATM   24  C   UNL     1      20.345  51.878  48.480  1.00  0.00     0.009 A 
HETATM   25  C   UNL     1      19.057  52.411  48.387  1.00  0.00     0.001 A 
HETATM   26  C   UNL     1      18.046  51.944  49.222  1.00  0.00     0.000 A 
HETATM   27  C   UNL     1      18.315  50.939  50.148  1.00  0.00     0.001 A 
HETATM   28  C   UNL     1      19.601  50.405  50.247  1.00  0.00     0.009 A 
ENDBRANCH  22  23
ENDBRANCH   1  22
TORSDOF 9
ENDMDL
MODEL 9
REMARK VINA RESULT:      -7.2      1.248      2.069
REMARK  9 active torsions:
REMARK  status: ('A' for Active; 'I' for Inactive)
REMARK    1  A    between atoms: C_2  and  C_3 
REMARK    2  A    between atoms: C_3  and  O_4 
REMARK    3  A    between atoms: C_3  and  C_5 
REMARK    4  A    between atoms: C_5  and  N_6 
REMARK    5  A    between atoms: N_6  and  C_8 
REMARK    6  A    between atoms: N_6  and  C_21 
REMARK    7  A    between atoms: C_8  and  C_9 
REMARK    8  A    between atoms: C_10  and  C_11 
REMARK    9  A    between atoms: C_21  and  C_22 
ROOT
HETATM    1  N   UNL     1      28.213  43.831  54.086  1.00  0.00    -0.061 N 
HETATM    2  H   UNL     1      27.897  44.095  55.024  1.00  0.00     0.280 HD
ENDROOT
BRANCH   1   3
HETATM    3  C   UNL     1      27.835  44.997  53.184  1.00  0.00     0.267 C 
BRANCH   3   4
HETATM    4  C   UNL     1      26.899  46.045  53.830  1.00  0.00     0.143 C 
BRANCH   4   5
HETATM    5  C   UNL     1      25.522  45.529  54.258  1.00  0.00     0.029 C 
HETATM    6  C   UNL     1      24.807  44.733  53.178  1.00  0.00     0.007 C 
ENDBRANCH   4   5
BRANCH   4   7
HETATM    7  O   UNL     1      26.718  47.137  52.928  1.00  0.00    -0.394 OA
HETATM    8  H   UNL     1      26.062  46.867  52.255  1.00  0.00     0.210 HD
ENDBRANCH   4   7
ENDBRANCH   3   4
ENDBRANCH   1   3
BRANCH   1   9
HETATM    9  C   UNL     1      27.521  42.508  53.815  1.00  0.00     0.277 C 
BRANCH   9  10
HETATM   10  C   UNL     1      28.040  41.601  52.755  1.00  0.00     0.016 A 
HETATM   11  C   UNL     1      27.618  41.604  51.380  1.00  0.00     0.096 A 
HETATM   12  N   UNL     1      28.221  40.630  50.689  1.00  0.00    -0.174 NA
HETATM   13  N   UNL     1      29.073  40.070  51.547  1.00  0.00    -0.288 N 
HETATM   14  H   UNL     1      29.674  39.324  51.209  1.00  0.00     0.188 HD
HETATM   15  C   UNL     1      28.988  40.594  52.806  1.00  0.00     0.120 A 
BRANCH  11  16
HETATM   16  C   UNL     1      26.642  42.475  50.725  1.00  0.00    -0.005 A 
HETATM   17  C   UNL     1      27.025  43.699  50.162  1.00  0.00     0.014 A 
HETATM   18  C   UNL     1      26.075  44.521  49.550  1.00  0.00     0.001 A 
HETATM   19  C   UNL     1      24.741  44.120  49.484  1.00  0.00     0.000 A 
HETATM   20  C   UNL     1      24.355  42.895  50.021  1.00  0.00     0.001 A 
HETATM   21  C   UNL     1      25.301  42.073  50.638  1.00  0.00     0.014 A 
ENDBRANCH  11  16
ENDBRANCH   9  10
ENDBRANCH   1   9
BRANCH   1  22
HETATM   22  C   UNL     1      29.711  43.645  54.218  1.00  0.00     0.273 C 
BRANCH  22  23
HETATM   23  C   UNL     1      30.234  44.032  55.578  1.00  0.00    -0.033 A 
HETATM   24  C   UNL     1      29.833  45.232  56.185  1.00  0.00     0.009 A 
HETATM   25  C   UNL     1      30.351  45.603  57.427  1.00  0.00     0.001 A 
HETATM   26  C   UNL     1      31.268  44.779  58.076  1.00  0.00     0.000 A 
HETATM   27  C   UNL     1      31.664  43.580  57.489  1.00  0.00     0.001 A 
HETATM   28  C   UNL     1      31.151  43.205  56.246  1.00  0.00     0.009 A 
ENDBRANCH  22  23
ENDBRANCH   1  22
TORSDOF 9
ENDMDL
MODEL 10
REMARK VINA RESULT:      -7.1      5.976     10.069
REMARK  9 active torsions:
REMARK  status: ('A' for Active; 'I' for Inactive)
REMARK    1  A    between atoms: C_2  and  C_3 
REMARK    2  A    between atoms: C_3  and  O_4 
REMARK    3  A    between atoms: C_3  and  C_5 
REMARK    4  A    between atoms: C_5  and  N_6 
REMARK    5  A    between atoms: N_6  and  C_8 
REMARK    6  A    between atoms: N_6  and  C_21 
REMARK    7  A    between atoms: C_8  and  C_9 
REMARK    8  A    between atoms: C_10  and  C_11 
REMARK    9  A    between atoms: C_21  and  C_22 
ROOT
HETATM    1  N   UNL     1      22.918  46.708  49.325  1.00  0.00    -0.061 N 
HETATM    2  H   UNL     1      22.068  46.599  49.884  1.00  0.00     0.280 HD
ENDROOT
BRANCH   1   3
HETATM    3  C   UNL     1      23.670  45.392  49.463  1.00  0.00     0.267 C 
BRANCH   3   4
HETATM    4  C   UNL     1      24.547  45.273  50.732  1.00  0.00     0.143 C 
BRANCH   4   5
HETATM    5  C   UNL     1      25.924  44.634  50.527  1.00  0.00     0.029 C 
HETATM    6  C   UNL     1      26.899  45.518  49.767  1.00  0.00     0.007 C 
ENDBRANCH   4   5
BRANCH   4   7
HETATM    7  O   UNL     1      23.841  44.529  51.725  1.00  0.00    -0.394 OA
HETATM    8  H   UNL     1      23.865  43.585  51.470  1.00  0.00     0.210 HD
ENDBRANCH   4   7
ENDBRANCH   3   4
ENDBRANCH   1   3
BRANCH   1   9
HETATM    9  C   UNL     1      23.592  47.940  49.899  1.00  0.00     0.277 C 
BRANCH   9  10
HETATM   10  C   UNL     1      24.211  48.943  48.990  1.00  0.00     0.016 A 
HETATM   11  C   UNL     1      23.539  50.087  48.436  1.00  0.00     0.096 A 
HETATM   12  N   UNL     1      24.343  50.763  47.606  1.00  0.00    -0.174 NA
HETATM   13  N   UNL     1      25.522  50.145  47.684  1.00  0.00    -0.288 N 
HETATM   14  H   UNL     1      26.301  50.530  47.157  1.00  0.00     0.188 HD
HETATM   15  C   UNL     1      25.493  49.033  48.478  1.00  0.00     0.120 A 
BRANCH  11  16
HETATM   16  C   UNL     1      22.159  50.526  48.642  1.00  0.00    -0.005 A 
HETATM   17  C   UNL     1      21.284  50.697  47.561  1.00  0.00     0.014 A 
HETATM   18  C   UNL     1      19.972  51.128  47.779  1.00  0.00     0.001 A 
HETATM   19  C   UNL     1      19.523  51.377  49.075  1.00  0.00     0.000 A 
HETATM   20  C   UNL     1      20.379  51.188  50.157  1.00  0.00     0.001 A 
HETATM   21  C   UNL     1      21.692  50.762  49.943  1.00  0.00     0.014 A 
ENDBRANCH  11  16
ENDBRANCH   9  10
ENDBRANCH   1   9
BRANCH   1  22
HETATM   22  C   UNL     1      22.427  46.964  47.914  1.00  0.00     0.273 C 
BRANCH  22  23
HETATM   23  C   UNL     1      20.945  47.231  47.847  1.00  0.00    -0.033 A 
HETATM   24  C   UNL     1      20.290  47.330  46.610  1.00  0.00     0.009 A 
HETATM   25  C   UNL     1      18.925  47.616  46.554  1.00  0.00     0.001 A 
HETATM   26  C   UNL     1      18.201  47.799  47.730  1.00  0.00     0.000 A 
HETATM   27  C   UNL     1      18.837  47.691  48.964  1.00  0.00     0.001 A 
HETATM   28  C   UNL     1      20.202  47.407  49.025  1.00  0.00     0.009 A 
ENDBRANCH  22  23
ENDBRANCH   1  22
TORSDOF 9
ENDMDL
