MODEL 1
REMARK VINA RESULT:      -8.6      0.000      0.000
REMARK  7 active torsions:
REMARK  status: ('A' for Active; 'I' for Inactive)
REMARK    1  A    between atoms: C_2  and  N_3 
REMARK    2  A    between atoms: N_3  and  C_4 
REMARK    3  A    between atoms: C_6  and  C_7 
REMARK    4  A    between atoms: C_7  and  N_8 
REMARK       I    between atoms: N_8  and  C_9 
REMARK       I    between atoms: C_9  and  N_10 
REMARK    5  A    between atoms: N_10  and  C_11 
REMARK    6  A    between atoms: C_11  and  C_12 
REMARK    7  A    between atoms: C_12  and  N_13 
ROOT
HETATM    1  N   UNL     1      25.396  46.584  52.888  1.00  0.00    -0.339 N 
HETATM    2  C   UNL     1      25.451  47.057  51.616  1.00  0.00     0.316 C 
HETATM    3  N   UNL     1      24.388  46.648  50.859  1.00  0.00    -0.342 N 
HETATM    4  O   UNL     1      26.356  47.744  51.158  1.00  0.00    -0.248 OA
HETATM    5  H   UNL     1      24.790  45.806  53.095  1.00  0.00     0.164 HD
HETATM    6  H   UNL     1      23.624  46.261  51.399  1.00  0.00     0.164 HD
ENDROOT
BRANCH   1   7
HETATM    7  C   UNL     1      26.434  46.867  53.861  1.00  0.00     0.162 C 
BRANCH   7   8
HETATM    8  C   UNL     1      27.357  45.695  54.074  1.00  0.00    -0.039 A 
HETATM    9  C   UNL     1      28.514  45.843  54.858  1.00  0.00     0.032 A 
HETATM   10  C   UNL     1      29.338  44.753  55.173  1.00  0.00     0.009 A 
HETATM   11  C   UNL     1      29.037  43.514  54.604  1.00  0.00     0.023 A 
HETATM   12  C   UNL     1      27.896  43.347  53.815  1.00  0.00     0.002 A 
HETATM   13  C   UNL     1      27.052  44.427  53.564  1.00  0.00     0.009 A 
BRANCH  10  14
HETATM   14  N   UNL     1      30.485  45.006  55.939  1.00  0.00    -0.289 NA
HETATM   15  H   UNL     1      31.300  44.854  55.345  1.00  0.00     0.128 HD
BRANCH  14  16
HETATM   16  C   UNL     1      30.655  44.317  57.229  1.00  0.00     0.052 C 
HETATM   17  C   UNL     1      30.777  45.324  58.374  1.00  0.00     0.026 C 
HETATM   18  C   UNL     1      31.931  43.475  57.156  1.00  0.00     0.026 C 
ENDBRANCH  14  16
ENDBRANCH  10  14
ENDBRANCH   7   8
ENDBRANCH   1   7
BRANCH   3  19
HETATM   19  C   UNL     1      24.006  47.210  49.566  1.00  0.00     0.152 C 
BRANCH  19  20
HETATM   20  C   UNL     1      23.759  48.730  49.441  1.00  0.00     0.255 C 
BRANCH  20  21
HETATM   21  N   UNL     1      22.304  49.116  49.485  1.00  0.00    -0.065 N 
HETATM   22  H   UNL     1      22.075  49.113  50.498  1.00  0.00     0.280 HD
HETATM   23  C   UNL     1      21.999  50.498  48.961  1.00  0.00     0.274 C 
HETATM   24  C   UNL     1      20.532  50.751  48.855  1.00  0.00    -0.019 A 
HETATM   25  C   UNL     1      19.599  49.740  48.973  1.00  0.00    -0.008 A 
HETATM   26  C   UNL     1      19.897  52.008  48.605  1.00  0.00     0.017 A 
HETATM   27  S   UNL     1      17.999  50.285  48.805  1.00  0.00    -0.106 SA
HETATM   28  C   UNL     1      19.932  48.309  49.244  1.00  0.00     0.074 C 
HETATM   29  C   UNL     1      18.524  51.894  48.551  1.00  0.00     0.051 A 
HETATM   30  C   UNL     1      21.404  48.044  48.886  1.00  0.00     0.240 C 
ENDBRANCH  20  21
ENDBRANCH  19  20
ENDBRANCH   3  19
TORSDOF 7
ENDMDL
MODEL 2
REMARK VINA RESULT:      -8.5      3.695     10.558
REMARK  7 active torsions:
REMARK  status: ('A' for Active; 'I' for Inactive)
REMARK    1  A    between atoms: C_2  and  N_3 
REMARK    2  A    between atoms: N_3  and  C_4 
REMARK    3  A    between atoms: C_6  and  C_7 
REMARK    4  A    between atoms: C_7  and  N_8 
REMARK       I    between atoms: N_8  and  C_9 
REMARK       I    between atoms: C_9  and  N_10 
REMARK    5  A    between atoms: N_10  and  C_11 
REMARK    6  A    between atoms: C_11  and  C_12 
REMARK    7  A    between atoms: C_12  and  N_13 
ROOT
HETATM    1  N   UNL     1      25.671  47.288  50.014  1.00  0.00    -0.339 N 
HETATM    2  C   UNL     1      26.599  46.304  49.882  1.00  0.00     0.316 C 
HETATM    3  N   UNL     1      26.349  45.235  50.698  1.00  0.00    -0.342 N 
HETATM    4  O   UNL     1      27.581  46.354  49.152  1.00  0.00    -0.248 OA
HETATM    5  H   UNL     1      25.077  47.294  50.828  1.00  0.00     0.164 HD
HETATM    6  H   UNL     1      25.417  45.230  51.094  1.00  0.00     0.164 HD
ENDROOT
BRANCH   1   7
HETATM    7  C   UNL     1      25.753  48.528  49.267  1.00  0.00     0.162 C 
BRANCH   7   8
HETATM    8  C   UNL     1      24.395  49.053  48.875  1.00  0.00    -0.039 A 
HETATM    9  C   UNL     1      23.232  48.406  49.327  1.00  0.00     0.032 A 
HETATM   10  C   UNL     1      21.954  48.926  49.080  1.00  0.00     0.009 A 
HETATM   11  C   UNL     1      21.850  50.065  48.280  1.00  0.00     0.023 A 
HETATM   12  C   UNL     1      22.993  50.719  47.812  1.00  0.00     0.002 A 
HETATM   13  C   UNL     1      24.259  50.226  48.122  1.00  0.00     0.009 A 
BRANCH  10  14
HETATM   14  N   UNL     1      20.854  48.193  49.549  1.00  0.00    -0.289 NA
HETATM   15  H   UNL     1      20.917  47.250  49.166  1.00  0.00     0.128 HD
BRANCH  14  16
HETATM   16  C   UNL     1      19.497  48.734  49.360  1.00  0.00     0.052 C 
HETATM   17  C   UNL     1      18.915  49.225  50.687  1.00  0.00     0.026 C 
HETATM   18  C   UNL     1      18.612  47.617  48.800  1.00  0.00     0.026 C 
ENDBRANCH  14  16
ENDBRANCH  10  14
ENDBRANCH   7   8
ENDBRANCH   1   7
BRANCH   3  19
HETATM   19  C   UNL     1      26.977  43.921  50.585  1.00  0.00     0.152 C 
BRANCH  19  20
HETATM   20  C   UNL     1      27.108  43.031  51.841  1.00  0.00     0.255 C 
BRANCH  20  21
HETATM   21  N   UNL     1      28.160  43.499  52.811  1.00  0.00    -0.065 N 
HETATM   22  H   UNL     1      28.844  44.004  52.214  1.00  0.00     0.280 HD
HETATM   23  C   UNL     1      27.671  44.474  53.855  1.00  0.00     0.274 C 
HETATM   24  C   UNL     1      28.704  44.754  54.894  1.00  0.00    -0.019 A 
HETATM   25  C   UNL     1      29.855  44.000  55.012  1.00  0.00    -0.008 A 
HETATM   26  C   UNL     1      28.657  45.777  55.892  1.00  0.00     0.017 A 
HETATM   27  S   UNL     1      30.865  44.516  56.277  1.00  0.00    -0.106 SA
HETATM   28  C   UNL     1      30.214  42.859  54.117  1.00  0.00     0.074 C 
HETATM   29  C   UNL     1      29.768  45.756  56.710  1.00  0.00     0.051 A 
HETATM   30  C   UNL     1      28.952  42.343  53.406  1.00  0.00     0.240 C 
ENDBRANCH  20  21
ENDBRANCH  19  20
ENDBRANCH   3  19
TORSDOF 7
ENDMDL
MODEL 3
REMARK VINA RESULT:      -8.2      3.456     11.165
REMARK  7 active torsions:
REMARK  status: ('A' for Active; 'I' for Inactive)
REMARK    1  A    between atoms: C_2  and  N_3 
REMARK    2  A    between atoms: N_3  and  C_4 
REMARK    3  A    between atoms: C_6  and  C_7 
REMARK    4  A    between atoms: C_7  and  N_8 
REMARK       I    between atoms: N_8  and  C_9 
REMARK       I    between atoms: C_9  and  N_10 
REMARK    5  A    between atoms: N_10  and  C_11 
REMARK    6  A    between atoms: C_11  and  C_12 
REMARK    7  A    between atoms: C_12  and  N_13 
ROOT
HETATM    1  N   UNL     1      23.284  47.834  49.885  1.00  0.00    -0.339 N 
HETATM    2  C   UNL     1      24.522  47.472  50.312  1.00  0.00     0.316 C 
HETATM    3  N   UNL     1      24.509  46.310  51.033  1.00  0.00    -0.342 N 
HETATM    4  O   UNL     1      25.549  48.113  50.122  1.00  0.00    -0.248 OA
HETATM    5  H   UNL     1      22.476  47.420  50.324  1.00  0.00     0.164 HD
HETATM    6  H   UNL     1      23.649  45.784  50.948  1.00  0.00     0.164 HD
ENDROOT
BRANCH   1   7
HETATM    7  C   UNL     1      23.055  49.049  49.127  1.00  0.00     0.162 C 
BRANCH   7   8
HETATM    8  C   UNL     1      21.615  49.491  49.172  1.00  0.00    -0.039 A 
HETATM    9  C   UNL     1      20.588  48.537  49.270  1.00  0.00     0.032 A 
HETATM   10  C   UNL     1      19.246  48.909  49.427  1.00  0.00     0.009 A 
HETATM   11  C   UNL     1      18.931  50.269  49.387  1.00  0.00     0.023 A 
HETATM   12  C   UNL     1      19.936  51.234  49.281  1.00  0.00     0.002 A 
HETATM   13  C   UNL     1      21.272  50.849  49.191  1.00  0.00     0.009 A 
BRANCH  10  14
HETATM   14  N   UNL     1      18.291  47.885  49.489  1.00  0.00    -0.289 NA
HETATM   15  H   UNL     1      18.745  47.052  49.865  1.00  0.00     0.128 HD
BRANCH  14  16
HETATM   16  C   UNL     1      17.520  47.546  48.280  1.00  0.00     0.052 C 
HETATM   17  C   UNL     1      16.094  48.094  48.371  1.00  0.00     0.026 C 
HETATM   18  C   UNL     1      17.470  46.021  48.157  1.00  0.00     0.026 C 
ENDBRANCH  14  16
ENDBRANCH  10  14
ENDBRANCH   7   8
ENDBRANCH   1   7
BRANCH   3  19
HETATM   19  C   UNL     1      25.686  45.514  51.375  1.00  0.00     0.152 C 
BRANCH  19  20
HETATM   20  C   UNL     1      25.579  44.430  52.469  1.00  0.00     0.255 C 
BRANCH  20  21
HETATM   21  N   UNL     1      26.605  44.564  53.563  1.00  0.00    -0.065 N 
HETATM   22  H   UNL     1      26.105  44.247  54.416  1.00  0.00     0.280 HD
HETATM   23  C   UNL     1      27.821  43.683  53.402  1.00  0.00     0.274 C 
HETATM   24  C   UNL     1      28.880  43.994  54.406  1.00  0.00    -0.019 A 
HETATM   25  C   UNL     1      28.838  45.126  55.196  1.00  0.00    -0.008 A 
HETATM   26  C   UNL     1      30.054  43.224  54.677  1.00  0.00     0.017 A 
HETATM   27  S   UNL     1      30.164  45.255  56.249  1.00  0.00    -0.106 SA
HETATM   28  C   UNL     1      27.739  46.138  55.166  1.00  0.00     0.074 C 
HETATM   29  C   UNL     1      30.837  43.798  55.656  1.00  0.00     0.051 A 
HETATM   30  C   UNL     1      26.962  46.017  53.845  1.00  0.00     0.240 C 
ENDBRANCH  20  21
ENDBRANCH  19  20
ENDBRANCH   3  19
TORSDOF 7
ENDMDL
MODEL 4
REMARK VINA RESULT:      -8.1      1.627      3.180
REMARK  7 active torsions:
REMARK  status: ('A' for Active; 'I' for Inactive)
REMARK    1  A    between atoms: C_2  and  N_3 
REMARK    2  A    between atoms: N_3  and  C_4 
REMARK    3  A    between atoms: C_6  and  C_7 
REMARK    4  A    between atoms: C_7  and  N_8 
REMARK       I    between atoms: N_8  and  C_9 
REMARK       I    between atoms: C_9  and  N_10 
REMARK    5  A    between atoms: N_10  and  C_11 
REMARK    6  A    between atoms: C_11  and  C_12 
REMARK    7  A    between atoms: C_12  and  N_13 
ROOT
HETATM    1  N   UNL     1      25.389  46.445  52.650  1.00  0.00    -0.339 N 
HETATM    2  C   UNL     1      25.383  47.025  51.422  1.00  0.00     0.316 C 
HETATM    3  N   UNL     1      24.306  46.645  50.669  1.00  0.00    -0.342 N 
HETATM    4  O   UNL     1      26.249  47.777  50.993  1.00  0.00    -0.248 OA
HETATM    5  H   UNL     1      24.814  45.633  52.810  1.00  0.00     0.164 HD
HETATM    6  H   UNL     1      23.574  46.190  51.200  1.00  0.00     0.164 HD
ENDROOT
BRANCH   1   7
HETATM    7  C   UNL     1      26.453  46.680  53.608  1.00  0.00     0.162 C 
BRANCH   7   8
HETATM    8  C   UNL     1      27.259  45.438  53.887  1.00  0.00    -0.039 A 
HETATM    9  C   UNL     1      26.909  44.220  53.279  1.00  0.00     0.032 A 
HETATM   10  C   UNL     1      27.697  43.069  53.423  1.00  0.00     0.009 A 
HETATM   11  C   UNL     1      28.802  43.129  54.274  1.00  0.00     0.023 A 
HETATM   12  C   UNL     1      29.162  44.328  54.896  1.00  0.00     0.002 A 
HETATM   13  C   UNL     1      28.405  45.480  54.691  1.00  0.00     0.009 A 
BRANCH  10  14
HETATM   14  N   UNL     1      27.251  41.895  52.799  1.00  0.00    -0.289 NA
HETATM   15  H   UNL     1      27.697  41.103  53.263  1.00  0.00     0.128 HD
BRANCH  14  16
HETATM   16  C   UNL     1      27.370  41.766  51.337  1.00  0.00     0.052 C 
HETATM   17  C   UNL     1      25.995  41.587  50.690  1.00  0.00     0.026 C 
HETATM   18  C   UNL     1      28.236  40.541  51.034  1.00  0.00     0.026 C 
ENDBRANCH  14  16
ENDBRANCH  10  14
ENDBRANCH   7   8
ENDBRANCH   1   7
BRANCH   3  19
HETATM   19  C   UNL     1      23.860  47.301  49.441  1.00  0.00     0.152 C 
BRANCH  19  20
HETATM   20  C   UNL     1      23.612  48.826  49.442  1.00  0.00     0.255 C 
BRANCH  20  21
HETATM   21  N   UNL     1      22.156  49.205  49.494  1.00  0.00    -0.065 N 
HETATM   22  H   UNL     1      21.930  49.192  50.508  1.00  0.00     0.280 HD
HETATM   23  C   UNL     1      21.844  50.592  48.984  1.00  0.00     0.274 C 
HETATM   24  C   UNL     1      20.376  50.841  48.885  1.00  0.00    -0.019 A 
HETATM   25  C   UNL     1      19.447  49.825  48.995  1.00  0.00    -0.008 A 
HETATM   26  C   UNL     1      19.736  52.097  48.649  1.00  0.00     0.017 A 
HETATM   27  S   UNL     1      17.845  50.365  48.838  1.00  0.00    -0.106 SA
HETATM   28  C   UNL     1      19.787  48.393  49.252  1.00  0.00     0.074 C 
HETATM   29  C   UNL     1      18.363  51.979  48.599  1.00  0.00     0.051 A 
HETATM   30  C   UNL     1      21.258  48.137  48.886  1.00  0.00     0.240 C 
ENDBRANCH  20  21
ENDBRANCH  19  20
ENDBRANCH   3  19
TORSDOF 7
ENDMDL
MODEL 5
REMARK VINA RESULT:      -8.1      3.523     10.940
REMARK  7 active torsions:
REMARK  status: ('A' for Active; 'I' for Inactive)
REMARK    1  A    between atoms: C_2  and  N_3 
REMARK    2  A    between atoms: N_3  and  C_4 
REMARK    3  A    between atoms: C_6  and  C_7 
REMARK    4  A    between atoms: C_7  and  N_8 
REMARK       I    between atoms: N_8  and  C_9 
REMARK       I    between atoms: C_9  and  N_10 
REMARK    5  A    between atoms: N_10  and  C_11 
REMARK    6  A    between atoms: C_11  and  C_12 
REMARK    7  A    between atoms: C_12  and  N_13 
ROOT
HETATM    1  N   UNL     1      24.305  46.686  49.549  1.00  0.00    -0.339 N 
HETATM    2  C   UNL     1      24.619  45.435  49.977  1.00  0.00     0.316 C 
HETATM    3  N   UNL     1      25.902  45.348  50.443  1.00  0.00    -0.342 N 
HETATM    4  O   UNL     1      23.873  44.465  49.928  1.00  0.00    -0.248 OA
HETATM    5  H   UNL     1      25.049  47.337  49.353  1.00  0.00     0.164 HD
HETATM    6  H   UNL     1      26.338  46.245  50.614  1.00  0.00     0.164 HD
ENDROOT
BRANCH   1   7
HETATM    7  C   UNL     1      23.007  47.004  48.986  1.00  0.00     0.162 C 
BRANCH   7   8
HETATM    8  C   UNL     1      22.813  48.485  48.790  1.00  0.00    -0.039 A 
HETATM    9  C   UNL     1      21.681  49.124  49.324  1.00  0.00     0.032 A 
HETATM   10  C   UNL     1      21.519  50.515  49.261  1.00  0.00     0.009 A 
HETATM   11  C   UNL     1      22.472  51.258  48.562  1.00  0.00     0.023 A 
HETATM   12  C   UNL     1      23.600  50.642  48.015  1.00  0.00     0.002 A 
HETATM   13  C   UNL     1      23.779  49.266  48.142  1.00  0.00     0.009 A 
BRANCH  10  14
HETATM   14  N   UNL     1      20.343  51.057  49.799  1.00  0.00    -0.289 NA
HETATM   15  H   UNL     1      20.156  50.588  50.686  1.00  0.00     0.128 HD
BRANCH  14  16
HETATM   16  C   UNL     1      19.124  51.094  48.972  1.00  0.00     0.052 C 
HETATM   17  C   UNL     1      18.908  52.489  48.382  1.00  0.00     0.026 C 
HETATM   18  C   UNL     1      17.932  50.730  49.862  1.00  0.00     0.026 C 
ENDBRANCH  14  16
ENDBRANCH  10  14
ENDBRANCH   7   8
ENDBRANCH   1   7
BRANCH   3  19
HETATM   19  C   UNL     1      26.442  44.240  51.229  1.00  0.00     0.152 C 
BRANCH  19  20
HETATM   20  C   UNL     1      25.896  43.981  52.650  1.00  0.00     0.255 C 
BRANCH  20  21
HETATM   21  N   UNL     1      26.881  44.290  53.746  1.00  0.00    -0.065 N 
HETATM   22  H   UNL     1      26.378  44.029  54.617  1.00  0.00     0.280 HD
HETATM   23  C   UNL     1      28.152  43.475  53.704  1.00  0.00     0.274 C 
HETATM   24  C   UNL     1      29.162  43.953  54.693  1.00  0.00    -0.019 A 
HETATM   25  C   UNL     1      29.030  45.154  55.361  1.00  0.00    -0.008 A 
HETATM   26  C   UNL     1      30.372  43.289  55.067  1.00  0.00     0.017 A 
HETATM   27  S   UNL     1      30.315  45.472  56.424  1.00  0.00    -0.106 SA
HETATM   28  C   UNL     1      27.873  46.086  55.203  1.00  0.00     0.074 C 
HETATM   29  C   UNL     1      31.092  44.008  55.998  1.00  0.00     0.051 A 
HETATM   30  C   UNL     1      27.141  45.783  53.885  1.00  0.00     0.240 C 
ENDBRANCH  20  21
ENDBRANCH  19  20
ENDBRANCH   3  19
TORSDOF 7
ENDMDL
MODEL 6
REMARK VINA RESULT:      -7.9      3.490     11.283
REMARK  7 active torsions:
REMARK  status: ('A' for Active; 'I' for Inactive)
REMARK    1  A    between atoms: C_2  and  N_3 
REMARK    2  A    between atoms: N_3  and  C_4 
REMARK    3  A    between atoms: C_6  and  C_7 
REMARK    4  A    between atoms: C_7  and  N_8 
REMARK       I    between atoms: N_8  and  C_9 
REMARK       I    between atoms: C_9  and  N_10 
REMARK    5  A    between atoms: N_10  and  C_11 
REMARK    6  A    between atoms: C_11  and  C_12 
REMARK    7  A    between atoms: C_12  and  N_13 
ROOT
HETATM    1  N   UNL     1      23.024  47.251  49.394  1.00  0.00    -0.339 N 
HETATM    2  C   UNL     1      24.208  47.284  50.058  1.00  0.00     0.316 C 
HETATM    3  N   UNL     1      24.417  46.163  50.813  1.00  0.00    -0.342 N 
HETATM    4  O   UNL     1      25.004  48.215  50.035  1.00  0.00    -0.248 OA
HETATM    5  H   UNL     1      22.314  46.601  49.692  1.00  0.00     0.164 HD
HETATM    6  H   UNL     1      23.792  45.397  50.592  1.00  0.00     0.164 HD
ENDROOT
BRANCH   1   7
HETATM    7  C   UNL     1      22.580  48.349  48.555  1.00  0.00     0.162 C 
BRANCH   7   8
HETATM    8  C   UNL     1      21.085  48.532  48.592  1.00  0.00    -0.039 A 
HETATM    9  C   UNL     1      20.515  49.499  49.438  1.00  0.00     0.032 A 
HETATM   10  C   UNL     1      19.141  49.779  49.421  1.00  0.00     0.009 A 
HETATM   11  C   UNL     1      18.321  48.999  48.603  1.00  0.00     0.023 A 
HETATM   12  C   UNL     1      18.866  48.026  47.761  1.00  0.00     0.002 A 
HETATM   13  C   UNL     1      20.242  47.805  47.743  1.00  0.00     0.009 A 
BRANCH  10  14
HETATM   14  N   UNL     1      18.663  50.742  50.321  1.00  0.00    -0.289 NA
HETATM   15  H   UNL     1      17.875  50.337  50.826  1.00  0.00     0.128 HD
BRANCH  14  16
HETATM   16  C   UNL     1      18.319  52.084  49.823  1.00  0.00     0.052 C 
HETATM   17  C   UNL     1      16.833  52.170  49.468  1.00  0.00     0.026 C 
HETATM   18  C   UNL     1      19.155  52.359  48.571  1.00  0.00     0.026 C 
ENDBRANCH  14  16
ENDBRANCH  10  14
ENDBRANCH   7   8
ENDBRANCH   1   7
BRANCH   3  19
HETATM   19  C   UNL     1      25.694  45.765  51.401  1.00  0.00     0.152 C 
BRANCH  19  20
HETATM   20  C   UNL     1      25.711  44.761  52.574  1.00  0.00     0.255 C 
BRANCH  20  21
HETATM   21  N   UNL     1      27.073  44.558  53.182  1.00  0.00    -0.065 N 
HETATM   22  H   UNL     1      27.729  44.790  52.410  1.00  0.00     0.280 HD
HETATM   23  C   UNL     1      27.396  45.477  54.336  1.00  0.00     0.274 C 
HETATM   24  C   UNL     1      28.672  45.107  55.013  1.00  0.00    -0.019 A 
HETATM   25  C   UNL     1      29.319  43.912  54.766  1.00  0.00    -0.008 A 
HETATM   26  C   UNL     1      29.378  45.878  55.989  1.00  0.00     0.017 A 
HETATM   27  S   UNL     1      30.745  43.725  55.669  1.00  0.00    -0.106 SA
HETATM   28  C   UNL     1      28.848  42.881  53.793  1.00  0.00     0.074 C 
HETATM   29  C   UNL     1      30.519  45.242  56.428  1.00  0.00     0.051 A 
HETATM   30  C   UNL     1      27.354  43.095  53.496  1.00  0.00     0.240 C 
ENDBRANCH  20  21
ENDBRANCH  19  20
ENDBRANCH   3  19
TORSDOF 7
ENDMDL
MODEL 7
REMARK VINA RESULT:      -7.8      1.651      2.397
REMARK  7 active torsions:
REMARK  status: ('A' for Active; 'I' for Inactive)
REMARK    1  A    between atoms: C_2  and  N_3 
REMARK    2  A    between atoms: N_3  and  C_4 
REMARK    3  A    between atoms: C_6  and  C_7 
REMARK    4  A    between atoms: C_7  and  N_8 
REMARK       I    between atoms: N_8  and  C_9 
REMARK       I    between atoms: C_9  and  N_10 
REMARK    5  A    between atoms: N_10  and  C_11 
REMARK    6  A    between atoms: C_11  and  C_12 
REMARK    7  A    between atoms: C_12  and  N_13 
ROOT
HETATM    1  N   UNL     1      26.194  44.543  50.257  1.00  0.00    -0.339 N 
HETATM    2  C   UNL     1      25.197  45.388  50.628  1.00  0.00     0.316 C 
HETATM    3  N   UNL     1      25.261  46.590  49.979  1.00  0.00    -0.342 N 
HETATM    4  O   UNL     1      24.344  45.145  51.473  1.00  0.00    -0.248 OA
HETATM    5  H   UNL     1      27.003  44.918  49.789  1.00  0.00     0.164 HD
HETATM    6  H   UNL     1      25.877  46.591  49.176  1.00  0.00     0.164 HD
ENDROOT
BRANCH   1   7
HETATM    7  C   UNL     1      26.340  43.223  50.839  1.00  0.00     0.162 C 
BRANCH   7   8
HETATM    8  C   UNL     1      27.403  43.180  51.906  1.00  0.00    -0.039 A 
HETATM    9  C   UNL     1      27.302  44.012  53.035  1.00  0.00     0.032 A 
HETATM   10  C   UNL     1      28.207  43.923  54.102  1.00  0.00     0.009 A 
HETATM   11  C   UNL     1      29.286  43.046  53.979  1.00  0.00     0.023 A 
HETATM   12  C   UNL     1      29.411  42.216  52.862  1.00  0.00     0.002 A 
HETATM   13  C   UNL     1      28.466  42.270  51.838  1.00  0.00     0.009 A 
BRANCH  10  14
HETATM   14  N   UNL     1      28.039  44.815  55.171  1.00  0.00    -0.289 NA
HETATM   15  H   UNL     1      27.061  45.105  55.189  1.00  0.00     0.128 HD
BRANCH  14  16
HETATM   16  C   UNL     1      28.924  45.987  55.276  1.00  0.00     0.052 C 
HETATM   17  C   UNL     1      29.720  45.955  56.582  1.00  0.00     0.026 C 
HETATM   18  C   UNL     1      28.055  47.247  55.243  1.00  0.00     0.026 C 
ENDBRANCH  14  16
ENDBRANCH  10  14
ENDBRANCH   7   8
ENDBRANCH   1   7
BRANCH   3  19
HETATM   19  C   UNL     1      24.190  47.585  49.935  1.00  0.00     0.152 C 
BRANCH  19  20
HETATM   20  C   UNL     1      23.007  47.385  48.964  1.00  0.00     0.255 C 
BRANCH  20  21
HETATM   21  N   UNL     1      21.812  48.246  49.275  1.00  0.00    -0.065 N 
HETATM   22  H   UNL     1      21.847  48.359  50.307  1.00  0.00     0.280 HD
HETATM   23  C   UNL     1      21.854  49.630  48.672  1.00  0.00     0.274 C 
HETATM   24  C   UNL     1      20.569  50.366  48.856  1.00  0.00    -0.019 A 
HETATM   25  C   UNL     1      19.416  49.740  49.289  1.00  0.00    -0.008 A 
HETATM   26  C   UNL     1      20.334  51.754  48.605  1.00  0.00     0.017 A 
HETATM   27  S   UNL     1      18.089  50.793  49.408  1.00  0.00    -0.106 SA
HETATM   28  C   UNL     1      19.323  48.292  49.647  1.00  0.00     0.074 C 
HETATM   29  C   UNL     1      19.029  52.115  48.863  1.00  0.00     0.051 A 
HETATM   30  C   UNL     1      20.496  47.527  49.012  1.00  0.00     0.240 C 
ENDBRANCH  20  21
ENDBRANCH  19  20
ENDBRANCH   3  19
TORSDOF 7
ENDMDL
MODEL 8
REMARK VINA RESULT:      -7.6      1.547      1.993
REMARK  7 active torsions:
REMARK  status: ('A' for Active; 'I' for Inactive)
REMARK    1  A    between atoms: C_2  and  N_3 
REMARK    2  A    between atoms: N_3  and  C_4 
REMARK    3  A    between atoms: C_6  and  C_7 
REMARK    4  A    between atoms: C_7  and  N_8 
REMARK       I    between atoms: N_8  and  C_9 
REMARK       I    between atoms: C_9  and  N_10 
REMARK    5  A    between atoms: N_10  and  C_11 
REMARK    6  A    between atoms: C_11  and  C_12 
REMARK    7  A    between atoms: C_12  and  N_13 
ROOT
HETATM    1  N   UNL     1      25.623  45.202  49.822  1.00  0.00    -0.339 N 
HETATM    2  C   UNL     1      25.504  46.554  49.867  1.00  0.00     0.316 C 
HETATM    3  N   UNL     1      24.291  46.989  49.410  1.00  0.00    -0.342 N 
HETATM    4  O   UNL     1      26.381  47.327  50.233  1.00  0.00    -0.248 OA
HETATM    5  H   UNL     1      24.986  44.674  49.246  1.00  0.00     0.164 HD
HETATM    6  H   UNL     1      23.596  46.257  49.329  1.00  0.00     0.164 HD
ENDROOT
BRANCH   1   7
HETATM    7  C   UNL     1      26.837  44.521  50.230  1.00  0.00     0.162 C 
BRANCH   7   8
HETATM    8  C   UNL     1      26.875  44.253  51.712  1.00  0.00    -0.039 A 
HETATM    9  C   UNL     1      28.109  44.142  52.376  1.00  0.00     0.032 A 
HETATM   10  C   UNL     1      28.189  44.006  53.769  1.00  0.00     0.009 A 
HETATM   11  C   UNL     1      26.999  43.883  54.488  1.00  0.00     0.023 A 
HETATM   12  C   UNL     1      25.761  43.982  53.847  1.00  0.00     0.002 A 
HETATM   13  C   UNL     1      25.699  44.182  52.469  1.00  0.00     0.009 A 
BRANCH  10  14
HETATM   14  N   UNL     1      29.465  43.875  54.337  1.00  0.00    -0.289 NA
HETATM   15  H   UNL     1      29.729  42.891  54.295  1.00  0.00     0.128 HD
BRANCH  14  16
HETATM   16  C   UNL     1      29.712  44.416  55.684  1.00  0.00     0.052 C 
HETATM   17  C   UNL     1      29.608  45.943  55.687  1.00  0.00     0.026 C 
HETATM   18  C   UNL     1      31.122  44.003  56.114  1.00  0.00     0.026 C 
ENDBRANCH  14  16
ENDBRANCH  10  14
ENDBRANCH   7   8
ENDBRANCH   1   7
BRANCH   3  19
HETATM   19  C   UNL     1      23.749  48.333  49.599  1.00  0.00     0.152 C 
BRANCH  19  20
HETATM   20  C   UNL     1      22.872  48.961  48.493  1.00  0.00     0.255 C 
BRANCH  20  21
HETATM   21  N   UNL     1      21.594  49.572  49.004  1.00  0.00    -0.065 N 
HETATM   22  H   UNL     1      21.818  49.836  49.984  1.00  0.00     0.280 HD
HETATM   23  C   UNL     1      21.164  50.831  48.289  1.00  0.00     0.274 C 
HETATM   24  C   UNL     1      19.805  51.283  48.710  1.00  0.00    -0.019 A 
HETATM   25  C   UNL     1      18.962  50.486  49.459  1.00  0.00    -0.008 A 
HETATM   26  C   UNL     1      19.186  52.534  48.400  1.00  0.00     0.017 A 
HETATM   27  S   UNL     1      17.471  51.225  49.799  1.00  0.00    -0.106 SA
HETATM   28  C   UNL     1      19.308  49.120  49.955  1.00  0.00     0.074 C 
HETATM   29  C   UNL     1      17.917  52.631  48.930  1.00  0.00     0.051 A 
HETATM   30  C   UNL     1      20.473  48.550  49.128  1.00  0.00     0.240 C 
ENDBRANCH  20  21
ENDBRANCH  19  20
ENDBRANCH   3  19
TORSDOF 7
ENDMDL
MODEL 9
REMARK VINA RESULT:      -7.6      3.456     11.930
REMARK  7 active torsions:
REMARK  status: ('A' for Active; 'I' for Inactive)
REMARK    1  A    between atoms: C_2  and  N_3 
REMARK    2  A    between atoms: N_3  and  C_4 
REMARK    3  A    between atoms: C_6  and  C_7 
REMARK    4  A    between atoms: C_7  and  N_8 
REMARK       I    between atoms: N_8  and  C_9 
REMARK       I    between atoms: C_9  and  N_10 
REMARK    5  A    between atoms: N_10  and  C_11 
REMARK    6  A    between atoms: C_11  and  C_12 
REMARK    7  A    between atoms: C_12  and  N_13 
ROOT
HETATM    1  N   UNL     1      21.193  48.407  49.318  1.00  0.00    -0.339 N 
HETATM    2  C   UNL     1      22.484  48.184  48.959  1.00  0.00     0.316 C 
HETATM    3  N   UNL     1      23.295  47.955  50.036  1.00  0.00    -0.342 N 
HETATM    4  O   UNL     1      22.912  48.216  47.812  1.00  0.00    -0.248 OA
HETATM    5  H   UNL     1      20.986  48.650  50.274  1.00  0.00     0.164 HD
HETATM    6  H   UNL     1      22.793  47.759  50.893  1.00  0.00     0.164 HD
ENDROOT
BRANCH   1   7
HETATM    7  C   UNL     1      20.162  48.701  48.341  1.00  0.00     0.162 C 
BRANCH   7   8
HETATM    8  C   UNL     1      19.556  50.067  48.540  1.00  0.00    -0.039 A 
HETATM    9  C   UNL     1      18.941  50.728  47.462  1.00  0.00     0.032 A 
HETATM   10  C   UNL     1      18.268  51.946  47.629  1.00  0.00     0.009 A 
HETATM   11  C   UNL     1      18.303  52.550  48.888  1.00  0.00     0.023 A 
HETATM   12  C   UNL     1      18.917  51.915  49.971  1.00  0.00     0.002 A 
HETATM   13  C   UNL     1      19.525  50.673  49.802  1.00  0.00     0.009 A 
BRANCH  10  14
HETATM   14  N   UNL     1      17.710  52.541  46.489  1.00  0.00    -0.289 NA
HETATM   15  H   UNL     1      17.252  53.406  46.777  1.00  0.00     0.128 HD
BRANCH  14  16
HETATM   16  C   UNL     1      16.815  51.749  45.629  1.00  0.00     0.052 C 
HETATM   17  C   UNL     1      17.296  51.768  44.176  1.00  0.00     0.026 C 
HETATM   18  C   UNL     1      15.413  52.359  45.708  1.00  0.00     0.026 C 
ENDBRANCH  14  16
ENDBRANCH  10  14
ENDBRANCH   7   8
ENDBRANCH   1   7
BRANCH   3  19
HETATM   19  C   UNL     1      24.647  47.404  49.974  1.00  0.00     0.152 C 
BRANCH  19  20
HETATM   20  C   UNL     1      24.885  45.928  50.363  1.00  0.00     0.255 C 
BRANCH  20  21
HETATM   21  N   UNL     1      25.535  45.751  51.710  1.00  0.00    -0.065 N 
HETATM   22  H   UNL     1      24.782  45.348  52.300  1.00  0.00     0.280 HD
HETATM   23  C   UNL     1      26.691  44.780  51.732  1.00  0.00     0.274 C 
HETATM   24  C   UNL     1      27.409  44.787  53.040  1.00  0.00    -0.019 A 
HETATM   25  C   UNL     1      27.191  45.760  53.996  1.00  0.00    -0.008 A 
HETATM   26  C   UNL     1      28.400  43.853  53.477  1.00  0.00     0.017 A 
HETATM   27  S   UNL     1      28.138  45.551  55.390  1.00  0.00    -0.106 SA
HETATM   28  C   UNL     1      26.212  46.880  53.855  1.00  0.00     0.074 C 
HETATM   29  C   UNL     1      28.878  44.154  54.735  1.00  0.00     0.051 A 
HETATM   30  C   UNL     1      25.869  47.082  52.370  1.00  0.00     0.240 C 
ENDBRANCH  20  21
ENDBRANCH  19  20
ENDBRANCH   3  19
TORSDOF 7
ENDMDL
MODEL 10
REMARK VINA RESULT:      -7.5      3.767     11.727
REMARK  7 active torsions:
REMARK  status: ('A' for Active; 'I' for Inactive)
REMARK    1  A    between atoms: C_2  and  N_3 
REMARK    2  A    between atoms: N_3  and  C_4 
REMARK    3  A    between atoms: C_6  and  C_7 
REMARK    4  A    between atoms: C_7  and  N_8 
REMARK       I    between atoms: N_8  and  C_9 
REMARK       I    between atoms: C_9  and  N_10 
REMARK    5  A    between atoms: N_10  and  C_11 
REMARK    6  A    between atoms: C_11  and  C_12 
REMARK    7  A    between atoms: C_12  and  N_13 
ROOT
HETATM    1  N   UNL     1      23.533  47.917  49.878  1.00  0.00    -0.339 N 
HETATM    2  C   UNL     1      24.314  46.899  50.324  1.00  0.00     0.316 C 
HETATM    3  N   UNL     1      25.086  47.261  51.393  1.00  0.00    -0.342 N 
HETATM    4  O   UNL     1      24.371  45.783  49.823  1.00  0.00    -0.248 OA
HETATM    5  H   UNL     1      23.758  48.861  50.151  1.00  0.00     0.164 HD
HETATM    6  H   UNL     1      24.803  48.130  51.828  1.00  0.00     0.164 HD
ENDROOT
BRANCH   1   7
HETATM    7  C   UNL     1      22.654  47.769  48.734  1.00  0.00     0.162 C 
BRANCH   7   8
HETATM    8  C   UNL     1      21.795  48.987  48.508  1.00  0.00    -0.039 A 
HETATM    9  C   UNL     1      20.558  48.864  47.852  1.00  0.00     0.032 A 
HETATM   10  C   UNL     1      19.679  49.949  47.722  1.00  0.00     0.009 A 
HETATM   11  C   UNL     1      20.104  51.199  48.178  1.00  0.00     0.023 A 
HETATM   12  C   UNL     1      21.334  51.345  48.825  1.00  0.00     0.002 A 
HETATM   13  C   UNL     1      22.168  50.242  49.004  1.00  0.00     0.009 A 
BRANCH  10  14
HETATM   14  N   UNL     1      18.480  49.734  47.028  1.00  0.00    -0.289 NA
HETATM   15  H   UNL     1      17.908  49.093  47.578  1.00  0.00     0.128 HD
BRANCH  14  16
HETATM   16  C   UNL     1      18.531  49.299  45.622  1.00  0.00     0.052 C 
HETATM   17  C   UNL     1      18.446  50.498  44.676  1.00  0.00     0.026 C 
HETATM   18  C   UNL     1      17.343  48.367  45.368  1.00  0.00     0.026 C 
ENDBRANCH  14  16
ENDBRANCH  10  14
ENDBRANCH   7   8
ENDBRANCH   1   7
BRANCH   3  19
HETATM   19  C   UNL     1      25.801  46.336  52.271  1.00  0.00     0.152 C 
BRANCH  19  20
HETATM   20  C   UNL     1      26.222  46.801  53.682  1.00  0.00     0.255 C 
BRANCH  20  21
HETATM   21  N   UNL     1      27.506  46.182  54.168  1.00  0.00    -0.065 N 
HETATM   22  H   UNL     1      28.236  46.622  53.574  1.00  0.00     0.280 HD
HETATM   23  C   UNL     1      27.853  46.490  55.605  1.00  0.00     0.274 C 
HETATM   24  C   UNL     1      29.027  45.703  56.083  1.00  0.00    -0.019 A 
HETATM   25  C   UNL     1      29.545  44.641  55.368  1.00  0.00    -0.008 A 
HETATM   26  C   UNL     1      29.749  45.899  57.302  1.00  0.00     0.017 A 
HETATM   27  S   UNL     1      30.873  43.907  56.129  1.00  0.00    -0.106 SA
HETATM   28  C   UNL     1      29.025  44.179  54.046  1.00  0.00     0.074 C 
HETATM   29  C   UNL     1      30.774  44.990  57.451  1.00  0.00     0.051 A 
HETATM   30  C   UNL     1      27.591  44.697  53.844  1.00  0.00     0.240 C 
ENDBRANCH  20  21
ENDBRANCH  19  20
ENDBRANCH   3  19
TORSDOF 7
ENDMDL
