MODEL 1
REMARK VINA RESULT:      -8.7      0.000      0.000
REMARK  7 active torsions:
REMARK  status: ('A' for Active; 'I' for Inactive)
REMARK    1  A    between atoms: C_8  and  C_9 
REMARK    2  A    between atoms: C_9  and  C_10 
REMARK       I    between atoms: C_10  and  N_11 
REMARK    3  A    between atoms: N_11  and  C_12 
REMARK    4  A    between atoms: N_11  and  C_27 
REMARK    5  A    between atoms: C_12  and  C_13 
REMARK    6  A    between atoms: C_12  and  C_22 
REMARK       I    between atoms: C_13  and  N_14 
REMARK    7  A    between atoms: N_14  and  C_15 
ROOT
HETATM    1  C   UNL     1      28.611  48.963  41.605  1.00  0.00     0.229 C 
HETATM    2  N   UNL     1      28.103  48.362  40.448  1.00  0.00    -0.299 N 
HETATM    3  O   UNL     1      28.078  49.981  42.061  1.00  0.00    -0.273 OA
ENDROOT
BRANCH   2   4
HETATM    4  C   UNL     1      27.138  49.076  39.559  1.00  0.00     0.225 C 
BRANCH   4   5
HETATM    5  C   UNL     1      27.608  50.307  38.726  1.00  0.00     0.246 C 
HETATM    6  N   UNL     1      28.884  50.780  38.956  1.00  0.00    -0.354 N 
HETATM    7  H   UNL     1      29.569  50.061  39.186  1.00  0.00     0.162 HD
HETATM    8  O   UNL     1      26.854  50.863  37.922  1.00  0.00    -0.271 OA
BRANCH   6   9
HETATM    9  C   UNL     1      29.374  52.002  38.328  1.00  0.00     0.084 C 
HETATM   10  C   UNL     1      29.256  53.188  39.295  1.00  0.00     0.025 C 
HETATM   11  C   UNL     1      30.332  53.187  40.379  1.00  0.00     0.002 C 
HETATM   12  C   UNL     1      31.729  53.090  39.778  1.00  0.00     0.000 C 
HETATM   13  C   UNL     1      31.863  51.864  38.881  1.00  0.00     0.002 C 
HETATM   14  C   UNL     1      30.801  51.851  37.783  1.00  0.00     0.025 C 
ENDBRANCH   6   9
ENDBRANCH   4   5
BRANCH   4  15
HETATM   15  C   UNL     1      26.306  48.123  38.725  1.00  0.00     0.015 A 
HETATM   16  S   UNL     1      24.729  47.694  39.282  1.00  0.00    -0.104 SA
HETATM   17  C   UNL     1      24.441  46.690  37.935  1.00  0.00     0.050 A 
HETATM   18  C   UNL     1      25.512  46.669  37.072  1.00  0.00     0.008 A 
HETATM   19  C   UNL     1      26.579  47.502  37.520  1.00  0.00     0.017 A 
ENDBRANCH   4  15
ENDBRANCH   2   4
BRANCH   2  20
HETATM   20  C   UNL     1      28.293  46.978  40.151  1.00  0.00     0.041 A 
HETATM   21  C   UNL     1      27.514  46.010  40.800  1.00  0.00     0.069 A 
HETATM   22  C   UNL     1      27.741  44.684  40.496  1.00  0.00     0.107 A 
HETATM   23  C   UNL     1      28.706  44.301  39.595  1.00  0.00     0.105 A 
HETATM   24  O   UNL     1      27.070  43.624  41.020  1.00  0.00    -0.323 OA
HETATM   25  O   UNL     1      28.765  42.953  39.441  1.00  0.00    -0.323 OA
HETATM   26  C   UNL     1      29.502  45.223  38.950  1.00  0.00     0.042 A 
HETATM   27  C   UNL     1      27.730  42.528  40.353  1.00  0.00     0.352 A 
HETATM   28  C   UNL     1      29.295  46.576  39.237  1.00  0.00     0.032 A 
ENDBRANCH   2  20
BRANCH   1  29
HETATM   29  C   UNL     1      29.751  48.266  42.349  1.00  0.00     0.144 C 
BRANCH  29  30
HETATM   30  C   UNL     1      31.185  48.639  42.068  1.00  0.00    -0.021 A 
HETATM   31  C   UNL     1      32.023  49.735  42.483  1.00  0.00    -0.001 A 
HETATM   32  C   UNL     1      31.860  50.898  43.267  1.00  0.00     0.014 A 
HETATM   33  C   UNL     1      33.298  49.512  41.947  1.00  0.00     0.042 A 
HETATM   34  C   UNL     1      32.935  51.775  43.473  1.00  0.00     0.001 A 
HETATM   35  C   UNL     1      34.182  51.512  42.921  1.00  0.00     0.002 A 
HETATM   36  C   UNL     1      34.387  50.372  42.150  1.00  0.00     0.030 A 
HETATM   37  N   UNL     1      33.249  48.337  41.240  1.00  0.00    -0.365 N 
HETATM   38  H   UNL     1      34.036  47.926  40.758  1.00  0.00     0.165 HD
HETATM   39  C   UNL     1      31.997  47.806  41.307  1.00  0.00     0.097 A 
ENDBRANCH  29  30
ENDBRANCH   1  29
TORSDOF 7
ENDMDL
MODEL 2
REMARK VINA RESULT:      -8.6     10.804     12.873
REMARK  7 active torsions:
REMARK  status: ('A' for Active; 'I' for Inactive)
REMARK    1  A    between atoms: C_8  and  C_9 
REMARK    2  A    between atoms: C_9  and  C_10 
REMARK       I    between atoms: C_10  and  N_11 
REMARK    3  A    between atoms: N_11  and  C_12 
REMARK    4  A    between atoms: N_11  and  C_27 
REMARK    5  A    between atoms: C_12  and  C_13 
REMARK    6  A    between atoms: C_12  and  C_22 
REMARK       I    between atoms: C_13  and  N_14 
REMARK    7  A    between atoms: N_14  and  C_15 
ROOT
HETATM    1  C   UNL     1      25.431  43.972  52.249  1.00  0.00     0.229 C 
HETATM    2  N   UNL     1      25.885  43.516  51.007  1.00  0.00    -0.299 N 
HETATM    3  O   UNL     1      24.419  44.678  52.320  1.00  0.00    -0.273 OA
ENDROOT
BRANCH   2   4
HETATM    4  C   UNL     1      25.382  44.107  49.730  1.00  0.00     0.225 C 
BRANCH   4   5
HETATM    5  C   UNL     1      24.035  43.616  49.119  1.00  0.00     0.246 C 
HETATM    6  N   UNL     1      23.906  43.664  47.746  1.00  0.00    -0.354 N 
HETATM    7  H   UNL     1      24.766  43.480  47.231  1.00  0.00     0.162 HD
HETATM    8  O   UNL     1      23.105  43.239  49.838  1.00  0.00    -0.271 OA
BRANCH   6   9
HETATM    9  C   UNL     1      22.645  43.353  47.083  1.00  0.00     0.084 C 
HETATM   10  C   UNL     1      21.667  44.528  47.210  1.00  0.00     0.025 C 
HETATM   11  C   UNL     1      21.997  45.687  46.271  1.00  0.00     0.002 C 
HETATM   12  C   UNL     1      22.123  45.216  44.827  1.00  0.00     0.000 C 
HETATM   13  C   UNL     1      23.156  44.101  44.696  1.00  0.00     0.002 C 
HETATM   14  C   UNL     1      22.838  42.928  45.621  1.00  0.00     0.025 C 
ENDBRANCH   6   9
ENDBRANCH   4   5
BRANCH   4  15
HETATM   15  C   UNL     1      25.484  45.619  49.714  1.00  0.00     0.015 A 
HETATM   16  S   UNL     1      24.038  46.546  49.532  1.00  0.00    -0.104 SA
HETATM   17  C   UNL     1      24.883  48.024  49.608  1.00  0.00     0.050 A 
HETATM   18  C   UNL     1      26.236  47.835  49.765  1.00  0.00     0.008 A 
HETATM   19  C   UNL     1      26.580  46.453  49.838  1.00  0.00     0.017 A 
ENDBRANCH   4  15
ENDBRANCH   2   4
BRANCH   2  20
HETATM   20  C   UNL     1      26.677  42.338  50.860  1.00  0.00     0.041 A 
HETATM   21  C   UNL     1      26.163  41.229  50.172  1.00  0.00     0.069 A 
HETATM   22  C   UNL     1      26.955  40.106  50.068  1.00  0.00     0.107 A 
HETATM   23  C   UNL     1      28.211  40.048  50.626  1.00  0.00     0.105 A 
HETATM   24  O   UNL     1      26.619  38.955  49.428  1.00  0.00    -0.323 OA
HETATM   25  O   UNL     1      28.820  38.854  50.407  1.00  0.00    -0.323 OA
HETATM   26  C   UNL     1      28.744  41.111  51.322  1.00  0.00     0.042 A 
HETATM   27  C   UNL     1      27.803  38.162  49.653  1.00  0.00     0.352 A 
HETATM   28  C   UNL     1      27.964  42.266  51.444  1.00  0.00     0.032 A 
ENDBRANCH   2  20
BRANCH   1  29
HETATM   29  C   UNL     1      26.140  43.478  53.510  1.00  0.00     0.144 C 
BRANCH  29  30
HETATM   30  C   UNL     1      27.101  44.376  54.247  1.00  0.00    -0.021 A 
HETATM   31  C   UNL     1      28.443  44.196  54.742  1.00  0.00    -0.001 A 
HETATM   32  C   UNL     1      29.378  43.140  54.780  1.00  0.00     0.014 A 
HETATM   33  C   UNL     1      28.851  45.418  55.294  1.00  0.00     0.042 A 
HETATM   34  C   UNL     1      30.642  43.327  55.359  1.00  0.00     0.001 A 
HETATM   35  C   UNL     1      31.003  44.557  55.895  1.00  0.00     0.002 A 
HETATM   36  C   UNL     1      30.112  45.628  55.869  1.00  0.00     0.030 A 
HETATM   37  N   UNL     1      27.815  46.305  55.145  1.00  0.00    -0.365 N 
HETATM   38  H   UNL     1      27.840  47.270  55.444  1.00  0.00     0.165 HD
HETATM   39  C   UNL     1      26.769  45.697  54.520  1.00  0.00     0.097 A 
ENDBRANCH  29  30
ENDBRANCH   1  29
TORSDOF 7
ENDMDL
MODEL 3
REMARK VINA RESULT:      -8.1     25.442     28.215
REMARK  7 active torsions:
REMARK  status: ('A' for Active; 'I' for Inactive)
REMARK    1  A    between atoms: C_8  and  C_9 
REMARK    2  A    between atoms: C_9  and  C_10 
REMARK       I    between atoms: C_10  and  N_11 
REMARK    3  A    between atoms: N_11  and  C_12 
REMARK    4  A    between atoms: N_11  and  C_27 
REMARK    5  A    between atoms: C_12  and  C_13 
REMARK    6  A    between atoms: C_12  and  C_22 
REMARK       I    between atoms: C_13  and  N_14 
REMARK    7  A    between atoms: N_14  and  C_15 
ROOT
HETATM    1  C   UNL     1      39.091  46.016  67.201  1.00  0.00     0.229 C 
HETATM    2  N   UNL     1      38.124  46.870  66.659  1.00  0.00    -0.299 N 
HETATM    3  O   UNL     1      39.094  44.816  66.908  1.00  0.00    -0.273 OA
ENDROOT
BRANCH   2   4
HETATM    4  C   UNL     1      36.902  46.334  65.987  1.00  0.00     0.225 C 
BRANCH   4   5
HETATM    5  C   UNL     1      37.006  45.696  64.569  1.00  0.00     0.246 C 
HETATM    6  N   UNL     1      37.708  44.513  64.456  1.00  0.00    -0.354 N 
HETATM    7  H   UNL     1      37.630  43.893  65.261  1.00  0.00     0.162 HD
HETATM    8  O   UNL     1      36.515  46.247  63.580  1.00  0.00    -0.271 OA
BRANCH   6   9
HETATM    9  C   UNL     1      37.976  43.902  63.159  1.00  0.00     0.084 C 
HETATM   10  C   UNL     1      39.477  43.946  62.844  1.00  0.00     0.025 C 
HETATM   11  C   UNL     1      40.284  42.907  63.620  1.00  0.00     0.002 C 
HETATM   12  C   UNL     1      39.713  41.506  63.433  1.00  0.00     0.000 C 
HETATM   13  C   UNL     1      38.240  41.451  63.825  1.00  0.00     0.002 C 
HETATM   14  C   UNL     1      37.414  42.478  63.052  1.00  0.00     0.025 C 
ENDBRANCH   6   9
ENDBRANCH   4   5
BRANCH   4  15
HETATM   15  C   UNL     1      36.054  45.490  66.918  1.00  0.00     0.015 A 
HETATM   16  S   UNL     1      35.838  46.016  68.548  1.00  0.00    -0.104 SA
HETATM   17  C   UNL     1      34.854  44.679  68.932  1.00  0.00     0.050 A 
HETATM   18  C   UNL     1      34.684  43.840  67.855  1.00  0.00     0.008 A 
HETATM   19  C   UNL     1      35.364  44.313  66.694  1.00  0.00     0.017 A 
ENDBRANCH   4  15
ENDBRANCH   2   4
BRANCH   2  20
HETATM   20  C   UNL     1      38.330  48.275  66.515  1.00  0.00     0.041 A 
HETATM   21  C   UNL     1      37.599  49.175  67.304  1.00  0.00     0.069 A 
HETATM   22  C   UNL     1      37.817  50.523  67.121  1.00  0.00     0.107 A 
HETATM   23  C   UNL     1      38.711  50.995  66.189  1.00  0.00     0.105 A 
HETATM   24  O   UNL     1      37.206  51.526  67.808  1.00  0.00    -0.323 OA
HETATM   25  O   UNL     1      38.773  52.352  66.171  1.00  0.00    -0.323 OA
HETATM   26  C   UNL     1      39.435  50.143  65.385  1.00  0.00     0.042 A 
HETATM   27  C   UNL     1      37.812  52.683  67.195  1.00  0.00     0.352 A 
HETATM   28  C   UNL     1      39.237  48.768  65.548  1.00  0.00     0.032 A 
ENDBRANCH   2  20
BRANCH   1  29
HETATM   29  C   UNL     1      40.201  46.624  68.058  1.00  0.00     0.144 C 
BRANCH  29  30
HETATM   30  C   UNL     1      41.556  46.909  67.461  1.00  0.00    -0.021 A 
HETATM   31  C   UNL     1      42.200  46.516  66.233  1.00  0.00    -0.001 A 
HETATM   32  C   UNL     1      41.868  45.706  65.127  1.00  0.00     0.014 A 
HETATM   33  C   UNL     1      43.452  47.146  66.199  1.00  0.00     0.042 A 
HETATM   34  C   UNL     1      42.770  45.546  64.064  1.00  0.00     0.001 A 
HETATM   35  C   UNL     1      44.001  46.190  64.073  1.00  0.00     0.002 A 
HETATM   36  C   UNL     1      44.363  47.006  65.142  1.00  0.00     0.030 A 
HETATM   37  N   UNL     1      43.572  47.890  67.345  1.00  0.00    -0.365 N 
HETATM   38  H   UNL     1      44.373  48.460  67.577  1.00  0.00     0.165 HD
HETATM   39  C   UNL     1      42.449  47.759  68.104  1.00  0.00     0.097 A 
ENDBRANCH  29  30
ENDBRANCH   1  29
TORSDOF 7
ENDMDL
MODEL 4
REMARK VINA RESULT:      -7.9     11.503     14.033
REMARK  7 active torsions:
REMARK  status: ('A' for Active; 'I' for Inactive)
REMARK    1  A    between atoms: C_8  and  C_9 
REMARK    2  A    between atoms: C_9  and  C_10 
REMARK       I    between atoms: C_10  and  N_11 
REMARK    3  A    between atoms: N_11  and  C_12 
REMARK    4  A    between atoms: N_11  and  C_27 
REMARK    5  A    between atoms: C_12  and  C_13 
REMARK    6  A    between atoms: C_12  and  C_22 
REMARK       I    between atoms: C_13  and  N_14 
REMARK    7  A    between atoms: N_14  and  C_15 
ROOT
HETATM    1  C   UNL     1      17.607  49.469  48.575  1.00  0.00     0.229 C 
HETATM    2  N   UNL     1      18.384  50.627  48.461  1.00  0.00    -0.299 N 
HETATM    3  O   UNL     1      16.550  49.365  47.943  1.00  0.00    -0.273 OA
ENDROOT
BRANCH   2   4
HETATM    4  C   UNL     1      17.835  51.876  47.852  1.00  0.00     0.225 C 
BRANCH   4   5
HETATM    5  C   UNL     1      17.532  51.933  46.324  1.00  0.00     0.246 C 
HETATM    6  N   UNL     1      17.278  50.737  45.683  1.00  0.00    -0.354 N 
HETATM    7  H   UNL     1      16.786  50.047  46.248  1.00  0.00     0.162 HD
HETATM    8  O   UNL     1      17.559  53.000  45.704  1.00  0.00    -0.271 OA
BRANCH   6   9
HETATM    9  C   UNL     1      17.113  50.664  44.236  1.00  0.00     0.084 C 
HETATM   10  C   UNL     1      18.352  50.033  43.585  1.00  0.00     0.025 C 
HETATM   11  C   UNL     1      18.416  48.518  43.761  1.00  0.00     0.002 C 
HETATM   12  C   UNL     1      17.132  47.846  43.289  1.00  0.00     0.000 C 
HETATM   13  C   UNL     1      15.912  48.423  44.000  1.00  0.00     0.002 C 
HETATM   14  C   UNL     1      15.824  49.938  43.827  1.00  0.00     0.025 C 
ENDBRANCH   6   9
ENDBRANCH   4   5
BRANCH   4  15
HETATM   15  C   UNL     1      16.702  52.466  48.667  1.00  0.00     0.015 A 
HETATM   16  S   UNL     1      15.187  52.758  47.892  1.00  0.00    -0.104 SA
HETATM   17  C   UNL     1      14.483  53.363  49.321  1.00  0.00     0.050 A 
HETATM   18  C   UNL     1      15.367  53.352  50.374  1.00  0.00     0.008 A 
HETATM   19  C   UNL     1      16.639  52.825  50.001  1.00  0.00     0.017 A 
ENDBRANCH   4  15
ENDBRANCH   2   4
BRANCH   2  20
HETATM   20  C   UNL     1      19.790  50.640  48.710  1.00  0.00     0.041 A 
HETATM   21  C   UNL     1      20.689  50.381  47.665  1.00  0.00     0.069 A 
HETATM   22  C   UNL     1      22.037  50.387  47.952  1.00  0.00     0.107 A 
HETATM   23  C   UNL     1      22.508  50.625  49.222  1.00  0.00     0.105 A 
HETATM   24  O   UNL     1      23.039  50.169  47.059  1.00  0.00    -0.323 OA
HETATM   25  O   UNL     1      23.864  50.586  49.287  1.00  0.00    -0.323 OA
HETATM   26  C   UNL     1      21.655  50.868  50.277  1.00  0.00     0.042 A 
HETATM   27  C   UNL     1      24.195  50.289  47.914  1.00  0.00     0.352 A 
HETATM   28  C   UNL     1      20.281  50.869  50.016  1.00  0.00     0.032 A 
ENDBRANCH   2  20
BRANCH   1  29
HETATM   29  C   UNL     1      18.154  48.302  49.397  1.00  0.00     0.144 C 
BRANCH  29  30
HETATM   30  C   UNL     1      18.630  47.044  48.714  1.00  0.00    -0.021 A 
HETATM   31  C   UNL     1      19.934  46.535  48.373  1.00  0.00    -0.001 A 
HETATM   32  C   UNL     1      21.265  46.987  48.495  1.00  0.00     0.014 A 
HETATM   33  C   UNL     1      19.750  45.271  47.796  1.00  0.00     0.042 A 
HETATM   34  C   UNL     1      22.331  46.197  48.042  1.00  0.00     0.001 A 
HETATM   35  C   UNL     1      22.101  44.950  47.475  1.00  0.00     0.002 A 
HETATM   36  C   UNL     1      20.803  44.462  47.345  1.00  0.00     0.030 A 
HETATM   37  N   UNL     1      18.402  45.014  47.784  1.00  0.00    -0.365 N 
HETATM   38  H   UNL     1      17.984  44.164  47.433  1.00  0.00     0.165 HD
HETATM   39  C   UNL     1      17.725  46.062  48.330  1.00  0.00     0.097 A 
ENDBRANCH  29  30
ENDBRANCH   1  29
TORSDOF 7
ENDMDL
MODEL 5
REMARK VINA RESULT:      -7.9     10.800     13.023
REMARK  7 active torsions:
REMARK  status: ('A' for Active; 'I' for Inactive)
REMARK    1  A    between atoms: C_8  and  C_9 
REMARK    2  A    between atoms: C_9  and  C_10 
REMARK       I    between atoms: C_10  and  N_11 
REMARK    3  A    between atoms: N_11  and  C_12 
REMARK    4  A    between atoms: N_11  and  C_27 
REMARK    5  A    between atoms: C_12  and  C_13 
REMARK    6  A    between atoms: C_12  and  C_22 
REMARK       I    between atoms: C_13  and  N_14 
REMARK    7  A    between atoms: N_14  and  C_15 
ROOT
HETATM    1  C   UNL     1      21.393  47.300  48.240  1.00  0.00     0.229 C 
HETATM    2  N   UNL     1      20.048  47.633  48.042  1.00  0.00    -0.299 N 
HETATM    3  O   UNL     1      21.866  46.287  47.714  1.00  0.00    -0.273 OA
ENDROOT
BRANCH   2   4
HETATM    4  C   UNL     1      19.077  46.647  47.479  1.00  0.00     0.225 C 
BRANCH   4   5
HETATM    5  C   UNL     1      17.546  46.854  47.687  1.00  0.00     0.246 C 
HETATM    6  N   UNL     1      16.883  47.650  46.775  1.00  0.00    -0.354 N 
HETATM    7  H   UNL     1      17.239  47.592  45.822  1.00  0.00     0.162 HD
HETATM    8  O   UNL     1      16.957  46.357  48.652  1.00  0.00    -0.271 OA
BRANCH   6   9
HETATM    9  C   UNL     1      15.482  48.013  46.951  1.00  0.00     0.084 C 
HETATM   10  C   UNL     1      15.363  49.388  47.623  1.00  0.00     0.025 C 
HETATM   11  C   UNL     1      15.655  50.547  46.674  1.00  0.00     0.002 C 
HETATM   12  C   UNL     1      14.802  50.464  45.413  1.00  0.00     0.000 C 
HETATM   13  C   UNL     1      14.986  49.125  44.706  1.00  0.00     0.002 C 
HETATM   14  C   UNL     1      14.690  47.952  45.638  1.00  0.00     0.025 C 
ENDBRANCH   6   9
ENDBRANCH   4   5
BRANCH   4  15
HETATM   15  C   UNL     1      19.400  46.271  46.047  1.00  0.00     0.015 A 
HETATM   16  S   UNL     1      19.350  44.605  45.596  1.00  0.00    -0.104 SA
HETATM   17  C   UNL     1      19.781  44.948  43.984  1.00  0.00     0.050 A 
HETATM   18  C   UNL     1      19.965  46.295  43.776  1.00  0.00     0.008 A 
HETATM   19  C   UNL     1      19.734  47.057  44.959  1.00  0.00     0.017 A 
ENDBRANCH   4  15
ENDBRANCH   2   4
BRANCH   2  20
HETATM   20  C   UNL     1      19.561  48.971  48.153  1.00  0.00     0.041 A 
HETATM   21  C   UNL     1      18.855  49.365  49.299  1.00  0.00     0.069 A 
HETATM   22  C   UNL     1      18.388  50.661  49.358  1.00  0.00     0.107 A 
HETATM   23  C   UNL     1      18.587  51.553  48.331  1.00  0.00     0.105 A 
HETATM   24  O   UNL     1      17.700  51.209  50.395  1.00  0.00    -0.323 OA
HETATM   25  O   UNL     1      18.048  52.772  48.591  1.00  0.00    -0.323 OA
HETATM   26  C   UNL     1      19.262  51.197  47.183  1.00  0.00     0.042 A 
HETATM   27  C   UNL     1      17.481  52.546  49.899  1.00  0.00     0.352 A 
HETATM   28  C   UNL     1      19.749  49.889  47.094  1.00  0.00     0.032 A 
ENDBRANCH   2  20
BRANCH   1  29
HETATM   29  C   UNL     1      22.279  48.275  49.014  1.00  0.00     0.144 C 
BRANCH  29  30
HETATM   30  C   UNL     1      23.721  47.937  49.297  1.00  0.00    -0.021 A 
HETATM   31  C   UNL     1      24.966  48.620  49.053  1.00  0.00    -0.001 A 
HETATM   32  C   UNL     1      25.356  49.830  48.440  1.00  0.00     0.014 A 
HETATM   33  C   UNL     1      25.989  47.833  49.599  1.00  0.00     0.042 A 
HETATM   34  C   UNL     1      26.709  50.197  48.383  1.00  0.00     0.001 A 
HETATM   35  C   UNL     1      27.689  49.384  48.938  1.00  0.00     0.002 A 
HETATM   36  C   UNL     1      27.345  48.187  49.560  1.00  0.00     0.030 A 
HETATM   37  N   UNL     1      25.404  46.723  50.153  1.00  0.00    -0.365 N 
HETATM   38  H   UNL     1      25.908  45.988  50.629  1.00  0.00     0.165 HD
HETATM   39  C   UNL     1      24.054  46.774  49.982  1.00  0.00     0.097 A 
ENDBRANCH  29  30
ENDBRANCH   1  29
TORSDOF 7
ENDMDL
MODEL 6
REMARK VINA RESULT:      -7.8     11.394     14.163
REMARK  7 active torsions:
REMARK  status: ('A' for Active; 'I' for Inactive)
REMARK    1  A    between atoms: C_8  and  C_9 
REMARK    2  A    between atoms: C_9  and  C_10 
REMARK       I    between atoms: C_10  and  N_11 
REMARK    3  A    between atoms: N_11  and  C_12 
REMARK    4  A    between atoms: N_11  and  C_27 
REMARK    5  A    between atoms: C_12  and  C_13 
REMARK    6  A    between atoms: C_12  and  C_22 
REMARK       I    between atoms: C_13  and  N_14 
REMARK    7  A    between atoms: N_14  and  C_15 
ROOT
HETATM    1  C   UNL     1      17.821  49.323  48.455  1.00  0.00     0.229 C 
HETATM    2  N   UNL     1      18.576  50.497  48.354  1.00  0.00    -0.299 N 
HETATM    3  O   UNL     1      16.782  49.194  47.800  1.00  0.00    -0.273 OA
ENDROOT
BRANCH   2   4
HETATM    4  C   UNL     1      18.014  51.732  47.728  1.00  0.00     0.225 C 
BRANCH   4   5
HETATM    5  C   UNL     1      17.660  51.746  46.210  1.00  0.00     0.246 C 
HETATM    6  N   UNL     1      17.598  50.529  45.561  1.00  0.00    -0.354 N 
HETATM    7  H   UNL     1      17.250  49.760  46.132  1.00  0.00     0.162 HD
HETATM    8  O   UNL     1      17.482  52.806  45.603  1.00  0.00    -0.271 OA
BRANCH   6   9
HETATM    9  C   UNL     1      17.405  50.440  44.118  1.00  0.00     0.084 C 
HETATM   10  C   UNL     1      18.449  49.505  43.493  1.00  0.00     0.025 C 
HETATM   11  C   UNL     1      18.150  48.027  43.733  1.00  0.00     0.002 C 
HETATM   12  C   UNL     1      16.737  47.664  43.290  1.00  0.00     0.000 C 
HETATM   13  C   UNL     1      15.698  48.545  43.977  1.00  0.00     0.002 C 
HETATM   14  C   UNL     1      15.974  50.028  43.742  1.00  0.00     0.025 C 
ENDBRANCH   6   9
ENDBRANCH   4   5
BRANCH   4  15
HETATM   15  C   UNL     1      16.913  52.353  48.563  1.00  0.00     0.015 A 
HETATM   16  S   UNL     1      15.337  52.509  47.875  1.00  0.00    -0.104 SA
HETATM   17  C   UNL     1      14.705  53.221  49.287  1.00  0.00     0.050 A 
HETATM   18  C   UNL     1      15.658  53.347  50.271  1.00  0.00     0.008 A 
HETATM   19  C   UNL     1      16.925  52.837  49.859  1.00  0.00     0.017 A 
ENDBRANCH   4  15
ENDBRANCH   2   4
BRANCH   2  20
HETATM   20  C   UNL     1      19.976  50.541  48.634  1.00  0.00     0.041 A 
HETATM   21  C   UNL     1      20.900  50.175  47.645  1.00  0.00     0.069 A 
HETATM   22  C   UNL     1      22.240  50.216  47.963  1.00  0.00     0.107 A 
HETATM   23  C   UNL     1      22.680  50.589  49.211  1.00  0.00     0.105 A 
HETATM   24  O   UNL     1      23.264  49.908  47.123  1.00  0.00    -0.323 OA
HETATM   25  O   UNL     1      24.034  50.562  49.313  1.00  0.00    -0.323 OA
HETATM   26  C   UNL     1      21.801  50.941  50.213  1.00  0.00     0.042 A 
HETATM   27  C   UNL     1      24.399  50.122  47.988  1.00  0.00     0.352 A 
HETATM   28  C   UNL     1      20.434  50.910  49.920  1.00  0.00     0.032 A 
ENDBRANCH   2  20
BRANCH   1  29
HETATM   29  C   UNL     1      18.375  48.171  49.293  1.00  0.00     0.144 C 
BRANCH  29  30
HETATM   30  C   UNL     1      19.048  46.997  48.628  1.00  0.00    -0.021 A 
HETATM   31  C   UNL     1      18.638  46.071  47.603  1.00  0.00    -0.001 A 
HETATM   32  C   UNL     1      17.471  45.852  46.840  1.00  0.00     0.014 A 
HETATM   33  C   UNL     1      19.724  45.222  47.348  1.00  0.00     0.042 A 
HETATM   34  C   UNL     1      17.423  44.821  45.890  1.00  0.00     0.001 A 
HETATM   35  C   UNL     1      18.525  44.003  45.673  1.00  0.00     0.002 A 
HETATM   36  C   UNL     1      19.699  44.192  46.397  1.00  0.00     0.030 A 
HETATM   37  N   UNL     1      20.751  45.607  48.173  1.00  0.00    -0.365 N 
HETATM   38  H   UNL     1      21.663  45.173  48.192  1.00  0.00     0.165 HD
HETATM   39  C   UNL     1      20.362  46.664  48.937  1.00  0.00     0.097 A 
ENDBRANCH  29  30
ENDBRANCH   1  29
TORSDOF 7
ENDMDL
MODEL 7
REMARK VINA RESULT:      -7.7     10.209     12.820
REMARK  7 active torsions:
REMARK  status: ('A' for Active; 'I' for Inactive)
REMARK    1  A    between atoms: C_8  and  C_9 
REMARK    2  A    between atoms: C_9  and  C_10 
REMARK       I    between atoms: C_10  and  N_11 
REMARK    3  A    between atoms: N_11  and  C_12 
REMARK    4  A    between atoms: N_11  and  C_27 
REMARK    5  A    between atoms: C_12  and  C_13 
REMARK    6  A    between atoms: C_12  and  C_22 
REMARK       I    between atoms: C_13  and  N_14 
REMARK    7  A    between atoms: N_14  and  C_15 
ROOT
HETATM    1  C   UNL     1      21.588  47.216  47.818  1.00  0.00     0.229 C 
HETATM    2  N   UNL     1      20.203  47.417  47.775  1.00  0.00    -0.299 N 
HETATM    3  O   UNL     1      22.158  46.622  46.897  1.00  0.00    -0.273 OA
ENDROOT
BRANCH   2   4
HETATM    4  C   UNL     1      19.338  46.666  46.816  1.00  0.00     0.225 C 
BRANCH   4   5
HETATM    5  C   UNL     1      19.287  45.109  46.864  1.00  0.00     0.246 C 
HETATM    6  N   UNL     1      19.767  44.424  45.766  1.00  0.00    -0.354 N 
HETATM    7  H   UNL     1      20.556  44.868  45.299  1.00  0.00     0.162 HD
HETATM    8  O   UNL     1      18.799  44.513  47.829  1.00  0.00    -0.271 OA
BRANCH   6   9
HETATM    9  C   UNL     1      19.645  42.975  45.654  1.00  0.00     0.084 C 
HETATM   10  C   UNL     1      19.122  42.586  44.265  1.00  0.00     0.025 C 
HETATM   11  C   UNL     1      20.185  42.688  43.173  1.00  0.00     0.002 C 
HETATM   12  C   UNL     1      21.439  41.903  43.540  1.00  0.00     0.000 C 
HETATM   13  C   UNL     1      21.999  42.351  44.886  1.00  0.00     0.002 C 
HETATM   14  C   UNL     1      20.953  42.247  45.994  1.00  0.00     0.025 C 
ENDBRANCH   6   9
ENDBRANCH   4   5
BRANCH   4  15
HETATM   15  C   UNL     1      17.952  47.267  46.697  1.00  0.00     0.015 A 
HETATM   16  S   UNL     1      17.576  48.217  45.306  1.00  0.00    -0.104 SA
HETATM   17  C   UNL     1      15.985  48.511  45.839  1.00  0.00     0.050 A 
HETATM   18  C   UNL     1      15.728  47.908  47.048  1.00  0.00     0.008 A 
HETATM   19  C   UNL     1      16.855  47.183  47.536  1.00  0.00     0.017 A 
ENDBRANCH   4  15
ENDBRANCH   2   4
BRANCH   2  20
HETATM   20  C   UNL     1      19.556  48.481  48.473  1.00  0.00     0.041 A 
HETATM   21  C   UNL     1      19.458  49.748  47.881  1.00  0.00     0.069 A 
HETATM   22  C   UNL     1      18.840  50.752  48.597  1.00  0.00     0.107 A 
HETATM   23  C   UNL     1      18.339  50.541  49.859  1.00  0.00     0.105 A 
HETATM   24  O   UNL     1      18.649  52.028  48.169  1.00  0.00    -0.323 OA
HETATM   25  O   UNL     1      17.771  51.657  50.385  1.00  0.00    -0.323 OA
HETATM   26  C   UNL     1      18.430  49.314  50.479  1.00  0.00     0.042 A 
HETATM   27  C   UNL     1      17.978  52.600  49.311  1.00  0.00     0.352 A 
HETATM   28  C   UNL     1      19.051  48.275  49.778  1.00  0.00     0.032 A 
ENDBRANCH   2  20
BRANCH   1  29
HETATM   29  C   UNL     1      22.381  47.851  48.960  1.00  0.00     0.144 C 
BRANCH  29  30
HETATM   30  C   UNL     1      23.546  48.762  48.666  1.00  0.00    -0.021 A 
HETATM   31  C   UNL     1      24.954  48.700  48.970  1.00  0.00    -0.001 A 
HETATM   32  C   UNL     1      25.803  47.817  49.670  1.00  0.00     0.014 A 
HETATM   33  C   UNL     1      25.558  49.817  48.378  1.00  0.00     0.042 A 
HETATM   34  C   UNL     1      27.178  48.075  49.765  1.00  0.00     0.001 A 
HETATM   35  C   UNL     1      27.734  49.197  49.162  1.00  0.00     0.002 A 
HETATM   36  C   UNL     1      26.932  50.088  48.453  1.00  0.00     0.030 A 
HETATM   37  N   UNL     1      24.575  50.530  47.741  1.00  0.00    -0.365 N 
HETATM   38  H   UNL     1      24.731  51.380  47.218  1.00  0.00     0.165 HD
HETATM   39  C   UNL     1      23.373  49.911  47.903  1.00  0.00     0.097 A 
ENDBRANCH  29  30
ENDBRANCH   1  29
TORSDOF 7
ENDMDL
MODEL 8
REMARK VINA RESULT:      -7.7     10.927     13.346
REMARK  7 active torsions:
REMARK  status: ('A' for Active; 'I' for Inactive)
REMARK    1  A    between atoms: C_8  and  C_9 
REMARK    2  A    between atoms: C_9  and  C_10 
REMARK       I    between atoms: C_10  and  N_11 
REMARK    3  A    between atoms: N_11  and  C_12 
REMARK    4  A    between atoms: N_11  and  C_27 
REMARK    5  A    between atoms: C_12  and  C_13 
REMARK    6  A    between atoms: C_12  and  C_22 
REMARK       I    between atoms: C_13  and  N_14 
REMARK    7  A    between atoms: N_14  and  C_15 
ROOT
HETATM    1  C   UNL     1      18.533  47.191  48.604  1.00  0.00     0.229 C 
HETATM    2  N   UNL     1      19.558  47.212  47.652  1.00  0.00    -0.299 N 
HETATM    3  O   UNL     1      17.562  46.441  48.455  1.00  0.00    -0.273 OA
ENDROOT
BRANCH   2   4
HETATM    4  C   UNL     1      19.378  46.598  46.301  1.00  0.00     0.225 C 
BRANCH   4   5
HETATM    5  C   UNL     1      19.013  47.493  45.079  1.00  0.00     0.246 C 
HETATM    6  N   UNL     1      18.434  48.718  45.340  1.00  0.00    -0.354 N 
HETATM    7  H   UNL     1      18.763  49.172  46.190  1.00  0.00     0.162 HD
HETATM    8  O   UNL     1      19.198  47.104  43.922  1.00  0.00    -0.271 OA
BRANCH   6   9
HETATM    9  C   UNL     1      17.935  49.574  44.269  1.00  0.00     0.084 C 
HETATM   10  C   UNL     1      16.412  49.443  44.141  1.00  0.00     0.025 C 
HETATM   11  C   UNL     1      15.652  50.189  45.236  1.00  0.00     0.002 C 
HETATM   12  C   UNL     1      16.083  51.648  45.319  1.00  0.00     0.000 C 
HETATM   13  C   UNL     1      17.590  51.769  45.527  1.00  0.00     0.002 C 
HETATM   14  C   UNL     1      18.368  51.037  44.436  1.00  0.00     0.025 C 
ENDBRANCH   6   9
ENDBRANCH   4   5
BRANCH   4  15
HETATM   15  C   UNL     1      20.480  45.614  45.963  1.00  0.00     0.015 A 
HETATM   16  S   UNL     1      20.334  43.984  46.513  1.00  0.00    -0.104 SA
HETATM   17  C   UNL     1      21.814  43.529  45.802  1.00  0.00     0.050 A 
HETATM   18  C   UNL     1      22.421  44.581  45.159  1.00  0.00     0.008 A 
HETATM   19  C   UNL     1      21.648  45.778  45.241  1.00  0.00     0.017 A 
ENDBRANCH   4  15
ENDBRANCH   2   4
BRANCH   2  20
HETATM   20  C   UNL     1      20.892  47.617  47.962  1.00  0.00     0.041 A 
HETATM   21  C   UNL     1      21.399  48.816  47.442  1.00  0.00     0.069 A 
HETATM   22  C   UNL     1      22.697  49.160  47.754  1.00  0.00     0.107 A 
HETATM   23  C   UNL     1      23.492  48.360  48.540  1.00  0.00     0.105 A 
HETATM   24  O   UNL     1      23.338  50.288  47.346  1.00  0.00    -0.323 OA
HETATM   25  O   UNL     1      24.732  48.883  48.724  1.00  0.00    -0.323 OA
HETATM   26  C   UNL     1      23.033  47.168  49.057  1.00  0.00     0.042 A 
HETATM   27  C   UNL     1      24.631  50.102  47.959  1.00  0.00     0.352 A 
HETATM   28  C   UNL     1      21.720  46.792  48.759  1.00  0.00     0.032 A 
ENDBRANCH   2  20
BRANCH   1  29
HETATM   29  C   UNL     1      18.704  48.020  49.877  1.00  0.00     0.144 C 
BRANCH  29  30
HETATM   30  C   UNL     1      18.627  49.525  49.824  1.00  0.00    -0.021 A 
HETATM   31  C   UNL     1      17.587  50.451  49.453  1.00  0.00    -0.001 A 
HETATM   32  C   UNL     1      16.265  50.352  48.969  1.00  0.00     0.014 A 
HETATM   33  C   UNL     1      18.083  51.743  49.667  1.00  0.00     0.042 A 
HETATM   34  C   UNL     1      15.511  51.506  48.710  1.00  0.00     0.001 A 
HETATM   35  C   UNL     1      16.046  52.769  48.937  1.00  0.00     0.002 A 
HETATM   36  C   UNL     1      17.343  52.909  49.424  1.00  0.00     0.030 A 
HETATM   37  N   UNL     1      19.362  51.621  50.147  1.00  0.00    -0.365 N 
HETATM   38  H   UNL     1      19.956  52.398  50.400  1.00  0.00     0.165 HD
HETATM   39  C   UNL     1      19.697  50.305  50.248  1.00  0.00     0.097 A 
ENDBRANCH  29  30
ENDBRANCH   1  29
TORSDOF 7
ENDMDL
MODEL 9
REMARK VINA RESULT:      -7.7     12.739     14.873
REMARK  7 active torsions:
REMARK  status: ('A' for Active; 'I' for Inactive)
REMARK    1  A    between atoms: C_8  and  C_9 
REMARK    2  A    between atoms: C_9  and  C_10 
REMARK       I    between atoms: C_10  and  N_11 
REMARK    3  A    between atoms: N_11  and  C_12 
REMARK    4  A    between atoms: N_11  and  C_27 
REMARK    5  A    between atoms: C_12  and  C_13 
REMARK    6  A    between atoms: C_12  and  C_22 
REMARK       I    between atoms: C_13  and  N_14 
REMARK    7  A    between atoms: N_14  and  C_15 
ROOT
HETATM    1  C   UNL     1      17.865  51.288  46.884  1.00  0.00     0.229 C 
HETATM    2  N   UNL     1      16.496  51.112  47.115  1.00  0.00    -0.299 N 
HETATM    3  O   UNL     1      18.390  50.815  45.871  1.00  0.00    -0.273 OA
ENDROOT
BRANCH   2   4
HETATM    4  C   UNL     1      15.701  50.106  46.349  1.00  0.00     0.225 C 
BRANCH   4   5
HETATM    5  C   UNL     1      15.255  50.411  44.887  1.00  0.00     0.246 C 
HETATM    6  N   UNL     1      16.172  51.030  44.060  1.00  0.00    -0.354 N 
HETATM    7  H   UNL     1      17.142  50.764  44.225  1.00  0.00     0.162 HD
HETATM    8  O   UNL     1      14.115  50.147  44.495  1.00  0.00    -0.271 OA
BRANCH   6   9
HETATM    9  C   UNL     1      15.815  51.478  42.719  1.00  0.00     0.084 C 
HETATM   10  C   UNL     1      15.453  52.969  42.728  1.00  0.00     0.025 C 
HETATM   11  C   UNL     1      16.675  53.881  42.823  1.00  0.00     0.002 C 
HETATM   12  C   UNL     1      17.697  53.559  41.739  1.00  0.00     0.000 C 
HETATM   13  C   UNL     1      18.112  52.092  41.787  1.00  0.00     0.002 C 
HETATM   14  C   UNL     1      16.904  51.162  41.685  1.00  0.00     0.025 C 
ENDBRANCH   6   9
ENDBRANCH   4   5
BRANCH   4  15
HETATM   15  C   UNL     1      16.263  48.705  46.479  1.00  0.00     0.015 A 
HETATM   16  S   UNL     1      16.456  48.032  48.058  1.00  0.00    -0.104 SA
HETATM   17  C   UNL     1      17.074  46.568  47.444  1.00  0.00     0.050 A 
HETATM   18  C   UNL     1      17.140  46.573  46.070  1.00  0.00     0.008 A 
HETATM   19  C   UNL     1      16.663  47.797  45.515  1.00  0.00     0.017 A 
ENDBRANCH   4  15
ENDBRANCH   2   4
BRANCH   2  20
HETATM   20  C   UNL     1      15.729  52.005  47.923  1.00  0.00     0.041 A 
HETATM   21  C   UNL     1      15.120  53.127  47.342  1.00  0.00     0.069 A 
HETATM   22  C   UNL     1      14.403  53.972  48.161  1.00  0.00     0.107 A 
HETATM   23  C   UNL     1      14.285  53.747  49.513  1.00  0.00     0.105 A 
HETATM   24  O   UNL     1      13.742  55.092  47.762  1.00  0.00    -0.323 OA
HETATM   25  O   UNL     1      13.538  54.697  50.133  1.00  0.00    -0.323 OA
HETATM   26  C   UNL     1      14.882  52.665  50.121  1.00  0.00     0.042 A 
HETATM   27  C   UNL     1      13.202  55.551  49.019  1.00  0.00     0.352 A 
HETATM   28  C   UNL     1      15.616  51.788  49.316  1.00  0.00     0.032 A 
ENDBRANCH   2  20
BRANCH   1  29
HETATM   29  C   UNL     1      18.658  52.174  47.844  1.00  0.00     0.144 C 
BRANCH  29  30
HETATM   30  C   UNL     1      19.701  51.573  48.752  1.00  0.00    -0.021 A 
HETATM   31  C   UNL     1      21.031  51.064  48.533  1.00  0.00    -0.001 A 
HETATM   32  C   UNL     1      21.878  50.886  47.418  1.00  0.00     0.014 A 
HETATM   33  C   UNL     1      21.546  50.688  49.781  1.00  0.00     0.042 A 
HETATM   34  C   UNL     1      23.163  50.344  47.578  1.00  0.00     0.001 A 
HETATM   35  C   UNL     1      23.630  49.985  48.836  1.00  0.00     0.002 A 
HETATM   36  C   UNL     1      22.829  50.154  49.962  1.00  0.00     0.030 A 
HETATM   37  N   UNL     1      20.583  50.953  50.721  1.00  0.00    -0.365 N 
HETATM   38  H   UNL     1      20.691  50.791  51.713  1.00  0.00     0.165 HD
HETATM   39  C   UNL     1      19.481  51.483  50.122  1.00  0.00     0.097 A 
ENDBRANCH  29  30
ENDBRANCH   1  29
TORSDOF 7
ENDMDL
MODEL 10
REMARK VINA RESULT:      -7.7     25.772     28.078
REMARK  7 active torsions:
REMARK  status: ('A' for Active; 'I' for Inactive)
REMARK    1  A    between atoms: C_8  and  C_9 
REMARK    2  A    between atoms: C_9  and  C_10 
REMARK       I    between atoms: C_10  and  N_11 
REMARK    3  A    between atoms: N_11  and  C_12 
REMARK    4  A    between atoms: N_11  and  C_27 
REMARK    5  A    between atoms: C_12  and  C_13 
REMARK    6  A    between atoms: C_12  and  C_22 
REMARK       I    between atoms: C_13  and  N_14 
REMARK    7  A    between atoms: N_14  and  C_15 
ROOT
HETATM    1  C   UNL     1      38.799  43.575  63.795  1.00  0.00     0.229 C 
HETATM    2  N   UNL     1      38.654  43.847  65.160  1.00  0.00    -0.299 N 
HETATM    3  O   UNL     1      38.005  44.055  62.979  1.00  0.00    -0.273 OA
ENDROOT
BRANCH   2   4
HETATM    4  C   UNL     1      37.394  44.435  65.707  1.00  0.00     0.225 C 
BRANCH   4   5
HETATM    5  C   UNL     1      36.926  45.848  65.243  1.00  0.00     0.246 C 
HETATM    6  N   UNL     1      37.468  46.940  65.891  1.00  0.00    -0.354 N 
HETATM    7  H   UNL     1      38.437  46.823  66.184  1.00  0.00     0.162 HD
HETATM    8  O   UNL     1      36.074  45.983  64.360  1.00  0.00    -0.271 OA
BRANCH   6   9
HETATM    9  C   UNL     1      37.003  48.296  65.625  1.00  0.00     0.084 C 
HETATM   10  C   UNL     1      37.148  49.170  66.878  1.00  0.00     0.025 C 
HETATM   11  C   UNL     1      38.588  49.601  67.145  1.00  0.00     0.002 C 
HETATM   12  C   UNL     1      39.206  50.269  65.922  1.00  0.00     0.000 C 
HETATM   13  C   UNL     1      39.131  49.363  64.698  1.00  0.00     0.002 C 
HETATM   14  C   UNL     1      37.696  48.927  64.409  1.00  0.00     0.025 C 
ENDBRANCH   6   9
ENDBRANCH   4   5
BRANCH   4  15
HETATM   15  C   UNL     1      36.248  43.443  65.715  1.00  0.00     0.015 A 
HETATM   16  S   UNL     1      34.818  43.834  66.599  1.00  0.00    -0.104 SA
HETATM   17  C   UNL     1      34.056  42.373  66.166  1.00  0.00     0.050 A 
HETATM   18  C   UNL     1      34.858  41.592  65.368  1.00  0.00     0.008 A 
HETATM   19  C   UNL     1      36.114  42.212  65.099  1.00  0.00     0.017 A 
ENDBRANCH   4  15
ENDBRANCH   2   4
BRANCH   2  20
HETATM   20  C   UNL     1      39.745  43.788  66.079  1.00  0.00     0.041 A 
HETATM   21  C   UNL     1      40.906  44.536  65.836  1.00  0.00     0.069 A 
HETATM   22  C   UNL     1      41.942  44.438  66.739  1.00  0.00     0.107 A 
HETATM   23  C   UNL     1      41.866  43.626  67.846  1.00  0.00     0.105 A 
HETATM   24  O   UNL     1      43.126  45.101  66.663  1.00  0.00    -0.323 OA
HETATM   25  O   UNL     1      42.992  43.676  68.604  1.00  0.00    -0.323 OA
HETATM   26  C   UNL     1      40.748  42.864  68.110  1.00  0.00     0.042 A 
HETATM   27  C   UNL     1      43.791  44.607  67.845  1.00  0.00     0.352 A 
HETATM   28  C   UNL     1      39.680  42.943  67.212  1.00  0.00     0.032 A 
ENDBRANCH   2  20
BRANCH   1  29
HETATM   29  C   UNL     1      40.021  42.780  63.337  1.00  0.00     0.144 C 
BRANCH  29  30
HETATM   30  C   UNL     1      40.049  41.278  63.472  1.00  0.00    -0.021 A 
HETATM   31  C   UNL     1      40.709  40.378  64.383  1.00  0.00    -0.001 A 
HETATM   32  C   UNL     1      41.600  40.506  65.470  1.00  0.00     0.014 A 
HETATM   33  C   UNL     1      40.304  39.077  64.051  1.00  0.00     0.042 A 
HETATM   34  C   UNL     1      42.053  39.371  66.159  1.00  0.00     0.001 A 
HETATM   35  C   UNL     1      41.625  38.101  65.793  1.00  0.00     0.002 A 
HETATM   36  C   UNL     1      40.739  37.931  64.733  1.00  0.00     0.030 A 
HETATM   37  N   UNL     1      39.439  39.172  62.991  1.00  0.00    -0.365 N 
HETATM   38  H   UNL     1      38.981  38.384  62.553  1.00  0.00     0.165 HD
HETATM   39  C   UNL     1      39.276  40.477  62.639  1.00  0.00     0.097 A 
ENDBRANCH  29  30
ENDBRANCH   1  29
TORSDOF 7
ENDMDL
