MODEL 1
REMARK VINA RESULT:      -7.4      0.000      0.000
REMARK  13 active torsions:
REMARK  status: ('A' for Active; 'I' for Inactive)
REMARK    1  A    between atoms: C_2  and  N_3 
REMARK    2  A    between atoms: N_3  and  C_5 
REMARK    3  A    between atoms: N_3  and  C_34 
REMARK    4  A    between atoms: C_5  and  C_6 
REMARK    5  A    between atoms: C_6  and  O_7 
REMARK    6  A    between atoms: O_7  and  C_8 
REMARK    7  A    between atoms: N_15  and  N_16 
REMARK    8  A    between atoms: C_20  and  O_21 
REMARK    9  A    between atoms: O_21  and  C_22 
REMARK   10  A    between atoms: C_22  and  C_23 
REMARK   11  A    between atoms: C_23  and  N_24 
REMARK   12  A    between atoms: N_24  and  C_26 
REMARK   13  A    between atoms: N_24  and  C_28 
ROOT
HETATM    1  C   UNL     1      27.480  43.359  51.529  1.00  0.00     0.087 A 
HETATM    2  C   UNL     1      27.064  42.553  50.445  1.00  0.00     0.045 A 
HETATM    3 BR   UNL     1      27.865  40.854  50.139  1.00  0.00    -0.048 Br
HETATM    4  C   UNL     1      26.042  42.961  49.574  1.00  0.00     0.035 A 
HETATM    5  C   UNL     1      25.453  44.196  49.789  1.00  0.00    -0.011 A 
HETATM    6  C   UNL     1      25.896  45.015  50.846  1.00  0.00     0.009 A 
HETATM    7  C   UNL     1      25.091  46.267  50.798  1.00  0.00     0.093 A 
HETATM    8  N   UNL     1      25.097  47.348  51.513  1.00  0.00    -0.203 NA
HETATM    9  C   UNL     1      24.146  46.109  49.668  1.00  0.00     0.009 A 
HETATM   10  C   UNL     1      24.380  44.862  49.078  1.00  0.00    -0.011 A 
HETATM   11  C   UNL     1      23.180  47.000  49.228  1.00  0.00     0.053 A 
HETATM   12  C   UNL     1      22.406  46.624  48.129  1.00  0.00     0.087 A 
HETATM   13  C   UNL     1      22.616  45.354  47.534  1.00  0.00     0.045 A 
HETATM   14 BR   UNL     1      21.560  44.795  46.053  1.00  0.00    -0.048 Br
HETATM   15  C   UNL     1      23.606  44.470  48.000  1.00  0.00     0.035 A 
HETATM   16  C   UNL     1      26.899  44.617  51.718  1.00  0.00     0.053 A 
ENDROOT
BRANCH   1  17
HETATM   17  O   UNL     1      28.480  42.865  52.333  1.00  0.00    -0.348 OA
BRANCH  17  18
HETATM   18  C   UNL     1      28.141  42.673  53.712  1.00  0.00     0.203 C 
BRANCH  18  19
HETATM   19  C   UNL     1      29.402  42.934  54.545  1.00  0.00     0.261 C 
BRANCH  19  20
HETATM   20  N   UNL     1      29.547  44.409  54.914  1.00  0.00    -0.070 N 
HETATM   21  H   UNL     1      29.933  44.848  54.061  1.00  0.00     0.279 HD
BRANCH  20  22
HETATM   22  C   UNL     1      30.558  44.648  56.022  1.00  0.00     0.230 C 
HETATM   23  C   UNL     1      31.211  43.347  56.451  1.00  0.00     0.034 C 
ENDBRANCH  20  22
BRANCH  20  24
HETATM   24  C   UNL     1      28.243  45.148  55.159  1.00  0.00     0.230 C 
HETATM   25  C   UNL     1      28.445  46.641  55.337  1.00  0.00     0.034 C 
ENDBRANCH  20  24
ENDBRANCH  19  20
ENDBRANCH  18  19
ENDBRANCH  17  18
ENDBRANCH   1  17
BRANCH   8  26
HETATM   26  N   UNL     1      26.007  47.429  52.503  1.00  0.00    -0.226 NA
HETATM   27  H   UNL     1      25.893  46.610  53.113  1.00  0.00     0.145 HD
HETATM   28  H   UNL     1      25.737  48.194  53.132  1.00  0.00     0.145 HD
ENDBRANCH   8  26
BRANCH  12  29
HETATM   29  O   UNL     1      21.413  47.410  47.596  1.00  0.00    -0.348 OA
BRANCH  29  30
HETATM   30  C   UNL     1      20.310  47.713  48.457  1.00  0.00     0.203 C 
BRANCH  30  31
HETATM   31  C   UNL     1      19.837  49.135  48.133  1.00  0.00     0.261 C 
BRANCH  31  32
HETATM   32  N   UNL     1      20.272  50.147  49.197  1.00  0.00    -0.070 N 
HETATM   33  H   UNL     1      20.893  49.600  49.815  1.00  0.00     0.279 HD
BRANCH  32  34
HETATM   34  C   UNL     1      21.128  51.287  48.684  1.00  0.00     0.230 C 
HETATM   35  C   UNL     1      22.587  50.901  48.519  1.00  0.00     0.034 C 
ENDBRANCH  32  34
BRANCH  32  36
HETATM   36  C   UNL     1      19.086  50.557  50.053  1.00  0.00     0.230 C 
HETATM   37  C   UNL     1      18.657  51.987  49.781  1.00  0.00     0.034 C 
ENDBRANCH  32  36
ENDBRANCH  31  32
ENDBRANCH  30  31
ENDBRANCH  29  30
ENDBRANCH  12  29
TORSDOF 13
ENDMDL
MODEL 2
REMARK VINA RESULT:      -7.3      2.682     10.073
REMARK  13 active torsions:
REMARK  status: ('A' for Active; 'I' for Inactive)
REMARK    1  A    between atoms: C_2  and  N_3 
REMARK    2  A    between atoms: N_3  and  C_5 
REMARK    3  A    between atoms: N_3  and  C_34 
REMARK    4  A    between atoms: C_5  and  C_6 
REMARK    5  A    between atoms: C_6  and  O_7 
REMARK    6  A    between atoms: O_7  and  C_8 
REMARK    7  A    between atoms: N_15  and  N_16 
REMARK    8  A    between atoms: C_20  and  O_21 
REMARK    9  A    between atoms: O_21  and  C_22 
REMARK   10  A    between atoms: C_22  and  C_23 
REMARK   11  A    between atoms: C_23  and  N_24 
REMARK   12  A    between atoms: N_24  and  C_26 
REMARK   13  A    between atoms: N_24  and  C_28 
ROOT
HETATM    1  C   UNL     1      22.921  46.949  48.344  1.00  0.00     0.087 A 
HETATM    2  C   UNL     1      23.576  48.100  48.839  1.00  0.00     0.045 A 
HETATM    3 BR   UNL     1      23.355  49.784  47.982  1.00  0.00    -0.048 Br
HETATM    4  C   UNL     1      24.388  48.049  49.982  1.00  0.00     0.035 A 
HETATM    5  C   UNL     1      24.555  46.827  50.613  1.00  0.00    -0.011 A 
HETATM    6  C   UNL     1      23.933  45.674  50.094  1.00  0.00     0.009 A 
HETATM    7  C   UNL     1      24.319  44.535  50.972  1.00  0.00     0.093 A 
HETATM    8  N   UNL     1      24.048  43.268  50.943  1.00  0.00    -0.203 NA
HETATM    9  C   UNL     1      25.178  45.104  52.036  1.00  0.00     0.009 A 
HETATM   10  C   UNL     1      25.306  46.478  51.802  1.00  0.00    -0.011 A 
HETATM   11  C   UNL     1      25.774  44.445  53.101  1.00  0.00     0.053 A 
HETATM   12  C   UNL     1      26.549  45.205  53.978  1.00  0.00     0.087 A 
HETATM   13  C   UNL     1      26.670  46.602  53.767  1.00  0.00     0.045 A 
HETATM   14 BR   UNL     1      27.694  47.673  54.961  1.00  0.00    -0.048 Br
HETATM   15  C   UNL     1      26.056  47.244  52.677  1.00  0.00     0.035 A 
HETATM   16  C   UNL     1      23.121  45.716  48.971  1.00  0.00     0.053 A 
ENDROOT
BRANCH   1  17
HETATM   17  O   UNL     1      22.136  47.106  47.226  1.00  0.00    -0.348 OA
BRANCH  17  18
HETATM   18  C   UNL     1      20.725  46.957  47.423  1.00  0.00     0.203 C 
BRANCH  18  19
HETATM   19  C   UNL     1      20.071  48.324  47.186  1.00  0.00     0.261 C 
BRANCH  19  20
HETATM   20  N   UNL     1      19.771  49.047  48.498  1.00  0.00    -0.070 N 
HETATM   21  H   UNL     1      20.699  49.348  48.840  1.00  0.00     0.279 HD
BRANCH  20  22
HETATM   22  C   UNL     1      19.191  48.132  49.561  1.00  0.00     0.230 C 
HETATM   23  C   UNL     1      17.693  47.967  49.378  1.00  0.00     0.034 C 
ENDBRANCH  20  22
BRANCH  20  24
HETATM   24  C   UNL     1      18.984  50.339  48.362  1.00  0.00     0.230 C 
HETATM   25  C   UNL     1      19.871  51.568  48.425  1.00  0.00     0.034 C 
ENDBRANCH  20  24
ENDBRANCH  19  20
ENDBRANCH  18  19
ENDBRANCH  17  18
ENDBRANCH   1  17
BRANCH   8  26
HETATM   26  N   UNL     1      23.286  42.821  49.926  1.00  0.00    -0.226 NA
HETATM   27  H   UNL     1      23.874  42.762  49.086  1.00  0.00     0.145 HD
HETATM   28  H   UNL     1      22.625  43.562  49.666  1.00  0.00     0.145 HD
ENDBRANCH   8  26
BRANCH  12  29
HETATM   29  O   UNL     1      27.190  44.678  55.074  1.00  0.00    -0.348 OA
BRANCH  29  30
HETATM   30  C   UNL     1      28.268  43.775  54.807  1.00  0.00     0.203 C 
BRANCH  30  31
HETATM   31  C   UNL     1      29.560  44.596  54.721  1.00  0.00     0.261 C 
BRANCH  31  32
HETATM   32  N   UNL     1      30.285  44.677  56.067  1.00  0.00    -0.070 N 
HETATM   33  H   UNL     1      31.179  45.141  55.836  1.00  0.00     0.279 HD
BRANCH  32  34
HETATM   34  C   UNL     1      29.628  45.577  57.095  1.00  0.00     0.230 C 
HETATM   35  C   UNL     1      30.591  46.044  58.171  1.00  0.00     0.034 C 
ENDBRANCH  32  34
BRANCH  32  36
HETATM   36  C   UNL     1      30.649  43.287  56.557  1.00  0.00     0.230 C 
HETATM   37  C   UNL     1      32.088  43.210  57.031  1.00  0.00     0.034 C 
ENDBRANCH  32  36
ENDBRANCH  31  32
ENDBRANCH  30  31
ENDBRANCH  29  30
ENDBRANCH  12  29
TORSDOF 13
ENDMDL
MODEL 3
REMARK VINA RESULT:      -7.0      1.056      9.358
REMARK  13 active torsions:
REMARK  status: ('A' for Active; 'I' for Inactive)
REMARK    1  A    between atoms: C_2  and  N_3 
REMARK    2  A    between atoms: N_3  and  C_5 
REMARK    3  A    between atoms: N_3  and  C_34 
REMARK    4  A    between atoms: C_5  and  C_6 
REMARK    5  A    between atoms: C_6  and  O_7 
REMARK    6  A    between atoms: O_7  and  C_8 
REMARK    7  A    between atoms: N_15  and  N_16 
REMARK    8  A    between atoms: C_20  and  O_21 
REMARK    9  A    between atoms: O_21  and  C_22 
REMARK   10  A    between atoms: C_22  and  C_23 
REMARK   11  A    between atoms: C_23  and  N_24 
REMARK   12  A    between atoms: N_24  and  C_26 
REMARK   13  A    between atoms: N_24  and  C_28 
ROOT
HETATM    1  C   UNL     1      21.603  46.241  47.519  1.00  0.00     0.087 A 
HETATM    2  C   UNL     1      21.546  44.856  47.237  1.00  0.00     0.045 A 
HETATM    3 BR   UNL     1      20.287  44.175  45.984  1.00  0.00    -0.048 Br
HETATM    4  C   UNL     1      22.420  43.945  47.849  1.00  0.00     0.035 A 
HETATM    5  C   UNL     1      23.341  44.432  48.763  1.00  0.00    -0.011 A 
HETATM    6  C   UNL     1      23.369  45.807  49.071  1.00  0.00     0.009 A 
HETATM    7  C   UNL     1      24.438  46.006  50.088  1.00  0.00     0.093 A 
HETATM    8  N   UNL     1      24.870  47.051  50.721  1.00  0.00    -0.203 NA
HETATM    9  C   UNL     1      25.036  44.671  50.327  1.00  0.00     0.009 A 
HETATM   10  C   UNL     1      24.364  43.744  49.523  1.00  0.00    -0.011 A 
HETATM   11  C   UNL     1      26.078  44.339  51.180  1.00  0.00     0.053 A 
HETATM   12  C   UNL     1      26.465  42.999  51.235  1.00  0.00     0.087 A 
HETATM   13  C   UNL     1      25.808  42.052  50.410  1.00  0.00     0.045 A 
HETATM   14 BR   UNL     1      26.330  40.222  50.438  1.00  0.00    -0.048 Br
HETATM   15  C   UNL     1      24.753  42.416  49.556  1.00  0.00     0.035 A 
HETATM   16  C   UNL     1      22.516  46.717  48.465  1.00  0.00     0.053 A 
ENDROOT
BRANCH   1  17
HETATM   17  O   UNL     1      20.713  47.054  46.857  1.00  0.00    -0.348 OA
BRANCH  17  18
HETATM   18  C   UNL     1      19.818  47.808  47.683  1.00  0.00     0.203 C 
BRANCH  18  19
HETATM   19  C   UNL     1      19.876  49.271  47.223  1.00  0.00     0.261 C 
BRANCH  19  20
HETATM   20  N   UNL     1      20.759  50.121  48.135  1.00  0.00    -0.070 N 
HETATM   21  H   UNL     1      20.765  49.609  49.033  1.00  0.00     0.279 HD
BRANCH  20  22
HETATM   22  C   UNL     1      20.173  51.492  48.419  1.00  0.00     0.230 C 
HETATM   23  C   UNL     1      19.236  51.446  49.613  1.00  0.00     0.034 C 
ENDBRANCH  20  22
BRANCH  20  24
HETATM   24  C   UNL     1      22.222  50.195  47.734  1.00  0.00     0.230 C 
HETATM   25  C   UNL     1      23.022  51.127  48.626  1.00  0.00     0.034 C 
ENDBRANCH  20  24
ENDBRANCH  19  20
ENDBRANCH  18  19
ENDBRANCH  17  18
ENDBRANCH   1  17
BRANCH   8  26
HETATM   26  N   UNL     1      24.254  48.223  50.472  1.00  0.00    -0.226 NA
HETATM   27  H   UNL     1      24.507  48.523  49.523  1.00  0.00     0.145 HD
HETATM   28  H   UNL     1      24.696  48.950  51.046  1.00  0.00     0.145 HD
ENDBRANCH   8  26
BRANCH  12  29
HETATM   29  O   UNL     1      27.485  42.538  52.034  1.00  0.00    -0.348 OA
BRANCH  29  30
HETATM   30  C   UNL     1      28.403  43.520  52.525  1.00  0.00     0.203 C 
BRANCH  30  31
HETATM   31  C   UNL     1      28.325  43.513  54.056  1.00  0.00     0.261 C 
BRANCH  31  32
HETATM   32  N   UNL     1      29.539  44.189  54.700  1.00  0.00    -0.070 N 
HETATM   33  H   UNL     1      30.029  44.625  53.902  1.00  0.00     0.279 HD
BRANCH  32  34
HETATM   34  C   UNL     1      29.212  45.335  55.637  1.00  0.00     0.230 C 
HETATM   35  C   UNL     1      28.227  46.322  55.039  1.00  0.00     0.034 C 
ENDBRANCH  32  34
BRANCH  32  36
HETATM   36  C   UNL     1      30.491  43.145  55.256  1.00  0.00     0.230 C 
HETATM   37  C   UNL     1      31.199  43.631  56.507  1.00  0.00     0.034 C 
ENDBRANCH  32  36
ENDBRANCH  31  32
ENDBRANCH  30  31
ENDBRANCH  29  30
ENDBRANCH  12  29
TORSDOF 13
ENDMDL
MODEL 4
REMARK VINA RESULT:      -7.0      1.001      9.133
REMARK  13 active torsions:
REMARK  status: ('A' for Active; 'I' for Inactive)
REMARK    1  A    between atoms: C_2  and  N_3 
REMARK    2  A    between atoms: N_3  and  C_5 
REMARK    3  A    between atoms: N_3  and  C_34 
REMARK    4  A    between atoms: C_5  and  C_6 
REMARK    5  A    between atoms: C_6  and  O_7 
REMARK    6  A    between atoms: O_7  and  C_8 
REMARK    7  A    between atoms: N_15  and  N_16 
REMARK    8  A    between atoms: C_20  and  O_21 
REMARK    9  A    between atoms: O_21  and  C_22 
REMARK   10  A    between atoms: C_22  and  C_23 
REMARK   11  A    between atoms: C_23  and  N_24 
REMARK   12  A    between atoms: N_24  and  C_26 
REMARK   13  A    between atoms: N_24  and  C_28 
ROOT
HETATM    1  C   UNL     1      22.936  46.073  48.407  1.00  0.00     0.087 A 
HETATM    2  C   UNL     1      23.025  44.786  47.827  1.00  0.00     0.045 A 
HETATM    3 BR   UNL     1      21.858  44.279  46.413  1.00  0.00    -0.048 Br
HETATM    4  C   UNL     1      23.982  43.853  48.254  1.00  0.00     0.035 A 
HETATM    5  C   UNL     1      24.837  44.213  49.283  1.00  0.00    -0.011 A 
HETATM    6  C   UNL     1      24.719  45.481  49.886  1.00  0.00     0.009 A 
HETATM    7  C   UNL     1      25.751  45.554  50.957  1.00  0.00     0.093 A 
HETATM    8  N   UNL     1      26.065  46.470  51.819  1.00  0.00    -0.203 NA
HETATM    9  C   UNL     1      26.481  44.265  50.918  1.00  0.00     0.009 A 
HETATM   10  C   UNL     1      25.917  43.478  49.908  1.00  0.00    -0.011 A 
HETATM   11  C   UNL     1      27.541  43.857  51.712  1.00  0.00     0.053 A 
HETATM   12  C   UNL     1      28.064  42.583  51.486  1.00  0.00     0.087 A 
HETATM   13  C   UNL     1      27.518  41.781  50.451  1.00  0.00     0.045 A 
HETATM   14 BR   UNL     1      28.226  40.051  50.095  1.00  0.00    -0.048 Br
HETATM   15  C   UNL     1      26.440  42.220  49.662  1.00  0.00     0.035 A 
HETATM   16  C   UNL     1      23.784  46.415  49.466  1.00  0.00     0.053 A 
ENDROOT
BRANCH   1  17
HETATM   17  O   UNL     1      21.974  46.920  47.910  1.00  0.00    -0.348 OA
BRANCH  17  18
HETATM   18  C   UNL     1      20.760  47.004  48.666  1.00  0.00     0.203 C 
BRANCH  18  19
HETATM   19  C   UNL     1      20.522  48.481  49.010  1.00  0.00     0.261 C 
BRANCH  19  20
HETATM   20  N   UNL     1      21.550  49.393  48.344  1.00  0.00    -0.070 N 
HETATM   21  H   UNL     1      21.978  48.803  47.612  1.00  0.00     0.279 HD
BRANCH  20  22
HETATM   22  C   UNL     1      22.672  49.806  49.281  1.00  0.00     0.230 C 
HETATM   23  C   UNL     1      23.854  50.358  48.504  1.00  0.00     0.034 C 
ENDBRANCH  20  22
BRANCH  20  24
HETATM   24  C   UNL     1      20.974  50.575  47.585  1.00  0.00     0.230 C 
HETATM   25  C   UNL     1      20.169  51.502  48.477  1.00  0.00     0.034 C 
ENDBRANCH  20  24
ENDBRANCH  19  20
ENDBRANCH  18  19
ENDBRANCH  17  18
ENDBRANCH   1  17
BRANCH   8  26
HETATM   26  N   UNL     1      25.334  47.602  51.812  1.00  0.00    -0.226 NA
HETATM   27  H   UNL     1      24.809  47.640  50.929  1.00  0.00     0.145 HD
HETATM   28  H   UNL     1      25.971  48.400  51.709  1.00  0.00     0.145 HD
ENDBRANCH   8  26
BRANCH  12  29
HETATM   29  O   UNL     1      29.117  42.058  52.198  1.00  0.00    -0.348 OA
BRANCH  29  30
HETATM   30  C   UNL     1      29.036  42.164  53.623  1.00  0.00     0.203 C 
BRANCH  30  31
HETATM   31  C   UNL     1      30.188  43.059  54.094  1.00  0.00     0.261 C 
BRANCH  31  32
HETATM   32  N   UNL     1      29.771  43.982  55.243  1.00  0.00    -0.070 N 
HETATM   33  H   UNL     1      29.137  43.395  55.810  1.00  0.00     0.279 HD
BRANCH  32  34
HETATM   34  C   UNL     1      30.891  44.379  56.184  1.00  0.00     0.230 C 
HETATM   35  C   UNL     1      31.455  43.202  56.958  1.00  0.00     0.034 C 
ENDBRANCH  32  34
BRANCH  32  36
HETATM   36  C   UNL     1      28.923  45.128  54.720  1.00  0.00     0.230 C 
HETATM   37  C   UNL     1      28.278  45.917  55.844  1.00  0.00     0.034 C 
ENDBRANCH  32  36
ENDBRANCH  31  32
ENDBRANCH  30  31
ENDBRANCH  29  30
ENDBRANCH  12  29
TORSDOF 13
ENDMDL
MODEL 5
REMARK VINA RESULT:      -6.9      1.328      9.492
REMARK  13 active torsions:
REMARK  status: ('A' for Active; 'I' for Inactive)
REMARK    1  A    between atoms: C_2  and  N_3 
REMARK    2  A    between atoms: N_3  and  C_5 
REMARK    3  A    between atoms: N_3  and  C_34 
REMARK    4  A    between atoms: C_5  and  C_6 
REMARK    5  A    between atoms: C_6  and  O_7 
REMARK    6  A    between atoms: O_7  and  C_8 
REMARK    7  A    between atoms: N_15  and  N_16 
REMARK    8  A    between atoms: C_20  and  O_21 
REMARK    9  A    between atoms: O_21  and  C_22 
REMARK   10  A    between atoms: C_22  and  C_23 
REMARK   11  A    between atoms: C_23  and  N_24 
REMARK   12  A    between atoms: N_24  and  C_26 
REMARK   13  A    between atoms: N_24  and  C_28 
ROOT
HETATM    1  C   UNL     1      21.473  46.195  47.381  1.00  0.00     0.087 A 
HETATM    2  C   UNL     1      21.635  44.792  47.316  1.00  0.00     0.045 A 
HETATM    3 BR   UNL     1      20.515  43.738  46.197  1.00  0.00    -0.048 Br
HETATM    4  C   UNL     1      22.632  44.133  48.052  1.00  0.00     0.035 A 
HETATM    5  C   UNL     1      23.453  44.892  48.870  1.00  0.00    -0.011 A 
HETATM    6  C   UNL     1      23.263  46.285  48.963  1.00  0.00     0.009 A 
HETATM    7  C   UNL     1      24.275  46.802  49.925  1.00  0.00     0.093 A 
HETATM    8  N   UNL     1      24.530  47.986  50.386  1.00  0.00    -0.203 NA
HETATM    9  C   UNL     1      25.069  45.630  50.361  1.00  0.00     0.009 A 
HETATM   10  C   UNL     1      24.560  44.497  49.717  1.00  0.00    -0.011 A 
HETATM   11  C   UNL     1      26.138  45.599  51.243  1.00  0.00     0.053 A 
HETATM   12  C   UNL     1      26.728  44.360  51.501  1.00  0.00     0.087 A 
HETATM   13  C   UNL     1      26.237  43.206  50.839  1.00  0.00     0.045 A 
HETATM   14 BR   UNL     1      27.037  41.507  51.143  1.00  0.00    -0.048 Br
HETATM   15  C   UNL     1      25.150  43.266  49.950  1.00  0.00     0.035 A 
HETATM   16  C   UNL     1      22.288  46.947  48.233  1.00  0.00     0.053 A 
ENDROOT
BRANCH   1  17
HETATM   17  O   UNL     1      20.476  46.748  46.611  1.00  0.00    -0.348 OA
BRANCH  17  18
HETATM   18  C   UNL     1      20.222  48.142  46.820  1.00  0.00     0.203 C 
BRANCH  18  19
HETATM   19  C   UNL     1      18.837  48.274  47.467  1.00  0.00     0.261 C 
BRANCH  19  20
HETATM   20  N   UNL     1      18.757  49.479  48.403  1.00  0.00    -0.070 N 
HETATM   21  H   UNL     1      18.247  50.192  47.857  1.00  0.00     0.279 HD
BRANCH  20  22
HETATM   22  C   UNL     1      20.118  50.070  48.727  1.00  0.00     0.230 C 
HETATM   23  C   UNL     1      20.139  51.564  48.462  1.00  0.00     0.034 C 
ENDBRANCH  20  22
BRANCH  20  24
HETATM   24  C   UNL     1      17.909  49.279  49.646  1.00  0.00     0.230 C 
HETATM   25  C   UNL     1      18.745  49.010  50.883  1.00  0.00     0.034 C 
ENDBRANCH  20  24
ENDBRANCH  19  20
ENDBRANCH  18  19
ENDBRANCH  17  18
ENDBRANCH   1  17
BRANCH   8  26
HETATM   26  N   UNL     1      23.743  48.996  49.965  1.00  0.00    -0.226 NA
HETATM   27  H   UNL     1      23.586  49.631  50.757  1.00  0.00     0.145 HD
HETATM   28  H   UNL     1      22.799  48.627  49.804  1.00  0.00     0.145 HD
ENDBRANCH   8  26
BRANCH  12  29
HETATM   29  O   UNL     1      27.796  44.191  52.350  1.00  0.00    -0.348 OA
BRANCH  29  30
HETATM   30  C   UNL     1      27.522  44.318  53.749  1.00  0.00     0.203 C 
BRANCH  30  31
HETATM   31  C   UNL     1      28.804  43.970  54.513  1.00  0.00     0.261 C 
BRANCH  31  32
HETATM   32  N   UNL     1      29.350  45.163  55.303  1.00  0.00    -0.070 N 
HETATM   33  H   UNL     1      29.673  45.815  54.569  1.00  0.00     0.279 HD
BRANCH  32  34
HETATM   34  C   UNL     1      28.313  45.938  56.091  1.00  0.00     0.230 C 
HETATM   35  C   UNL     1      28.756  46.242  57.510  1.00  0.00     0.034 C 
ENDBRANCH  32  34
BRANCH  32  36
HETATM   36  C   UNL     1      30.591  44.761  56.080  1.00  0.00     0.230 C 
HETATM   37  C   UNL     1      30.908  43.286  55.920  1.00  0.00     0.034 C 
ENDBRANCH  32  36
ENDBRANCH  31  32
ENDBRANCH  30  31
ENDBRANCH  29  30
ENDBRANCH  12  29
TORSDOF 13
ENDMDL
MODEL 6
REMARK VINA RESULT:      -6.9      2.999      4.404
REMARK  13 active torsions:
REMARK  status: ('A' for Active; 'I' for Inactive)
REMARK    1  A    between atoms: C_2  and  N_3 
REMARK    2  A    between atoms: N_3  and  C_5 
REMARK    3  A    between atoms: N_3  and  C_34 
REMARK    4  A    between atoms: C_5  and  C_6 
REMARK    5  A    between atoms: C_6  and  O_7 
REMARK    6  A    between atoms: O_7  and  C_8 
REMARK    7  A    between atoms: N_15  and  N_16 
REMARK    8  A    between atoms: C_20  and  O_21 
REMARK    9  A    between atoms: O_21  and  C_22 
REMARK   10  A    between atoms: C_22  and  C_23 
REMARK   11  A    between atoms: C_23  and  N_24 
REMARK   12  A    between atoms: N_24  and  C_26 
REMARK   13  A    between atoms: N_24  and  C_28 
ROOT
HETATM    1  C   UNL     1      26.551  43.541  52.142  1.00  0.00     0.087 A 
HETATM    2  C   UNL     1      26.705  44.882  52.564  1.00  0.00     0.045 A 
HETATM    3 BR   UNL     1      27.893  45.319  53.985  1.00  0.00    -0.048 Br
HETATM    4  C   UNL     1      26.012  45.932  51.944  1.00  0.00     0.035 A 
HETATM    5  C   UNL     1      25.145  45.625  50.907  1.00  0.00    -0.011 A 
HETATM    6  C   UNL     1      24.964  44.284  50.515  1.00  0.00     0.009 A 
HETATM    7  C   UNL     1      23.968  44.282  49.408  1.00  0.00     0.093 A 
HETATM    8  N   UNL     1      23.432  43.335  48.704  1.00  0.00    -0.203 NA
HETATM    9  C   UNL     1      23.608  45.700  49.173  1.00  0.00     0.009 A 
HETATM   10  C   UNL     1      24.325  46.486  50.081  1.00  0.00    -0.011 A 
HETATM   11  C   UNL     1      22.727  46.217  48.234  1.00  0.00     0.053 A 
HETATM   12  C   UNL     1      22.550  47.601  48.208  1.00  0.00     0.087 A 
HETATM   13  C   UNL     1      23.286  48.413  49.108  1.00  0.00     0.045 A 
HETATM   14 BR   UNL     1      23.091  50.305  49.080  1.00  0.00    -0.048 Br
HETATM   15  C   UNL     1      24.171  47.862  50.051  1.00  0.00     0.035 A 
HETATM   16  C   UNL     1      25.651  43.239  51.115  1.00  0.00     0.053 A 
ENDROOT
BRANCH   1  17
HETATM   17  O   UNL     1      27.284  42.586  52.804  1.00  0.00    -0.348 OA
BRANCH  17  18
HETATM   18  C   UNL     1      28.495  42.166  52.163  1.00  0.00     0.203 C 
BRANCH  18  19
HETATM   19  C   UNL     1      28.498  40.633  52.125  1.00  0.00     0.261 C 
BRANCH  19  20
HETATM   20  N   UNL     1      28.940  40.097  50.764  1.00  0.00    -0.070 N 
HETATM   21  H   UNL     1      29.789  40.642  50.540  1.00  0.00     0.279 HD
BRANCH  20  22
HETATM   22  C   UNL     1      27.936  40.380  49.661  1.00  0.00     0.230 C 
HETATM   23  C   UNL     1      26.570  39.818  50.011  1.00  0.00     0.034 C 
ENDBRANCH  20  22
BRANCH  20  24
HETATM   24  C   UNL     1      29.407  38.653  50.757  1.00  0.00     0.230 C 
HETATM   25  C   UNL     1      29.890  38.206  49.389  1.00  0.00     0.034 C 
ENDBRANCH  20  24
ENDBRANCH  19  20
ENDBRANCH  18  19
ENDBRANCH  17  18
ENDBRANCH   1  17
BRANCH   8  26
HETATM   26  N   UNL     1      23.787  42.070  48.999  1.00  0.00    -0.226 NA
HETATM   27  H   UNL     1      24.793  42.058  49.205  1.00  0.00     0.145 HD
HETATM   28  H   UNL     1      23.744  41.511  48.139  1.00  0.00     0.145 HD
ENDBRANCH   8  26
BRANCH  12  29
HETATM   29  O   UNL     1      21.712  48.241  47.326  1.00  0.00    -0.348 OA
BRANCH  29  30
HETATM   30  C   UNL     1      20.309  48.143  47.597  1.00  0.00     0.203 C 
BRANCH  30  31
HETATM   31  C   UNL     1      19.737  49.565  47.632  1.00  0.00     0.261 C 
BRANCH  31  32
HETATM   32  N   UNL     1      18.818  49.789  48.836  1.00  0.00    -0.070 N 
HETATM   33  H   UNL     1      17.960  50.185  48.419  1.00  0.00     0.279 HD
BRANCH  32  34
HETATM   34  C   UNL     1      18.367  48.525  49.541  1.00  0.00     0.230 C 
HETATM   35  C   UNL     1      18.620  48.562  51.037  1.00  0.00     0.034 C 
ENDBRANCH  32  34
BRANCH  32  36
HETATM   36  C   UNL     1      19.382  50.872  49.739  1.00  0.00     0.230 C 
HETATM   37  C   UNL     1      18.536  52.131  49.713  1.00  0.00     0.034 C 
ENDBRANCH  32  36
ENDBRANCH  31  32
ENDBRANCH  30  31
ENDBRANCH  29  30
ENDBRANCH  12  29
TORSDOF 13
ENDMDL
MODEL 7
REMARK VINA RESULT:      -6.9      1.883      9.774
REMARK  13 active torsions:
REMARK  status: ('A' for Active; 'I' for Inactive)
REMARK    1  A    between atoms: C_2  and  N_3 
REMARK    2  A    between atoms: N_3  and  C_5 
REMARK    3  A    between atoms: N_3  and  C_34 
REMARK    4  A    between atoms: C_5  and  C_6 
REMARK    5  A    between atoms: C_6  and  O_7 
REMARK    6  A    between atoms: O_7  and  C_8 
REMARK    7  A    between atoms: N_15  and  N_16 
REMARK    8  A    between atoms: C_20  and  O_21 
REMARK    9  A    between atoms: O_21  and  C_22 
REMARK   10  A    between atoms: C_22  and  C_23 
REMARK   11  A    between atoms: C_23  and  N_24 
REMARK   12  A    between atoms: N_24  and  C_26 
REMARK   13  A    between atoms: N_24  and  C_28 
ROOT
HETATM    1  C   UNL     1      19.909  47.286  48.003  1.00  0.00     0.087 A 
HETATM    2  C   UNL     1      19.846  45.914  47.666  1.00  0.00     0.045 A 
HETATM    3 BR   UNL     1      18.270  45.178  46.895  1.00  0.00    -0.048 Br
HETATM    4  C   UNL     1      20.939  45.057  47.867  1.00  0.00     0.035 A 
HETATM    5  C   UNL     1      22.091  45.584  48.428  1.00  0.00    -0.011 A 
HETATM    6  C   UNL     1      22.137  46.942  48.798  1.00  0.00     0.009 A 
HETATM    7  C   UNL     1      23.484  47.191  49.383  1.00  0.00     0.093 A 
HETATM    8  N   UNL     1      24.044  48.243  49.893  1.00  0.00    -0.203 NA
HETATM    9  C   UNL     1      24.214  45.904  49.305  1.00  0.00     0.009 A 
HETATM   10  C   UNL     1      23.361  44.956  48.729  1.00  0.00    -0.011 A 
HETATM   11  C   UNL     1      25.511  45.629  49.710  1.00  0.00     0.053 A 
HETATM   12  C   UNL     1      25.980  44.326  49.534  1.00  0.00     0.087 A 
HETATM   13  C   UNL     1      25.135  43.359  48.932  1.00  0.00     0.045 A 
HETATM   14 BR   UNL     1      25.751  41.581  48.650  1.00  0.00    -0.048 Br
HETATM   15  C   UNL     1      23.822  43.666  48.532  1.00  0.00     0.035 A 
HETATM   16  C   UNL     1      21.067  47.800  48.596  1.00  0.00     0.053 A 
ENDROOT
BRANCH   1  17
HETATM   17  O   UNL     1      18.790  48.045  47.755  1.00  0.00    -0.348 OA
BRANCH  17  18
HETATM   18  C   UNL     1      18.063  48.487  48.908  1.00  0.00     0.203 C 
BRANCH  18  19
HETATM   19  C   UNL     1      17.369  49.807  48.547  1.00  0.00     0.261 C 
BRANCH  19  20
HETATM   20  N   UNL     1      18.106  51.014  49.122  1.00  0.00    -0.070 N 
HETATM   21  H   UNL     1      18.718  50.615  49.853  1.00  0.00     0.279 HD
BRANCH  20  22
HETATM   22  C   UNL     1      17.182  51.998  49.818  1.00  0.00     0.230 C 
HETATM   23  C   UNL     1      15.751  51.832  49.340  1.00  0.00     0.034 C 
ENDBRANCH  20  22
BRANCH  20  24
HETATM   24  C   UNL     1      19.063  51.705  48.166  1.00  0.00     0.230 C 
HETATM   25  C   UNL     1      20.515  51.534  48.574  1.00  0.00     0.034 C 
ENDBRANCH  20  24
ENDBRANCH  19  20
ENDBRANCH  18  19
ENDBRANCH  17  18
ENDBRANCH   1  17
BRANCH   8  26
HETATM   26  N   UNL     1      23.304  49.367  49.957  1.00  0.00    -0.226 NA
HETATM   27  H   UNL     1      22.452  49.161  50.494  1.00  0.00     0.145 HD
HETATM   28  H   UNL     1      22.921  49.558  49.025  1.00  0.00     0.145 HD
ENDBRANCH   8  26
BRANCH  12  29
HETATM   29  O   UNL     1      27.245  43.921  49.888  1.00  0.00    -0.348 OA
BRANCH  29  30
HETATM   30  C   UNL     1      27.653  44.209  51.230  1.00  0.00     0.203 C 
BRANCH  30  31
HETATM   31  C   UNL     1      27.257  43.017  52.108  1.00  0.00     0.261 C 
BRANCH  31  32
HETATM   32  N   UNL     1      28.100  42.933  53.384  1.00  0.00    -0.070 N 
HETATM   33  H   UNL     1      27.840  42.018  53.789  1.00  0.00     0.279 HD
BRANCH  32  34
HETATM   34  C   UNL     1      29.597  42.853  53.157  1.00  0.00     0.230 C 
HETATM   35  C   UNL     1      30.399  43.102  54.421  1.00  0.00     0.034 C 
ENDBRANCH  32  34
BRANCH  32  36
HETATM   36  C   UNL     1      27.648  43.979  54.387  1.00  0.00     0.230 C 
HETATM   37  C   UNL     1      26.195  43.796  54.783  1.00  0.00     0.034 C 
ENDBRANCH  32  36
ENDBRANCH  31  32
ENDBRANCH  30  31
ENDBRANCH  29  30
ENDBRANCH  12  29
TORSDOF 13
ENDMDL
MODEL 8
REMARK VINA RESULT:      -6.9      3.525      4.841
REMARK  13 active torsions:
REMARK  status: ('A' for Active; 'I' for Inactive)
REMARK    1  A    between atoms: C_2  and  N_3 
REMARK    2  A    between atoms: N_3  and  C_5 
REMARK    3  A    between atoms: N_3  and  C_34 
REMARK    4  A    between atoms: C_5  and  C_6 
REMARK    5  A    between atoms: C_6  and  O_7 
REMARK    6  A    between atoms: O_7  and  C_8 
REMARK    7  A    between atoms: N_15  and  N_16 
REMARK    8  A    between atoms: C_20  and  O_21 
REMARK    9  A    between atoms: O_21  and  C_22 
REMARK   10  A    between atoms: C_22  and  C_23 
REMARK   11  A    between atoms: C_23  and  N_24 
REMARK   12  A    between atoms: N_24  and  C_26 
REMARK   13  A    between atoms: N_24  and  C_28 
ROOT
HETATM    1  C   UNL     1      25.993  42.552  50.849  1.00  0.00     0.087 A 
HETATM    2  C   UNL     1      26.486  43.805  51.279  1.00  0.00     0.045 A 
HETATM    3 BR   UNL     1      28.033  43.910  52.382  1.00  0.00    -0.048 Br
HETATM    4  C   UNL     1      25.873  45.007  50.896  1.00  0.00     0.035 A 
HETATM    5  C   UNL     1      24.746  44.942  50.092  1.00  0.00    -0.011 A 
HETATM    6  C   UNL     1      24.234  43.690  49.697  1.00  0.00     0.009 A 
HETATM    7  C   UNL     1      23.024  43.953  48.870  1.00  0.00     0.093 A 
HETATM    8  N   UNL     1      22.173  43.174  48.279  1.00  0.00    -0.203 NA
HETATM    9  C   UNL     1      22.886  45.426  48.794  1.00  0.00     0.009 A 
HETATM   10  C   UNL     1      23.928  45.998  49.532  1.00  0.00    -0.011 A 
HETATM   11  C   UNL     1      21.921  46.163  48.125  1.00  0.00     0.053 A 
HETATM   12  C   UNL     1      22.000  47.554  48.205  1.00  0.00     0.087 A 
HETATM   13  C   UNL     1      23.063  48.149  48.932  1.00  0.00     0.045 A 
HETATM   14 BR   UNL     1      23.218  50.043  49.037  1.00  0.00    -0.048 Br
HETATM   15  C   UNL     1      24.027  47.377  49.603  1.00  0.00     0.035 A 
HETATM   16  C   UNL     1      24.838  42.496  50.063  1.00  0.00     0.053 A 
ENDROOT
BRANCH   1  17
HETATM   17  O   UNL     1      26.673  41.432  51.267  1.00  0.00    -0.348 OA
BRANCH  17  18
HETATM   18  C   UNL     1      26.234  40.187  50.712  1.00  0.00     0.203 C 
BRANCH  18  19
HETATM   19  C   UNL     1      27.360  39.648  49.820  1.00  0.00     0.261 C 
BRANCH  19  20
HETATM   20  N   UNL     1      27.891  38.307  50.320  1.00  0.00    -0.070 N 
HETATM   21  H   UNL     1      27.476  38.204  51.261  1.00  0.00     0.279 HD
BRANCH  20  22
HETATM   22  C   UNL     1      29.398  38.297  50.506  1.00  0.00     0.230 C 
HETATM   23  C   UNL     1      30.110  38.199  49.169  1.00  0.00     0.034 C 
ENDBRANCH  20  22
BRANCH  20  24
HETATM   24  C   UNL     1      27.400  37.089  49.557  1.00  0.00     0.230 C 
HETATM   25  C   UNL     1      26.564  37.461  48.346  1.00  0.00     0.034 C 
ENDBRANCH  20  24
ENDBRANCH  19  20
ENDBRANCH  18  19
ENDBRANCH  17  18
ENDBRANCH   1  17
BRANCH   8  26
HETATM   26  N   UNL     1      22.348  41.846  48.421  1.00  0.00    -0.226 NA
HETATM   27  H   UNL     1      21.573  41.367  47.946  1.00  0.00     0.145 HD
HETATM   28  H   UNL     1      22.175  41.598  49.402  1.00  0.00     0.145 HD
ENDBRANCH   8  26
BRANCH  12  29
HETATM   29  O   UNL     1      21.111  48.401  47.586  1.00  0.00    -0.348 OA
BRANCH  29  30
HETATM   30  C   UNL     1      19.800  47.880  47.344  1.00  0.00     0.203 C 
BRANCH  30  31
HETATM   31  C   UNL     1      18.869  48.425  48.433  1.00  0.00     0.261 C 
BRANCH  31  32
HETATM   32  N   UNL     1      19.304  49.807  48.929  1.00  0.00    -0.070 N 
HETATM   33  H   UNL     1      20.293  49.872  48.635  1.00  0.00     0.279 HD
BRANCH  32  34
HETATM   34  C   UNL     1      18.614  50.976  48.255  1.00  0.00     0.230 C 
HETATM   35  C   UNL     1      19.313  52.299  48.509  1.00  0.00     0.034 C 
ENDBRANCH  32  34
BRANCH  32  36
HETATM   36  C   UNL     1      19.316  49.845  50.447  1.00  0.00     0.230 C 
HETATM   37  C   UNL     1      18.626  48.636  51.051  1.00  0.00     0.034 C 
ENDBRANCH  32  36
ENDBRANCH  31  32
ENDBRANCH  30  31
ENDBRANCH  29  30
ENDBRANCH  12  29
TORSDOF 13
ENDMDL
MODEL 9
REMARK VINA RESULT:      -6.7      1.936      3.067
REMARK  13 active torsions:
REMARK  status: ('A' for Active; 'I' for Inactive)
REMARK    1  A    between atoms: C_2  and  N_3 
REMARK    2  A    between atoms: N_3  and  C_5 
REMARK    3  A    between atoms: N_3  and  C_34 
REMARK    4  A    between atoms: C_5  and  C_6 
REMARK    5  A    between atoms: C_6  and  O_7 
REMARK    6  A    between atoms: O_7  and  C_8 
REMARK    7  A    between atoms: N_15  and  N_16 
REMARK    8  A    between atoms: C_20  and  O_21 
REMARK    9  A    between atoms: O_21  and  C_22 
REMARK   10  A    between atoms: C_22  and  C_23 
REMARK   11  A    between atoms: C_23  and  N_24 
REMARK   12  A    between atoms: N_24  and  C_26 
REMARK   13  A    between atoms: N_24  and  C_28 
ROOT
HETATM    1  C   UNL     1      24.987  43.638  49.649  1.00  0.00     0.087 A 
HETATM    2  C   UNL     1      23.935  43.217  48.803  1.00  0.00     0.045 A 
HETATM    3 BR   UNL     1      23.709  41.376  48.382  1.00  0.00    -0.048 Br
HETATM    4  C   UNL     1      23.015  44.130  48.265  1.00  0.00     0.035 A 
HETATM    5  C   UNL     1      23.171  45.473  48.566  1.00  0.00    -0.011 A 
HETATM    6  C   UNL     1      24.244  45.894  49.377  1.00  0.00     0.009 A 
HETATM    7  C   UNL     1      24.149  47.375  49.495  1.00  0.00     0.093 A 
HETATM    8  N   UNL     1      24.879  48.261  50.098  1.00  0.00    -0.203 NA
HETATM    9  C   UNL     1      22.949  47.776  48.725  1.00  0.00     0.009 A 
HETATM   10  C   UNL     1      22.378  46.622  48.178  1.00  0.00    -0.011 A 
HETATM   11  C   UNL     1      22.432  49.050  48.545  1.00  0.00     0.053 A 
HETATM   12  C   UNL     1      21.280  49.176  47.766  1.00  0.00     0.087 A 
HETATM   13  C   UNL     1      20.678  48.013  47.223  1.00  0.00     0.045 A 
HETATM   14 BR   UNL     1      19.091  48.144  46.183  1.00  0.00    -0.048 Br
HETATM   15  C   UNL     1      21.225  46.733  47.420  1.00  0.00     0.035 A 
HETATM   16  C   UNL     1      25.153  45.000  49.922  1.00  0.00     0.053 A 
ENDROOT
BRANCH   1  17
HETATM   17  O   UNL     1      25.828  42.665  50.137  1.00  0.00    -0.348 OA
BRANCH  17  18
HETATM   18  C   UNL     1      27.062  43.127  50.701  1.00  0.00     0.203 C 
BRANCH  18  19
HETATM   19  C   UNL     1      26.957  42.998  52.226  1.00  0.00     0.261 C 
BRANCH  19  20
HETATM   20  N   UNL     1      28.196  43.548  52.931  1.00  0.00    -0.070 N 
HETATM   21  H   UNL     1      28.370  44.455  52.468  1.00  0.00     0.279 HD
BRANCH  20  22
HETATM   22  C   UNL     1      29.434  42.698  52.703  1.00  0.00     0.230 C 
HETATM   23  C   UNL     1      30.454  42.917  53.805  1.00  0.00     0.034 C 
ENDBRANCH  20  22
BRANCH  20  24
HETATM   24  C   UNL     1      28.006  43.902  54.395  1.00  0.00     0.230 C 
HETATM   25  C   UNL     1      27.764  45.385  54.606  1.00  0.00     0.034 C 
ENDBRANCH  20  24
ENDBRANCH  19  20
ENDBRANCH  18  19
ENDBRANCH  17  18
ENDBRANCH   1  17
BRANCH   8  26
HETATM   26  N   UNL     1      25.971  47.821  50.751  1.00  0.00    -0.226 NA
HETATM   27  H   UNL     1      25.719  47.671  51.736  1.00  0.00     0.145 HD
HETATM   28  H   UNL     1      26.641  48.595  50.823  1.00  0.00     0.145 HD
ENDBRANCH   8  26
BRANCH  12  29
HETATM   29  O   UNL     1      20.664  50.379  47.514  1.00  0.00    -0.348 OA
BRANCH  29  30
HETATM   30  C   UNL     1      20.738  51.362  48.551  1.00  0.00     0.203 C 
BRANCH  30  31
HETATM   31  C   UNL     1      19.449  52.190  48.507  1.00  0.00     0.261 C 
BRANCH  31  32
HETATM   32  N   UNL     1      18.205  51.340  48.776  1.00  0.00    -0.070 N 
HETATM   33  H   UNL     1      18.243  50.611  48.044  1.00  0.00     0.279 HD
BRANCH  32  34
HETATM   34  C   UNL     1      18.219  50.582  50.089  1.00  0.00     0.230 C 
HETATM   35  C   UNL     1      18.215  49.076  49.901  1.00  0.00     0.034 C 
ENDBRANCH  32  34
BRANCH  32  36
HETATM   36  C   UNL     1      16.945  52.143  48.502  1.00  0.00     0.230 C 
HETATM   37  C   UNL     1      16.038  52.209  49.716  1.00  0.00     0.034 C 
ENDBRANCH  32  36
ENDBRANCH  31  32
ENDBRANCH  30  31
ENDBRANCH  29  30
ENDBRANCH  12  29
TORSDOF 13
ENDMDL
MODEL 10
REMARK VINA RESULT:      -6.6     13.577     16.005
REMARK  13 active torsions:
REMARK  status: ('A' for Active; 'I' for Inactive)
REMARK    1  A    between atoms: C_2  and  N_3 
REMARK    2  A    between atoms: N_3  and  C_5 
REMARK    3  A    between atoms: N_3  and  C_34 
REMARK    4  A    between atoms: C_5  and  C_6 
REMARK    5  A    between atoms: C_6  and  O_7 
REMARK    6  A    between atoms: O_7  and  C_8 
REMARK    7  A    between atoms: N_15  and  N_16 
REMARK    8  A    between atoms: C_20  and  O_21 
REMARK    9  A    between atoms: O_21  and  C_22 
REMARK   10  A    between atoms: C_22  and  C_23 
REMARK   11  A    between atoms: C_23  and  N_24 
REMARK   12  A    between atoms: N_24  and  C_26 
REMARK   13  A    between atoms: N_24  and  C_28 
ROOT
HETATM    1  C   UNL     1      30.811  49.284  41.872  1.00  0.00     0.087 A 
HETATM    2  C   UNL     1      31.630  48.847  40.805  1.00  0.00     0.045 A 
HETATM    3 BR   UNL     1      30.942  47.671  39.477  1.00  0.00    -0.048 Br
HETATM    4  C   UNL     1      32.959  49.276  40.675  1.00  0.00     0.035 A 
HETATM    5  C   UNL     1      33.469  50.133  41.637  1.00  0.00    -0.011 A 
HETATM    6  C   UNL     1      32.663  50.536  42.721  1.00  0.00     0.009 A 
HETATM    7  C   UNL     1      33.494  51.424  43.578  1.00  0.00     0.093 A 
HETATM    8  N   UNL     1      33.262  52.046  44.692  1.00  0.00    -0.203 NA
HETATM    9  C   UNL     1      34.814  51.526  42.913  1.00  0.00     0.009 A 
HETATM   10  C   UNL     1      34.776  50.746  41.753  1.00  0.00    -0.011 A 
HETATM   11  C   UNL     1      35.924  52.251  43.318  1.00  0.00     0.053 A 
HETATM   12  C   UNL     1      37.066  52.186  42.517  1.00  0.00     0.087 A 
HETATM   13  C   UNL     1      37.036  51.416  41.326  1.00  0.00     0.045 A 
HETATM   14 BR   UNL     1      38.564  51.329  40.196  1.00  0.00    -0.048 Br
HETATM   15  C   UNL     1      35.896  50.689  40.941  1.00  0.00     0.035 A 
HETATM   16  C   UNL     1      31.345  50.125  42.853  1.00  0.00     0.053 A 
ENDROOT
BRANCH   1  17
HETATM   17  O   UNL     1      29.518  48.818  41.903  1.00  0.00    -0.348 OA
BRANCH  17  18
HETATM   18  C   UNL     1      28.490  49.816  41.897  1.00  0.00     0.203 C 
BRANCH  18  19
HETATM   19  C   UNL     1      28.206  50.189  40.436  1.00  0.00     0.261 C 
BRANCH  19  20
HETATM   20  N   UNL     1      28.479  51.666  40.161  1.00  0.00    -0.070 N 
HETATM   21  H   UNL     1      27.556  52.050  39.896  1.00  0.00     0.279 HD
BRANCH  20  22
HETATM   22  C   UNL     1      29.400  51.888  38.974  1.00  0.00     0.230 C 
HETATM   23  C   UNL     1      28.776  52.843  37.973  1.00  0.00     0.034 C 
ENDBRANCH  20  22
BRANCH  20  24
HETATM   24  C   UNL     1      28.894  52.485  41.370  1.00  0.00     0.230 C 
HETATM   25  C   UNL     1      30.281  53.083  41.218  1.00  0.00     0.034 C 
ENDBRANCH  20  24
ENDBRANCH  19  20
ENDBRANCH  18  19
ENDBRANCH  17  18
ENDBRANCH   1  17
BRANCH   8  26
HETATM   26  N   UNL     1      32.048  51.878  45.251  1.00  0.00    -0.226 NA
HETATM   27  H   UNL     1      31.586  51.087  44.786  1.00  0.00     0.145 HD
HETATM   28  H   UNL     1      31.449  52.663  44.970  1.00  0.00     0.145 HD
ENDBRANCH   8  26
BRANCH  12  29
HETATM   29  O   UNL     1      38.230  52.859  42.801  1.00  0.00    -0.348 OA
BRANCH  29  30
HETATM   30  C   UNL     1      38.088  54.162  43.376  1.00  0.00     0.203 C 
BRANCH  30  31
HETATM   31  C   UNL     1      39.278  54.395  44.314  1.00  0.00     0.261 C 
BRANCH  31  32
HETATM   32  N   UNL     1      38.836  54.668  45.754  1.00  0.00    -0.070 N 
HETATM   33  H   UNL     1      37.865  55.007  45.652  1.00  0.00     0.279 HD
BRANCH  32  34
HETATM   34  C   UNL     1      38.734  53.439  46.636  1.00  0.00     0.230 C 
HETATM   35  C   UNL     1      38.385  53.773  48.074  1.00  0.00     0.034 C 
ENDBRANCH  32  34
BRANCH  32  36
HETATM   36  C   UNL     1      39.625  55.826  46.339  1.00  0.00     0.230 C 
HETATM   37  C   UNL     1      41.121  55.581  46.281  1.00  0.00     0.034 C 
ENDBRANCH  32  36
ENDBRANCH  31  32
ENDBRANCH  30  31
ENDBRANCH  29  30
ENDBRANCH  12  29
TORSDOF 13
ENDMDL
