MODEL 1
REMARK VINA RESULT:      -9.3      0.000      0.000
REMARK  2 active torsions:
REMARK  status: ('A' for Active; 'I' for Inactive)
REMARK    1  A    between atoms: C_4  and  C_5 
REMARK       I    between atoms: C_5  and  N_6 
REMARK    2  A    between atoms: N_6  and  N_7 
ROOT
HETATM    1  N   UNL     1      27.294  44.980  53.035  1.00  0.00    -0.282 N 
HETATM    2  C   UNL     1      26.669  44.357  52.041  1.00  0.00     0.127 C 
HETATM    3  C   UNL     1      25.708  45.123  51.202  1.00  0.00     0.015 A 
HETATM    4  C   UNL     1      24.727  44.414  50.478  1.00  0.00    -0.042 A 
HETATM    5  C   UNL     1      23.776  45.094  49.707  1.00  0.00     0.008 A 
HETATM    6  C   UNL     1      23.818  46.482  49.617  1.00  0.00     0.001 A 
HETATM    7  C   UNL     1      24.804  47.193  50.294  1.00  0.00     0.001 A 
HETATM    8  C   UNL     1      25.744  46.521  51.080  1.00  0.00     0.016 A 
HETATM    9  C   UNL     1      24.701  42.910  50.576  1.00  0.00     0.070 C 
HETATM   10  C   UNL     1      26.129  42.352  50.688  1.00  0.00     0.035 C 
HETATM   11  C   UNL     1      26.122  40.841  51.007  1.00  0.00     0.031 C 
HETATM   12  C   UNL     1      26.741  40.163  49.791  1.00  0.00     0.002 C 
HETATM   13  C   UNL     1      27.726  41.192  49.271  1.00  0.00     0.002 C 
HETATM   14  C   UNL     1      26.949  42.496  49.389  1.00  0.00     0.031 C 
HETATM   15  N   UNL     1      26.855  43.063  51.780  1.00  0.00    -0.365 N 
HETATM   16  H   UNL     1      27.516  42.552  52.341  1.00  0.00     0.162 HD
HETATM   17  H   UNL     1      27.030  45.957  53.211  1.00  0.00     0.188 HD
ENDROOT
BRANCH   1  18
HETATM   18  N   UNL     1      28.194  44.486  53.883  1.00  0.00    -0.264 N 
HETATM   19  C   UNL     1      28.694  45.397  54.804  1.00  0.00     0.270 C 
HETATM   20  O   UNL     1      28.296  46.560  54.812  1.00  0.00    -0.266 OA
HETATM   21  H   UNL     1      28.434  43.503  53.915  1.00  0.00     0.190 HD
BRANCH  19  22
HETATM   22  C   UNL     1      29.678  44.894  55.792  1.00  0.00     0.033 A 
HETATM   23  C   UNL     1      30.469  43.763  55.548  1.00  0.00     0.017 A 
HETATM   24  C   UNL     1      31.377  43.330  56.517  1.00  0.00     0.001 A 
HETATM   25  C   UNL     1      31.503  44.024  57.722  1.00  0.00     0.000 A 
HETATM   26  C   UNL     1      30.729  45.160  57.958  1.00  0.00     0.001 A 
HETATM   27  C   UNL     1      29.822  45.599  56.994  1.00  0.00     0.017 A 
ENDBRANCH  19  22
ENDBRANCH   1  18
TORSDOF 2
ENDMDL
MODEL 2
REMARK VINA RESULT:      -9.0      3.110      7.644
REMARK  2 active torsions:
REMARK  status: ('A' for Active; 'I' for Inactive)
REMARK    1  A    between atoms: C_4  and  C_5 
REMARK       I    between atoms: C_5  and  N_6 
REMARK    2  A    between atoms: N_6  and  N_7 
ROOT
HETATM    1  N   UNL     1      28.691  40.982  51.259  1.00  0.00    -0.282 N 
HETATM    2  C   UNL     1      28.125  42.075  51.759  1.00  0.00     0.127 C 
HETATM    3  C   UNL     1      28.763  42.750  52.922  1.00  0.00     0.015 A 
HETATM    4  C   UNL     1      27.975  43.593  53.732  1.00  0.00    -0.042 A 
HETATM    5  C   UNL     1      28.521  44.217  54.859  1.00  0.00     0.008 A 
HETATM    6  C   UNL     1      29.867  44.040  55.169  1.00  0.00     0.001 A 
HETATM    7  C   UNL     1      30.667  43.242  54.357  1.00  0.00     0.001 A 
HETATM    8  C   UNL     1      30.123  42.602  53.240  1.00  0.00     0.016 A 
HETATM    9  C   UNL     1      26.523  43.785  53.378  1.00  0.00     0.070 C 
HETATM   10  C   UNL     1      26.334  43.786  51.852  1.00  0.00     0.035 C 
HETATM   11  C   UNL     1      24.838  43.762  51.467  1.00  0.00     0.031 C 
HETATM   12  C   UNL     1      24.576  45.087  50.762  1.00  0.00     0.002 C 
HETATM   13  C   UNL     1      25.899  45.403  50.092  1.00  0.00     0.002 C 
HETATM   14  C   UNL     1      26.918  45.035  51.161  1.00  0.00     0.031 C 
HETATM   15  N   UNL     1      26.992  42.580  51.270  1.00  0.00    -0.365 N 
HETATM   16  H   UNL     1      26.571  42.129  50.476  1.00  0.00     0.162 HD
HETATM   17  H   UNL     1      29.520  40.621  51.747  1.00  0.00     0.188 HD
ENDROOT
BRANCH   1  18
HETATM   18  N   UNL     1      28.294  40.247  50.222  1.00  0.00    -0.264 N 
HETATM   19  C   UNL     1      28.776  38.944  50.208  1.00  0.00     0.270 C 
HETATM   20  O   UNL     1      29.500  38.536  51.113  1.00  0.00    -0.266 OA
HETATM   21  H   UNL     1      27.623  40.579  49.541  1.00  0.00     0.190 HD
BRANCH  19  22
HETATM   22  C   UNL     1      28.342  38.071  49.091  1.00  0.00     0.033 A 
HETATM   23  C   UNL     1      27.179  37.292  49.162  1.00  0.00     0.017 A 
HETATM   24  C   UNL     1      26.819  36.483  48.082  1.00  0.00     0.001 A 
HETATM   25  C   UNL     1      27.611  36.454  46.932  1.00  0.00     0.000 A 
HETATM   26  C   UNL     1      28.759  37.242  46.854  1.00  0.00     0.001 A 
HETATM   27  C   UNL     1      29.122  38.054  47.927  1.00  0.00     0.017 A 
ENDBRANCH  19  22
ENDBRANCH   1  18
TORSDOF 2
ENDMDL
MODEL 3
REMARK VINA RESULT:      -8.6      1.511      2.311
REMARK  2 active torsions:
REMARK  status: ('A' for Active; 'I' for Inactive)
REMARK    1  A    between atoms: C_4  and  C_5 
REMARK       I    between atoms: C_5  and  N_6 
REMARK    2  A    between atoms: N_6  and  N_7 
ROOT
HETATM    1  N   UNL     1      27.105  43.988  51.527  1.00  0.00    -0.282 N 
HETATM    2  C   UNL     1      26.745  43.078  50.628  1.00  0.00     0.127 C 
HETATM    3  C   UNL     1      25.571  43.351  49.755  1.00  0.00     0.015 A 
HETATM    4  C   UNL     1      24.911  42.262  49.149  1.00  0.00    -0.042 A 
HETATM    5  C   UNL     1      23.778  42.467  48.352  1.00  0.00     0.008 A 
HETATM    6  C   UNL     1      23.316  43.759  48.119  1.00  0.00     0.001 A 
HETATM    7  C   UNL     1      23.980  44.846  48.679  1.00  0.00     0.001 A 
HETATM    8  C   UNL     1      25.100  44.647  49.490  1.00  0.00     0.016 A 
HETATM    9  C   UNL     1      25.429  40.870  49.401  1.00  0.00     0.070 C 
HETATM   10  C   UNL     1      26.963  40.877  49.510  1.00  0.00     0.035 C 
HETATM   11  C   UNL     1      27.502  39.508  49.982  1.00  0.00     0.031 C 
HETATM   12  C   UNL     1      28.323  38.968  48.817  1.00  0.00     0.002 C 
HETATM   13  C   UNL     1      28.869  40.218  48.155  1.00  0.00     0.002 C 
HETATM   14  C   UNL     1      27.674  41.161  48.171  1.00  0.00     0.031 C 
HETATM   15  N   UNL     1      27.386  41.916  50.493  1.00  0.00    -0.365 N 
HETATM   16  H   UNL     1      28.187  41.742  51.076  1.00  0.00     0.162 HD
HETATM   17  H   UNL     1      26.507  44.819  51.613  1.00  0.00     0.188 HD
ENDROOT
BRANCH   1  18
HETATM   18  N   UNL     1      28.123  43.946  52.383  1.00  0.00    -0.264 N 
HETATM   19  C   UNL     1      27.864  44.497  53.631  1.00  0.00     0.270 C 
HETATM   20  O   UNL     1      26.756  44.964  53.891  1.00  0.00    -0.266 OA
HETATM   21  H   UNL     1      28.993  43.473  52.175  1.00  0.00     0.190 HD
BRANCH  19  22
HETATM   22  C   UNL     1      28.954  44.451  54.635  1.00  0.00     0.033 A 
HETATM   23  C   UNL     1      29.199  45.511  55.519  1.00  0.00     0.017 A 
HETATM   24  C   UNL     1      30.243  45.416  56.442  1.00  0.00     0.001 A 
HETATM   25  C   UNL     1      31.037  44.268  56.489  1.00  0.00     0.000 A 
HETATM   26  C   UNL     1      30.783  43.207  55.622  1.00  0.00     0.001 A 
HETATM   27  C   UNL     1      29.740  43.293  54.700  1.00  0.00     0.017 A 
ENDBRANCH  19  22
ENDBRANCH   1  18
TORSDOF 2
ENDMDL
MODEL 4
REMARK VINA RESULT:      -8.5      3.394      5.606
REMARK  2 active torsions:
REMARK  status: ('A' for Active; 'I' for Inactive)
REMARK    1  A    between atoms: C_4  and  C_5 
REMARK       I    between atoms: C_5  and  N_6 
REMARK    2  A    between atoms: N_6  and  N_7 
ROOT
HETATM    1  N   UNL     1      24.583  47.612  50.183  1.00  0.00    -0.282 N 
HETATM    2  C   UNL     1      23.466  47.561  49.464  1.00  0.00     0.127 C 
HETATM    3  C   UNL     1      22.815  48.834  49.052  1.00  0.00     0.015 A 
HETATM    4  C   UNL     1      21.447  48.816  48.711  1.00  0.00    -0.042 A 
HETATM    5  C   UNL     1      20.782  49.996  48.356  1.00  0.00     0.008 A 
HETATM    6  C   UNL     1      21.482  51.197  48.297  1.00  0.00     0.001 A 
HETATM    7  C   UNL     1      22.842  51.225  48.593  1.00  0.00     0.001 A 
HETATM    8  C   UNL     1      23.506  50.053  48.965  1.00  0.00     0.016 A 
HETATM    9  C   UNL     1      20.705  47.505  48.769  1.00  0.00     0.070 C 
HETATM   10  C   UNL     1      21.621  46.347  48.340  1.00  0.00     0.035 C 
HETATM   11  C   UNL     1      20.956  44.977  48.597  1.00  0.00     0.031 C 
HETATM   12  C   UNL     1      20.756  44.355  47.219  1.00  0.00     0.002 C 
HETATM   13  C   UNL     1      21.915  44.903  46.408  1.00  0.00     0.002 C 
HETATM   14  C   UNL     1      21.969  46.362  46.838  1.00  0.00     0.031 C 
HETATM   15  N   UNL     1      22.893  46.408  49.116  1.00  0.00    -0.365 N 
HETATM   16  H   UNL     1      23.344  45.550  49.385  1.00  0.00     0.162 HD
HETATM   17  H   UNL     1      24.909  48.542  50.471  1.00  0.00     0.188 HD
ENDROOT
BRANCH   1  18
HETATM   18  N   UNL     1      25.322  46.600  50.633  1.00  0.00    -0.264 N 
HETATM   19  C   UNL     1      25.671  46.681  51.975  1.00  0.00     0.270 C 
HETATM   20  O   UNL     1      25.291  47.625  52.664  1.00  0.00    -0.266 OA
HETATM   21  H   UNL     1      25.542  45.790  50.069  1.00  0.00     0.190 HD
BRANCH  19  22
HETATM   22  C   UNL     1      26.469  45.566  52.538  1.00  0.00     0.033 A 
HETATM   23  C   UNL     1      27.011  44.555  51.732  1.00  0.00     0.017 A 
HETATM   24  C   UNL     1      27.751  43.525  52.317  1.00  0.00     0.001 A 
HETATM   25  C   UNL     1      27.958  43.504  53.697  1.00  0.00     0.000 A 
HETATM   26  C   UNL     1      27.435  44.519  54.498  1.00  0.00     0.001 A 
HETATM   27  C   UNL     1      26.697  45.552  53.921  1.00  0.00     0.017 A 
ENDBRANCH  19  22
ENDBRANCH   1  18
TORSDOF 2
ENDMDL
MODEL 5
REMARK VINA RESULT:      -8.5      6.616      9.247
REMARK  2 active torsions:
REMARK  status: ('A' for Active; 'I' for Inactive)
REMARK    1  A    between atoms: C_4  and  C_5 
REMARK       I    between atoms: C_5  and  N_6 
REMARK    2  A    between atoms: N_6  and  N_7 
ROOT
HETATM    1  N   UNL     1      21.567  50.137  49.632  1.00  0.00    -0.282 N 
HETATM    2  C   UNL     1      20.460  49.605  49.125  1.00  0.00     0.127 C 
HETATM    3  C   UNL     1      19.242  50.450  49.005  1.00  0.00     0.015 A 
HETATM    4  C   UNL     1      17.985  49.818  48.916  1.00  0.00    -0.042 A 
HETATM    5  C   UNL     1      16.808  50.573  48.843  1.00  0.00     0.008 A 
HETATM    6  C   UNL     1      16.874  51.963  48.817  1.00  0.00     0.001 A 
HETATM    7  C   UNL     1      18.109  52.601  48.864  1.00  0.00     0.001 A 
HETATM    8  C   UNL     1      19.287  51.853  48.956  1.00  0.00     0.016 A 
HETATM    9  C   UNL     1      17.930  48.312  48.935  1.00  0.00     0.070 C 
HETATM   10  C   UNL     1      19.144  47.718  48.202  1.00  0.00     0.035 C 
HETATM   11  C   UNL     1      19.226  46.188  48.393  1.00  0.00     0.031 C 
HETATM   12  C   UNL     1      19.026  45.591  47.005  1.00  0.00     0.002 C 
HETATM   13  C   UNL     1      19.615  46.637  46.078  1.00  0.00     0.002 C 
HETATM   14  C   UNL     1      19.112  47.943  46.676  1.00  0.00     0.031 C 
HETATM   15  N   UNL     1      20.394  48.330  48.738  1.00  0.00    -0.365 N 
HETATM   16  H   UNL     1      21.224  47.766  48.808  1.00  0.00     0.162 HD
HETATM   17  H   UNL     1      21.504  51.104  49.976  1.00  0.00     0.188 HD
ENDROOT
BRANCH   1  18
HETATM   18  N   UNL     1      22.755  49.563  49.807  1.00  0.00    -0.264 N 
HETATM   19  C   UNL     1      23.695  49.850  48.826  1.00  0.00     0.270 C 
HETATM   20  O   UNL     1      23.415  50.597  47.890  1.00  0.00    -0.266 OA
HETATM   21  H   UNL     1      22.989  49.029  50.634  1.00  0.00     0.190 HD
BRANCH  19  22
HETATM   22  C   UNL     1      25.046  49.261  48.985  1.00  0.00     0.033 A 
HETATM   23  C   UNL     1      25.248  48.009  49.584  1.00  0.00     0.017 A 
HETATM   24  C   UNL     1      26.544  47.504  49.713  1.00  0.00     0.001 A 
HETATM   25  C   UNL     1      27.634  48.238  49.242  1.00  0.00     0.000 A 
HETATM   26  C   UNL     1      27.433  49.474  48.630  1.00  0.00     0.001 A 
HETATM   27  C   UNL     1      26.142  49.984  48.495  1.00  0.00     0.017 A 
ENDBRANCH  19  22
ENDBRANCH   1  18
TORSDOF 2
ENDMDL
MODEL 6
REMARK VINA RESULT:      -8.3     10.666     14.273
REMARK  2 active torsions:
REMARK  status: ('A' for Active; 'I' for Inactive)
REMARK    1  A    between atoms: C_4  and  C_5 
REMARK       I    between atoms: C_5  and  N_6 
REMARK    2  A    between atoms: N_6  and  N_7 
ROOT
HETATM    1  N   UNL     1      16.267  52.030  49.676  1.00  0.00    -0.282 N 
HETATM    2  C   UNL     1      17.260  51.165  49.494  1.00  0.00     0.127 C 
HETATM    3  C   UNL     1      16.957  49.833  48.905  1.00  0.00     0.015 A 
HETATM    4  C   UNL     1      17.860  48.773  49.126  1.00  0.00    -0.042 A 
HETATM    5  C   UNL     1      17.597  47.493  48.625  1.00  0.00     0.008 A 
HETATM    6  C   UNL     1      16.452  47.264  47.867  1.00  0.00     0.001 A 
HETATM    7  C   UNL     1      15.570  48.309  47.608  1.00  0.00     0.001 A 
HETATM    8  C   UNL     1      15.819  49.585  48.120  1.00  0.00     0.016 A 
HETATM    9  C   UNL     1      19.101  49.038  49.939  1.00  0.00     0.070 C 
HETATM   10  C   UNL     1      19.629  50.458  49.672  1.00  0.00     0.035 C 
HETATM   11  C   UNL     1      20.765  50.831  50.649  1.00  0.00     0.031 C 
HETATM   12  C   UNL     1      22.009  51.001  49.784  1.00  0.00     0.002 C 
HETATM   13  C   UNL     1      21.459  51.502  48.463  1.00  0.00     0.002 C 
HETATM   14  C   UNL     1      20.222  50.638  48.260  1.00  0.00     0.031 C 
HETATM   15  N   UNL     1      18.518  51.439  49.841  1.00  0.00    -0.365 N 
HETATM   16  H   UNL     1      18.721  52.346  50.227  1.00  0.00     0.162 HD
HETATM   17  H   UNL     1      15.319  51.705  49.452  1.00  0.00     0.188 HD
ENDROOT
BRANCH   1  18
HETATM   18  N   UNL     1      16.329  53.266  50.167  1.00  0.00    -0.264 N 
HETATM   19  C   UNL     1      15.126  53.765  50.651  1.00  0.00     0.270 C 
HETATM   20  O   UNL     1      14.108  53.077  50.624  1.00  0.00    -0.266 OA
HETATM   21  H   UNL     1      17.198  53.775  50.263  1.00  0.00     0.190 HD
BRANCH  19  22
HETATM   22  C   UNL     1      15.142  55.127  51.237  1.00  0.00     0.033 A 
HETATM   23  C   UNL     1      15.004  55.348  52.614  1.00  0.00     0.017 A 
HETATM   24  C   UNL     1      15.021  56.653  53.112  1.00  0.00     0.001 A 
HETATM   25  C   UNL     1      15.181  57.734  52.242  1.00  0.00     0.000 A 
HETATM   26  C   UNL     1      15.335  57.514  50.874  1.00  0.00     0.001 A 
HETATM   27  C   UNL     1      15.323  56.214  50.371  1.00  0.00     0.017 A 
ENDBRANCH  19  22
ENDBRANCH   1  18
TORSDOF 2
ENDMDL
MODEL 7
REMARK VINA RESULT:      -8.3      5.460      8.405
REMARK  2 active torsions:
REMARK  status: ('A' for Active; 'I' for Inactive)
REMARK    1  A    between atoms: C_4  and  C_5 
REMARK       I    between atoms: C_5  and  N_6 
REMARK    2  A    between atoms: N_6  and  N_7 
ROOT
HETATM    1  N   UNL     1      21.931  48.261  49.396  1.00  0.00    -0.282 N 
HETATM    2  C   UNL     1      20.714  48.294  48.865  1.00  0.00     0.127 C 
HETATM    3  C   UNL     1      20.025  49.605  48.719  1.00  0.00     0.015 A 
HETATM    4  C   UNL     1      18.620  49.623  48.603  1.00  0.00    -0.042 A 
HETATM    5  C   UNL     1      17.926  50.835  48.505  1.00  0.00     0.008 A 
HETATM    6  C   UNL     1      18.626  52.037  48.481  1.00  0.00     0.001 A 
HETATM    7  C   UNL     1      20.016  52.034  48.556  1.00  0.00     0.001 A 
HETATM    8  C   UNL     1      20.713  50.829  48.672  1.00  0.00     0.016 A 
HETATM    9  C   UNL     1      17.876  48.312  48.619  1.00  0.00     0.070 C 
HETATM   10  C   UNL     1      18.694  47.219  47.912  1.00  0.00     0.035 C 
HETATM   11  C   UNL     1      18.057  45.825  48.103  1.00  0.00     0.031 C 
HETATM   12  C   UNL     1      17.631  45.375  46.711  1.00  0.00     0.002 C 
HETATM   13  C   UNL     1      18.654  46.023  45.797  1.00  0.00     0.002 C 
HETATM   14  C   UNL     1      18.798  47.419  46.386  1.00  0.00     0.031 C 
HETATM   15  N   UNL     1      20.075  47.190  48.476  1.00  0.00    -0.365 N 
HETATM   16  H   UNL     1      20.549  46.307  48.563  1.00  0.00     0.162 HD
HETATM   17  H   UNL     1      22.314  49.150  49.739  1.00  0.00     0.188 HD
ENDROOT
BRANCH   1  18
HETATM   18  N   UNL     1      22.717  47.205  49.596  1.00  0.00    -0.264 N 
HETATM   19  C   UNL     1      24.055  47.503  49.817  1.00  0.00     0.270 C 
HETATM   20  O   UNL     1      24.441  48.670  49.835  1.00  0.00    -0.266 OA
HETATM   21  H   UNL     1      22.358  46.262  49.669  1.00  0.00     0.190 HD
BRANCH  19  22
HETATM   22  C   UNL     1      24.972  46.367  50.075  1.00  0.00     0.033 A 
HETATM   23  C   UNL     1      26.328  46.407  49.724  1.00  0.00     0.017 A 
HETATM   24  C   UNL     1      27.145  45.305  49.986  1.00  0.00     0.001 A 
HETATM   25  C   UNL     1      26.616  44.169  50.601  1.00  0.00     0.000 A 
HETATM   26  C   UNL     1      25.271  44.134  50.967  1.00  0.00     0.001 A 
HETATM   27  C   UNL     1      24.450  45.232  50.711  1.00  0.00     0.017 A 
ENDBRANCH  19  22
ENDBRANCH   1  18
TORSDOF 2
ENDMDL
MODEL 8
REMARK VINA RESULT:      -8.0      2.076      6.979
REMARK  2 active torsions:
REMARK  status: ('A' for Active; 'I' for Inactive)
REMARK    1  A    between atoms: C_4  and  C_5 
REMARK       I    between atoms: C_5  and  N_6 
REMARK    2  A    between atoms: N_6  and  N_7 
ROOT
HETATM    1  N   UNL     1      25.942  45.724  51.931  1.00  0.00    -0.282 N 
HETATM    2  C   UNL     1      26.649  44.601  51.858  1.00  0.00     0.127 C 
HETATM    3  C   UNL     1      27.674  44.324  52.900  1.00  0.00     0.015 A 
HETATM    4  C   UNL     1      28.713  43.418  52.605  1.00  0.00    -0.042 A 
HETATM    5  C   UNL     1      29.722  43.157  53.539  1.00  0.00     0.008 A 
HETATM    6  C   UNL     1      29.684  43.764  54.791  1.00  0.00     0.001 A 
HETATM    7  C   UNL     1      28.644  44.631  55.112  1.00  0.00     0.001 A 
HETATM    8  C   UNL     1      27.644  44.909  54.177  1.00  0.00     0.016 A 
HETATM    9  C   UNL     1      28.734  42.759  51.249  1.00  0.00     0.070 C 
HETATM   10  C   UNL     1      27.303  42.475  50.764  1.00  0.00     0.035 C 
HETATM   11  C   UNL     1      27.289  42.003  49.294  1.00  0.00     0.031 C 
HETATM   12  C   UNL     1      26.773  40.569  49.330  1.00  0.00     0.002 C 
HETATM   13  C   UNL     1      25.832  40.557  50.519  1.00  0.00     0.002 C 
HETATM   14  C   UNL     1      26.593  41.362  51.562  1.00  0.00     0.031 C 
HETATM   15  N   UNL     1      26.488  43.720  50.870  1.00  0.00    -0.365 N 
HETATM   16  H   UNL     1      25.784  43.904  50.175  1.00  0.00     0.162 HD
HETATM   17  H   UNL     1      26.188  46.380  52.683  1.00  0.00     0.188 HD
ENDROOT
BRANCH   1  18
HETATM   18  N   UNL     1      24.977  46.147  51.118  1.00  0.00    -0.264 N 
HETATM   19  C   UNL     1      25.228  47.362  50.492  1.00  0.00     0.270 C 
HETATM   20  O   UNL     1      26.282  47.961  50.690  1.00  0.00    -0.266 OA
HETATM   21  H   UNL     1      24.161  45.590  50.901  1.00  0.00     0.190 HD
BRANCH  19  22
HETATM   22  C   UNL     1      24.199  47.867  49.552  1.00  0.00     0.033 A 
HETATM   23  C   UNL     1      23.095  47.093  49.167  1.00  0.00     0.017 A 
HETATM   24  C   UNL     1      22.159  47.618  48.274  1.00  0.00     0.001 A 
HETATM   25  C   UNL     1      22.315  48.911  47.770  1.00  0.00     0.000 A 
HETATM   26  C   UNL     1      23.403  49.688  48.167  1.00  0.00     0.001 A 
HETATM   27  C   UNL     1      24.341  49.172  49.060  1.00  0.00     0.017 A 
ENDBRANCH  19  22
ENDBRANCH   1  18
TORSDOF 2
ENDMDL
MODEL 9
REMARK VINA RESULT:      -8.0     15.592     18.460
REMARK  2 active torsions:
REMARK  status: ('A' for Active; 'I' for Inactive)
REMARK    1  A    between atoms: C_4  and  C_5 
REMARK       I    between atoms: C_5  and  N_6 
REMARK    2  A    between atoms: N_6  and  N_7 
ROOT
HETATM    1  N   UNL     1      38.499  46.438  64.463  1.00  0.00    -0.282 N 
HETATM    2  C   UNL     1      39.528  45.598  64.496  1.00  0.00     0.127 C 
HETATM    3  C   UNL     1      39.354  44.221  63.961  1.00  0.00     0.015 A 
HETATM    4  C   UNL     1      40.238  43.210  64.391  1.00  0.00    -0.042 A 
HETATM    5  C   UNL     1      40.087  41.891  63.945  1.00  0.00     0.008 A 
HETATM    6  C   UNL     1      39.081  41.575  63.037  1.00  0.00     0.001 A 
HETATM    7  C   UNL     1      38.225  42.569  62.573  1.00  0.00     0.001 A 
HETATM    8  C   UNL     1      38.359  43.884  63.028  1.00  0.00     0.016 A 
HETATM    9  C   UNL     1      41.329  43.570  65.365  1.00  0.00     0.070 C 
HETATM   10  C   UNL     1      41.857  44.987  65.086  1.00  0.00     0.035 C 
HETATM   11  C   UNL     1      42.817  45.462  66.198  1.00  0.00     0.031 C 
HETATM   12  C   UNL     1      44.176  45.619  65.526  1.00  0.00     0.002 C 
HETATM   13  C   UNL     1      43.828  46.014  64.104  1.00  0.00     0.002 C 
HETATM   14  C   UNL     1      42.659  45.097  63.773  1.00  0.00     0.031 C 
HETATM   15  N   UNL     1      40.710  45.938  65.014  1.00  0.00    -0.365 N 
HETATM   16  H   UNL     1      40.828  46.874  65.362  1.00  0.00     0.162 HD
HETATM   17  H   UNL     1      37.606  46.066  64.118  1.00  0.00     0.188 HD
ENDROOT
BRANCH   1  18
HETATM   18  N   UNL     1      38.452  47.704  64.871  1.00  0.00    -0.264 N 
HETATM   19  C   UNL     1      37.645  47.935  65.977  1.00  0.00     0.270 C 
HETATM   20  O   UNL     1      37.048  47.007  66.519  1.00  0.00    -0.266 OA
HETATM   21  H   UNL     1      39.027  48.432  64.464  1.00  0.00     0.190 HD
BRANCH  19  22
HETATM   22  C   UNL     1      37.579  49.323  66.493  1.00  0.00     0.033 A 
HETATM   23  C   UNL     1      37.954  50.427  65.715  1.00  0.00     0.017 A 
HETATM   24  C   UNL     1      37.876  51.713  66.254  1.00  0.00     0.001 A 
HETATM   25  C   UNL     1      37.421  51.901  67.560  1.00  0.00     0.000 A 
HETATM   26  C   UNL     1      37.030  50.806  68.329  1.00  0.00     0.001 A 
HETATM   27  C   UNL     1      37.102  49.519  67.796  1.00  0.00     0.017 A 
ENDBRANCH  19  22
ENDBRANCH   1  18
TORSDOF 2
ENDMDL
MODEL 10
REMARK VINA RESULT:      -7.9     13.363     14.485
REMARK  2 active torsions:
REMARK  status: ('A' for Active; 'I' for Inactive)
REMARK    1  A    between atoms: C_4  and  C_5 
REMARK       I    between atoms: C_5  and  N_6 
REMARK    2  A    between atoms: N_6  and  N_7 
ROOT
HETATM    1  N   UNL     1      32.363  48.770  40.244  1.00  0.00    -0.282 N 
HETATM    2  C   UNL     1      31.148  49.232  39.966  1.00  0.00     0.127 C 
HETATM    3  C   UNL     1      30.084  48.271  39.569  1.00  0.00     0.015 A 
HETATM    4  C   UNL     1      28.972  48.751  38.848  1.00  0.00    -0.042 A 
HETATM    5  C   UNL     1      27.966  47.878  38.417  1.00  0.00     0.008 A 
HETATM    6  C   UNL     1      28.038  46.524  38.735  1.00  0.00     0.001 A 
HETATM    7  C   UNL     1      29.110  46.041  39.479  1.00  0.00     0.001 A 
HETATM    8  C   UNL     1      30.126  46.905  39.896  1.00  0.00     0.016 A 
HETATM    9  C   UNL     1      28.902  50.221  38.521  1.00  0.00     0.070 C 
HETATM   10  C   UNL     1      29.499  51.058  39.665  1.00  0.00     0.035 C 
HETATM   11  C   UNL     1      29.638  52.543  39.265  1.00  0.00     0.031 C 
HETATM   12  C   UNL     1      28.693  53.305  40.187  1.00  0.00     0.002 C 
HETATM   13  C   UNL     1      28.698  52.483  41.462  1.00  0.00     0.002 C 
HETATM   14  C   UNL     1      28.637  51.053  40.944  1.00  0.00     0.031 C 
HETATM   15  N   UNL     1      30.851  50.531  40.010  1.00  0.00    -0.365 N 
HETATM   16  H   UNL     1      31.569  51.177  40.293  1.00  0.00     0.162 HD
HETATM   17  H   UNL     1      32.521  47.764  40.108  1.00  0.00     0.188 HD
ENDROOT
BRANCH   1  18
HETATM   18  N   UNL     1      33.438  49.453  40.631  1.00  0.00    -0.264 N 
HETATM   19  C   UNL     1      33.390  49.933  41.934  1.00  0.00     0.270 C 
HETATM   20  O   UNL     1      32.416  49.706  42.648  1.00  0.00    -0.266 OA
HETATM   21  H   UNL     1      34.265  49.545  40.055  1.00  0.00     0.190 HD
BRANCH  19  22
HETATM   22  C   UNL     1      34.574  50.676  42.428  1.00  0.00     0.033 A 
HETATM   23  C   UNL     1      35.863  50.445  41.928  1.00  0.00     0.017 A 
HETATM   24  C   UNL     1      36.943  51.171  42.434  1.00  0.00     0.001 A 
HETATM   25  C   UNL     1      36.741  52.129  43.430  1.00  0.00     0.000 A 
HETATM   26  C   UNL     1      35.457  52.372  43.915  1.00  0.00     0.001 A 
HETATM   27  C   UNL     1      34.373  51.653  43.413  1.00  0.00     0.017 A 
ENDBRANCH  19  22
ENDBRANCH   1  18
TORSDOF 2
ENDMDL
