MODEL 1
REMARK VINA RESULT:      -8.7      0.000      0.000
REMARK  6 active torsions:
REMARK  status: ('A' for Active; 'I' for Inactive)
REMARK    1  A    between atoms: O_2  and  C_3 
REMARK    2  A    between atoms: C_4  and  C_5 
REMARK    3  A    between atoms: C_5  and  N_6 
REMARK    4  A    between atoms: N_6  and  C_7 
REMARK    5  A    between atoms: C_9  and  N_10 
REMARK    6  A    between atoms: N_10  and  C_11 
ROOT
HETATM    1  C   UNL     1      28.370  42.465  53.328  1.00  0.00     0.181 A 
HETATM    2  N   UNL     1      28.190  41.287  52.722  1.00  0.00    -0.207 NA
HETATM    3  C   UNL     1      27.514  41.270  51.561  1.00  0.00     0.119 A 
HETATM    4  C   UNL     1      27.002  42.455  50.989  1.00  0.00     0.031 A 
HETATM    5  C   UNL     1      27.230  43.655  51.694  1.00  0.00     0.048 A 
HETATM    6  N   UNL     1      27.921  43.617  52.841  1.00  0.00    -0.330 N 
HETATM    7  H   UNL     1      28.170  44.461  53.343  1.00  0.00     0.168 HD
HETATM    8  C   UNL     1      26.307  42.530  49.760  1.00  0.00     0.017 A 
HETATM    9  C   UNL     1      25.840  43.752  49.270  1.00  0.00     0.001 A 
HETATM   10  C   UNL     1      26.062  44.923  49.988  1.00  0.00     0.002 A 
HETATM   11  C   UNL     1      26.759  44.880  51.196  1.00  0.00     0.030 A 
ENDROOT
BRANCH   1  12
HETATM   12  N   UNL     1      29.155  42.459  54.462  1.00  0.00    -0.258 NA
HETATM   13  H   UNL     1      28.543  42.740  55.230  1.00  0.00     0.130 HD
BRANCH  12  14
HETATM   14  C   UNL     1      30.388  43.242  54.454  1.00  0.00     0.136 C 
BRANCH  14  15
HETATM   15  C   UNL     1      30.543  44.037  55.733  1.00  0.00    -0.012 A 
HETATM   16  C   UNL     1      29.745  45.181  55.939  1.00  0.00     0.075 A 
HETATM   17  C   UNL     1      29.833  45.888  57.144  1.00  0.00     0.037 A 
HETATM   18  C   UNL     1      30.686  45.453  58.158  1.00  0.00     0.003 A 
HETATM   19  C   UNL     1      31.457  44.311  57.977  1.00  0.00     0.001 A 
HETATM   20  C   UNL     1      31.383  43.605  56.777  1.00  0.00     0.011 A 
BRANCH  16  21
HETATM   21  O   UNL     1      28.927  45.536  54.897  1.00  0.00    -0.355 OA
HETATM   22  C   UNL     1      28.031  46.620  55.140  1.00  0.00     0.210 C 
ENDBRANCH  16  21
ENDBRANCH  14  15
ENDBRANCH  12  14
ENDBRANCH   1  12
BRANCH   3  23
HETATM   23  N   UNL     1      27.386  40.054  50.876  1.00  0.00    -0.272 NA
HETATM   24  H   UNL     1      27.176  39.297  51.525  1.00  0.00     0.129 HD
BRANCH  23  25
HETATM   25  C   UNL     1      28.458  39.680  49.952  1.00  0.00     0.061 C 
HETATM   26  C   UNL     1      29.308  38.563  50.556  1.00  0.00     0.020 C 
HETATM   27  C   UNL     1      30.036  37.996  49.349  1.00  0.00     0.002 C 
HETATM   28  C   UNL     1      29.016  38.051  48.218  1.00  0.00     0.002 C 
HETATM   29  C   UNL     1      27.936  39.038  48.663  1.00  0.00     0.020 C 
ENDBRANCH  23  25
ENDBRANCH   3  23
TORSDOF 6
ENDMDL
MODEL 2
REMARK VINA RESULT:      -8.5      3.075      5.871
REMARK  6 active torsions:
REMARK  status: ('A' for Active; 'I' for Inactive)
REMARK    1  A    between atoms: O_2  and  C_3 
REMARK    2  A    between atoms: C_4  and  C_5 
REMARK    3  A    between atoms: C_5  and  N_6 
REMARK    4  A    between atoms: N_6  and  C_7 
REMARK    5  A    between atoms: C_9  and  N_10 
REMARK    6  A    between atoms: N_10  and  C_11 
ROOT
HETATM    1  C   UNL     1      25.933  45.152  53.081  1.00  0.00     0.181 A 
HETATM    2  N   UNL     1      25.721  46.333  52.492  1.00  0.00    -0.207 NA
HETATM    3  C   UNL     1      25.027  46.352  51.342  1.00  0.00     0.119 A 
HETATM    4  C   UNL     1      24.533  45.163  50.761  1.00  0.00     0.031 A 
HETATM    5  C   UNL     1      24.806  43.958  51.441  1.00  0.00     0.048 A 
HETATM    6  N   UNL     1      25.491  43.998  52.592  1.00  0.00    -0.330 N 
HETATM    7  H   UNL     1      25.646  43.168  53.150  1.00  0.00     0.168 HD
HETATM    8  C   UNL     1      23.772  45.096  49.571  1.00  0.00     0.017 A 
HETATM    9  C   UNL     1      23.322  43.871  49.073  1.00  0.00     0.001 A 
HETATM   10  C   UNL     1      23.614  42.691  49.751  1.00  0.00     0.002 A 
HETATM   11  C   UNL     1      24.349  42.731  50.936  1.00  0.00     0.030 A 
ENDROOT
BRANCH   1  12
HETATM   12  N   UNL     1      26.557  45.181  54.311  1.00  0.00    -0.258 NA
HETATM   13  H   UNL     1      25.851  45.499  54.978  1.00  0.00     0.130 HD
BRANCH  12  14
HETATM   14  C   UNL     1      27.792  45.950  54.442  1.00  0.00     0.136 C 
BRANCH  14  15
HETATM   15  C   UNL     1      28.886  45.127  55.087  1.00  0.00    -0.012 A 
HETATM   16  C   UNL     1      29.318  43.938  54.464  1.00  0.00     0.075 A 
HETATM   17  C   UNL     1      30.372  43.201  55.016  1.00  0.00     0.037 A 
HETATM   18  C   UNL     1      31.021  43.650  56.167  1.00  0.00     0.003 A 
HETATM   19  C   UNL     1      30.623  44.834  56.774  1.00  0.00     0.001 A 
HETATM   20  C   UNL     1      29.568  45.571  56.236  1.00  0.00     0.011 A 
BRANCH  16  21
HETATM   21  O   UNL     1      28.634  43.572  53.333  1.00  0.00    -0.355 OA
HETATM   22  C   UNL     1      29.260  42.591  52.508  1.00  0.00     0.210 C 
ENDBRANCH  16  21
ENDBRANCH  14  15
ENDBRANCH  12  14
ENDBRANCH   1  12
BRANCH   3  23
HETATM   23  N   UNL     1      24.730  47.589  50.756  1.00  0.00    -0.272 NA
HETATM   24  H   UNL     1      23.728  47.679  50.598  1.00  0.00     0.129 HD
BRANCH  23  25
HETATM   25  C   UNL     1      25.494  47.980  49.571  1.00  0.00     0.061 C 
HETATM   26  C   UNL     1      24.937  49.279  48.990  1.00  0.00     0.020 C 
HETATM   27  C   UNL     1      26.069  49.772  48.104  1.00  0.00     0.002 C 
HETATM   28  C   UNL     1      27.341  49.417  48.865  1.00  0.00     0.002 C 
HETATM   29  C   UNL     1      26.943  48.358  49.894  1.00  0.00     0.020 C 
ENDBRANCH  23  25
ENDBRANCH   3  23
TORSDOF 6
ENDMDL
MODEL 3
REMARK VINA RESULT:      -8.4      3.691      7.497
REMARK  6 active torsions:
REMARK  status: ('A' for Active; 'I' for Inactive)
REMARK    1  A    between atoms: O_2  and  C_3 
REMARK    2  A    between atoms: C_4  and  C_5 
REMARK    3  A    between atoms: C_5  and  N_6 
REMARK    4  A    between atoms: N_6  and  C_7 
REMARK    5  A    between atoms: C_9  and  N_10 
REMARK    6  A    between atoms: N_10  and  C_11 
ROOT
HETATM    1  C   UNL     1      25.574  46.735  52.257  1.00  0.00     0.181 A 
HETATM    2  N   UNL     1      25.499  45.412  52.083  1.00  0.00    -0.207 NA
HETATM    3  C   UNL     1      26.282  44.628  52.843  1.00  0.00     0.119 A 
HETATM    4  C   UNL     1      27.165  45.176  53.799  1.00  0.00     0.031 A 
HETATM    5  C   UNL     1      27.189  46.582  53.915  1.00  0.00     0.048 A 
HETATM    6  N   UNL     1      26.378  47.315  53.142  1.00  0.00    -0.330 N 
HETATM    7  H   UNL     1      26.309  48.320  53.243  1.00  0.00     0.168 HD
HETATM    8  C   UNL     1      28.001  44.425  54.657  1.00  0.00     0.017 A 
HETATM    9  C   UNL     1      28.842  45.056  55.577  1.00  0.00     0.001 A 
HETATM   10  C   UNL     1      28.862  46.445  55.666  1.00  0.00     0.002 A 
HETATM   11  C   UNL     1      28.035  47.209  54.843  1.00  0.00     0.030 A 
ENDROOT
BRANCH   1  12
HETATM   12  N   UNL     1      24.683  47.501  51.535  1.00  0.00    -0.258 NA
HETATM   13  H   UNL     1      23.840  47.569  52.109  1.00  0.00     0.130 HD
BRANCH  12  14
HETATM   14  C   UNL     1      24.362  47.089  50.171  1.00  0.00     0.136 C 
BRANCH  14  15
HETATM   15  C   UNL     1      23.889  48.262  49.339  1.00  0.00    -0.012 A 
HETATM   16  C   UNL     1      24.835  49.159  48.804  1.00  0.00     0.075 A 
HETATM   17  C   UNL     1      24.417  50.211  47.981  1.00  0.00     0.037 A 
HETATM   18  C   UNL     1      23.067  50.363  47.661  1.00  0.00     0.003 A 
HETATM   19  C   UNL     1      22.128  49.469  48.160  1.00  0.00     0.001 A 
HETATM   20  C   UNL     1      22.535  48.423  48.987  1.00  0.00     0.011 A 
BRANCH  16  21
HETATM   21  O   UNL     1      26.141  48.934  49.159  1.00  0.00    -0.355 OA
HETATM   22  C   UNL     1      27.101  49.859  48.649  1.00  0.00     0.210 C 
ENDBRANCH  16  21
ENDBRANCH  14  15
ENDBRANCH  12  14
ENDBRANCH   1  12
BRANCH   3  23
HETATM   23  N   UNL     1      26.156  43.238  52.726  1.00  0.00    -0.272 NA
HETATM   24  H   UNL     1      26.344  42.785  53.620  1.00  0.00     0.129 HD
BRANCH  23  25
HETATM   25  C   UNL     1      26.875  42.580  51.635  1.00  0.00     0.061 C 
HETATM   26  C   UNL     1      27.825  41.521  52.193  1.00  0.00     0.020 C 
HETATM   27  C   UNL     1      28.123  40.655  50.980  1.00  0.00     0.002 C 
HETATM   28  C   UNL     1      26.807  40.591  50.215  1.00  0.00     0.002 C 
HETATM   29  C   UNL     1      25.956  41.754  50.729  1.00  0.00     0.020 C 
ENDBRANCH  23  25
ENDBRANCH   3  23
TORSDOF 6
ENDMDL
MODEL 4
REMARK VINA RESULT:      -8.4      6.565     10.381
REMARK  6 active torsions:
REMARK  status: ('A' for Active; 'I' for Inactive)
REMARK    1  A    between atoms: O_2  and  C_3 
REMARK    2  A    between atoms: C_4  and  C_5 
REMARK    3  A    between atoms: C_5  and  N_6 
REMARK    4  A    between atoms: N_6  and  C_7 
REMARK    5  A    between atoms: C_9  and  N_10 
REMARK    6  A    between atoms: N_10  and  C_11 
ROOT
HETATM    1  C   UNL     1      22.931  47.832  49.074  1.00  0.00     0.181 A 
HETATM    2  N   UNL     1      23.480  46.795  49.713  1.00  0.00    -0.207 NA
HETATM    3  C   UNL     1      24.809  46.804  49.910  1.00  0.00     0.119 A 
HETATM    4  C   UNL     1      25.613  47.873  49.457  1.00  0.00     0.031 A 
HETATM    5  C   UNL     1      24.957  48.926  48.785  1.00  0.00     0.048 A 
HETATM    6  N   UNL     1      23.628  48.872  48.627  1.00  0.00    -0.330 N 
HETATM    7  H   UNL     1      23.108  49.638  48.217  1.00  0.00     0.168 HD
HETATM    8  C   UNL     1      27.011  47.976  49.647  1.00  0.00     0.017 A 
HETATM    9  C   UNL     1      27.724  49.076  49.164  1.00  0.00     0.001 A 
HETATM   10  C   UNL     1      27.060  50.098  48.491  1.00  0.00     0.002 A 
HETATM   11  C   UNL     1      25.680  50.029  48.305  1.00  0.00     0.030 A 
ENDROOT
BRANCH   1  12
HETATM   12  N   UNL     1      21.555  47.839  48.981  1.00  0.00    -0.258 NA
HETATM   13  H   UNL     1      21.269  46.857  48.962  1.00  0.00     0.130 HD
BRANCH  12  14
HETATM   14  C   UNL     1      20.938  48.591  47.891  1.00  0.00     0.136 C 
BRANCH  14  15
HETATM   15  C   UNL     1      20.117  49.748  48.418  1.00  0.00    -0.012 A 
HETATM   16  C   UNL     1      19.071  49.497  49.330  1.00  0.00     0.075 A 
HETATM   17  C   UNL     1      18.345  50.563  49.873  1.00  0.00     0.037 A 
HETATM   18  C   UNL     1      18.667  51.879  49.541  1.00  0.00     0.003 A 
HETATM   19  C   UNL     1      19.713  52.141  48.665  1.00  0.00     0.001 A 
HETATM   20  C   UNL     1      20.436  51.085  48.111  1.00  0.00     0.011 A 
BRANCH  16  21
HETATM   21  O   UNL     1      18.825  48.177  49.611  1.00  0.00    -0.355 OA
HETATM   22  C   UNL     1      17.534  47.686  49.252  1.00  0.00     0.210 C 
ENDBRANCH  16  21
ENDBRANCH  14  15
ENDBRANCH  12  14
ENDBRANCH   1  12
BRANCH   3  23
HETATM   23  N   UNL     1      25.386  45.762  50.648  1.00  0.00    -0.272 NA
HETATM   24  H   UNL     1      25.250  44.870  50.175  1.00  0.00     0.129 HD
BRANCH  23  25
HETATM   25  C   UNL     1      25.047  45.668  52.069  1.00  0.00     0.061 C 
HETATM   26  C   UNL     1      25.599  44.370  52.657  1.00  0.00     0.020 C 
HETATM   27  C   UNL     1      25.577  44.636  54.153  1.00  0.00     0.002 C 
HETATM   28  C   UNL     1      25.961  46.104  54.293  1.00  0.00     0.002 C 
HETATM   29  C   UNL     1      25.741  46.737  52.919  1.00  0.00     0.020 C 
ENDBRANCH  23  25
ENDBRANCH   3  23
TORSDOF 6
ENDMDL
MODEL 5
REMARK VINA RESULT:      -8.4      3.268      7.079
REMARK  6 active torsions:
REMARK  status: ('A' for Active; 'I' for Inactive)
REMARK    1  A    between atoms: O_2  and  C_3 
REMARK    2  A    between atoms: C_4  and  C_5 
REMARK    3  A    between atoms: C_5  and  N_6 
REMARK    4  A    between atoms: N_6  and  C_7 
REMARK    5  A    between atoms: C_9  and  N_10 
REMARK    6  A    between atoms: N_10  and  C_11 
ROOT
HETATM    1  C   UNL     1      25.818  44.237  50.069  1.00  0.00     0.181 A 
HETATM    2  N   UNL     1      26.133  44.049  51.355  1.00  0.00    -0.207 NA
HETATM    3  C   UNL     1      26.856  42.963  51.676  1.00  0.00     0.119 A 
HETATM    4  C   UNL     1      27.274  42.039  50.694  1.00  0.00     0.031 A 
HETATM    5  C   UNL     1      26.893  42.307  49.362  1.00  0.00     0.048 A 
HETATM    6  N   UNL     1      26.184  43.411  49.095  1.00  0.00    -0.330 N 
HETATM    7  H   UNL     1      25.952  43.680  48.147  1.00  0.00     0.168 HD
HETATM    8  C   UNL     1      28.058  40.889  50.941  1.00  0.00     0.017 A 
HETATM    9  C   UNL     1      28.427  40.032  49.902  1.00  0.00     0.001 A 
HETATM   10  C   UNL     1      28.030  40.305  48.596  1.00  0.00     0.002 A 
HETATM   11  C   UNL     1      27.269  41.442  48.322  1.00  0.00     0.030 A 
ENDROOT
BRANCH   1  12
HETATM   12  N   UNL     1      25.166  45.414  49.762  1.00  0.00    -0.258 NA
HETATM   13  H   UNL     1      25.362  45.595  48.776  1.00  0.00     0.130 HD
BRANCH  12  14
HETATM   14  C   UNL     1      25.441  46.591  50.581  1.00  0.00     0.136 C 
BRANCH  14  15
HETATM   15  C   UNL     1      25.729  47.804  49.722  1.00  0.00    -0.012 A 
HETATM   16  C   UNL     1      24.656  48.552  49.196  1.00  0.00     0.075 A 
HETATM   17  C   UNL     1      24.907  49.711  48.453  1.00  0.00     0.037 A 
HETATM   18  C   UNL     1      26.216  50.150  48.250  1.00  0.00     0.003 A 
HETATM   19  C   UNL     1      27.281  49.436  48.786  1.00  0.00     0.001 A 
HETATM   20  C   UNL     1      27.040  48.275  49.520  1.00  0.00     0.011 A 
BRANCH  16  21
HETATM   21  O   UNL     1      23.401  48.058  49.449  1.00  0.00    -0.355 OA
HETATM   22  C   UNL     1      22.309  48.820  48.937  1.00  0.00     0.210 C 
ENDBRANCH  16  21
ENDBRANCH  14  15
ENDBRANCH  12  14
ENDBRANCH   1  12
BRANCH   3  23
HETATM   23  N   UNL     1      27.260  42.796  53.007  1.00  0.00    -0.272 NA
HETATM   24  H   UNL     1      26.474  42.929  53.641  1.00  0.00     0.129 HD
BRANCH  23  25
HETATM   25  C   UNL     1      28.437  43.541  53.458  1.00  0.00     0.061 C 
HETATM   26  C   UNL     1      28.096  44.365  54.698  1.00  0.00     0.020 C 
HETATM   27  C   UNL     1      29.462  44.684  55.284  1.00  0.00     0.002 C 
HETATM   28  C   UNL     1      30.289  43.426  55.049  1.00  0.00     0.002 C 
HETATM   29  C   UNL     1      29.560  42.630  53.964  1.00  0.00     0.020 C 
ENDBRANCH  23  25
ENDBRANCH   3  23
TORSDOF 6
ENDMDL
MODEL 6
REMARK VINA RESULT:      -8.3      1.109      4.244
REMARK  6 active torsions:
REMARK  status: ('A' for Active; 'I' for Inactive)
REMARK    1  A    between atoms: O_2  and  C_3 
REMARK    2  A    between atoms: C_4  and  C_5 
REMARK    3  A    between atoms: C_5  and  N_6 
REMARK    4  A    between atoms: N_6  and  C_7 
REMARK    5  A    between atoms: C_9  and  N_10 
REMARK    6  A    between atoms: N_10  and  C_11 
ROOT
HETATM    1  C   UNL     1      28.525  42.055  52.963  1.00  0.00     0.181 A 
HETATM    2  N   UNL     1      27.545  42.898  52.621  1.00  0.00    -0.207 NA
HETATM    3  C   UNL     1      26.869  42.654  51.486  1.00  0.00     0.119 A 
HETATM    4  C   UNL     1      27.177  41.544  50.669  1.00  0.00     0.031 A 
HETATM    5  C   UNL     1      28.230  40.708  51.097  1.00  0.00     0.048 A 
HETATM    6  N   UNL     1      28.862  40.990  52.244  1.00  0.00    -0.330 N 
HETATM    7  H   UNL     1      29.573  40.378  52.625  1.00  0.00     0.168 HD
HETATM    8  C   UNL     1      26.499  41.199  49.477  1.00  0.00     0.017 A 
HETATM    9  C   UNL     1      26.874  40.078  48.734  1.00  0.00     0.001 A 
HETATM   10  C   UNL     1      27.924  39.273  49.166  1.00  0.00     0.002 A 
HETATM   11  C   UNL     1      28.600  39.581  50.347  1.00  0.00     0.030 A 
ENDROOT
BRANCH   1  12
HETATM   12  N   UNL     1      29.128  42.277  54.184  1.00  0.00    -0.258 NA
HETATM   13  H   UNL     1      28.420  42.723  54.771  1.00  0.00     0.130 HD
BRANCH  12  14
HETATM   14  C   UNL     1      30.384  43.023  54.211  1.00  0.00     0.136 C 
BRANCH  14  15
HETATM   15  C   UNL     1      30.529  43.808  55.497  1.00  0.00    -0.012 A 
HETATM   16  C   UNL     1      29.738  44.957  55.700  1.00  0.00     0.075 A 
HETATM   17  C   UNL     1      29.816  45.656  56.911  1.00  0.00     0.037 A 
HETATM   18  C   UNL     1      30.654  45.208  57.932  1.00  0.00     0.003 A 
HETATM   19  C   UNL     1      31.418  44.062  57.754  1.00  0.00     0.001 A 
HETATM   20  C   UNL     1      31.353  43.363  56.548  1.00  0.00     0.011 A 
BRANCH  16  21
HETATM   21  O   UNL     1      28.934  45.325  54.651  1.00  0.00    -0.355 OA
HETATM   22  C   UNL     1      27.753  46.051  54.986  1.00  0.00     0.210 C 
ENDBRANCH  16  21
ENDBRANCH  14  15
ENDBRANCH  12  14
ENDBRANCH   1  12
BRANCH   3  23
HETATM   23  N   UNL     1      25.788  43.483  51.158  1.00  0.00    -0.272 NA
HETATM   24  H   UNL     1      25.347  43.172  50.294  1.00  0.00     0.129 HD
BRANCH  23  25
HETATM   25  C   UNL     1      26.021  44.928  51.146  1.00  0.00     0.061 C 
HETATM   26  C   UNL     1      26.663  45.347  49.824  1.00  0.00     0.020 C 
HETATM   27  C   UNL     1      26.413  46.846  49.782  1.00  0.00     0.002 C 
HETATM   28  C   UNL     1      25.025  47.026  50.384  1.00  0.00     0.002 C 
HETATM   29  C   UNL     1      24.722  45.740  51.154  1.00  0.00     0.020 C 
ENDBRANCH  23  25
ENDBRANCH   3  23
TORSDOF 6
ENDMDL
MODEL 7
REMARK VINA RESULT:      -8.2      3.465      5.957
REMARK  6 active torsions:
REMARK  status: ('A' for Active; 'I' for Inactive)
REMARK    1  A    between atoms: O_2  and  C_3 
REMARK    2  A    between atoms: C_4  and  C_5 
REMARK    3  A    between atoms: C_5  and  N_6 
REMARK    4  A    between atoms: N_6  and  C_7 
REMARK    5  A    between atoms: C_9  and  N_10 
REMARK    6  A    between atoms: N_10  and  C_11 
ROOT
HETATM    1  C   UNL     1      25.389  44.282  52.335  1.00  0.00     0.181 A 
HETATM    2  N   UNL     1      25.438  45.584  52.038  1.00  0.00    -0.207 NA
HETATM    3  C   UNL     1      24.760  46.013  50.960  1.00  0.00     0.119 A 
HETATM    4  C   UNL     1      24.016  45.121  50.155  1.00  0.00     0.031 A 
HETATM    5  C   UNL     1      24.022  43.763  50.534  1.00  0.00     0.048 A 
HETATM    6  N   UNL     1      24.704  43.392  51.625  1.00  0.00    -0.330 N 
HETATM    7  H   UNL     1      24.676  42.442  51.974  1.00  0.00     0.168 HD
HETATM    8  C   UNL     1      23.254  45.492  49.024  1.00  0.00     0.017 A 
HETATM    9  C   UNL     1      22.546  44.538  48.289  1.00  0.00     0.001 A 
HETATM   10  C   UNL     1      22.575  43.200  48.670  1.00  0.00     0.002 A 
HETATM   11  C   UNL     1      23.306  42.810  49.792  1.00  0.00     0.030 A 
ENDROOT
BRANCH   1  12
HETATM   12  N   UNL     1      26.010  43.895  53.505  1.00  0.00    -0.258 NA
HETATM   13  H   UNL     1      25.275  43.503  54.098  1.00  0.00     0.130 HD
BRANCH  12  14
HETATM   14  C   UNL     1      26.801  44.886  54.229  1.00  0.00     0.136 C 
BRANCH  14  15
HETATM   15  C   UNL     1      28.212  44.394  54.470  1.00  0.00    -0.012 A 
HETATM   16  C   UNL     1      28.972  44.952  55.518  1.00  0.00     0.075 A 
HETATM   17  C   UNL     1      30.254  44.463  55.792  1.00  0.00     0.037 A 
HETATM   18  C   UNL     1      30.778  43.403  55.051  1.00  0.00     0.003 A 
HETATM   19  C   UNL     1      30.029  42.826  54.034  1.00  0.00     0.001 A 
HETATM   20  C   UNL     1      28.754  43.313  53.748  1.00  0.00     0.011 A 
BRANCH  16  21
HETATM   21  O   UNL     1      28.381  45.983  56.203  1.00  0.00    -0.355 OA
HETATM   22  C   UNL     1      28.783  46.149  57.562  1.00  0.00     0.210 C 
ENDBRANCH  16  21
ENDBRANCH  14  15
ENDBRANCH  12  14
ENDBRANCH   1  12
BRANCH   3  23
HETATM   23  N   UNL     1      24.738  47.386  50.683  1.00  0.00    -0.272 NA
HETATM   24  H   UNL     1      23.780  47.728  50.642  1.00  0.00     0.129 HD
BRANCH  23  25
HETATM   25  C   UNL     1      25.521  47.861  49.540  1.00  0.00     0.061 C 
HETATM   26  C   UNL     1      24.906  49.140  48.975  1.00  0.00     0.020 C 
HETATM   27  C   UNL     1      26.038  49.729  48.150  1.00  0.00     0.002 C 
HETATM   28  C   UNL     1      27.299  49.431  48.952  1.00  0.00     0.002 C 
HETATM   29  C   UNL     1      26.930  48.317  49.933  1.00  0.00     0.020 C 
ENDBRANCH  23  25
ENDBRANCH   3  23
TORSDOF 6
ENDMDL
MODEL 8
REMARK VINA RESULT:      -8.1      2.111      7.688
REMARK  6 active torsions:
REMARK  status: ('A' for Active; 'I' for Inactive)
REMARK    1  A    between atoms: O_2  and  C_3 
REMARK    2  A    between atoms: C_4  and  C_5 
REMARK    3  A    between atoms: C_5  and  N_6 
REMARK    4  A    between atoms: N_6  and  C_7 
REMARK    5  A    between atoms: C_9  and  N_10 
REMARK    6  A    between atoms: N_10  and  C_11 
ROOT
HETATM    1  C   UNL     1      28.942  42.301  52.751  1.00  0.00     0.181 A 
HETATM    2  N   UNL     1      27.853  43.071  52.666  1.00  0.00    -0.207 NA
HETATM    3  C   UNL     1      27.726  44.087  53.536  1.00  0.00     0.119 A 
HETATM    4  C   UNL     1      28.709  44.343  54.517  1.00  0.00     0.031 A 
HETATM    5  C   UNL     1      29.825  43.480  54.544  1.00  0.00     0.048 A 
HETATM    6  N   UNL     1      29.906  42.490  53.646  1.00  0.00    -0.330 N 
HETATM    7  H   UNL     1      30.722  41.894  53.582  1.00  0.00     0.168 HD
HETATM    8  C   UNL     1      28.668  45.405  55.450  1.00  0.00     0.017 A 
HETATM    9  C   UNL     1      29.691  45.582  56.385  1.00  0.00     0.001 A 
HETATM   10  C   UNL     1      30.777  44.711  56.405  1.00  0.00     0.002 A 
HETATM   11  C   UNL     1      30.850  43.665  55.485  1.00  0.00     0.030 A 
ENDROOT
BRANCH   1  12
HETATM   12  N   UNL     1      29.089  41.334  51.779  1.00  0.00    -0.258 NA
HETATM   13  H   UNL     1      29.685  41.746  51.058  1.00  0.00     0.130 HD
BRANCH  12  14
HETATM   14  C   UNL     1      27.883  40.748  51.198  1.00  0.00     0.136 C 
BRANCH  14  15
HETATM   15  C   UNL     1      28.194  40.016  49.910  1.00  0.00    -0.012 A 
HETATM   16  C   UNL     1      28.999  38.859  49.947  1.00  0.00     0.075 A 
HETATM   17  C   UNL     1      29.242  38.136  48.774  1.00  0.00     0.037 A 
HETATM   18  C   UNL     1      28.669  38.537  47.567  1.00  0.00     0.003 A 
HETATM   19  C   UNL     1      27.852  39.659  47.522  1.00  0.00     0.001 A 
HETATM   20  C   UNL     1      27.611  40.391  48.684  1.00  0.00     0.011 A 
BRANCH  16  21
HETATM   21  O   UNL     1      29.516  38.528  51.174  1.00  0.00    -0.355 OA
HETATM   22  C   UNL     1      29.886  37.162  51.355  1.00  0.00     0.210 C 
ENDBRANCH  16  21
ENDBRANCH  14  15
ENDBRANCH  12  14
ENDBRANCH   1  12
BRANCH   3  23
HETATM   23  N   UNL     1      26.629  44.949  53.407  1.00  0.00    -0.272 NA
HETATM   24  H   UNL     1      25.829  44.592  53.927  1.00  0.00     0.129 HD
BRANCH  23  25
HETATM   25  C   UNL     1      26.244  45.359  52.055  1.00  0.00     0.061 C 
HETATM   26  C   UNL     1      24.876  44.780  51.699  1.00  0.00     0.020 C 
HETATM   27  C   UNL     1      24.435  45.639  50.525  1.00  0.00     0.002 C 
HETATM   28  C   UNL     1      24.932  47.040  50.861  1.00  0.00     0.002 C 
HETATM   29  C   UNL     1      26.005  46.868  51.937  1.00  0.00     0.020 C 
ENDBRANCH  23  25
ENDBRANCH   3  23
TORSDOF 6
ENDMDL
MODEL 9
REMARK VINA RESULT:      -8.1      4.525      7.847
REMARK  6 active torsions:
REMARK  status: ('A' for Active; 'I' for Inactive)
REMARK    1  A    between atoms: O_2  and  C_3 
REMARK    2  A    between atoms: C_4  and  C_5 
REMARK    3  A    between atoms: C_5  and  N_6 
REMARK    4  A    between atoms: N_6  and  C_7 
REMARK    5  A    between atoms: C_9  and  N_10 
REMARK    6  A    between atoms: N_10  and  C_11 
ROOT
HETATM    1  C   UNL     1      25.168  47.023  50.995  1.00  0.00     0.181 A 
HETATM    2  N   UNL     1      24.677  47.983  50.205  1.00  0.00    -0.207 NA
HETATM    3  C   UNL     1      23.778  47.634  49.270  1.00  0.00     0.119 A 
HETATM    4  C   UNL     1      23.359  46.294  49.115  1.00  0.00     0.031 A 
HETATM    5  C   UNL     1      23.931  45.341  49.984  1.00  0.00     0.048 A 
HETATM    6  N   UNL     1      24.813  45.746  50.907  1.00  0.00    -0.330 N 
HETATM    7  H   UNL     1      25.192  45.109  51.597  1.00  0.00     0.168 HD
HETATM    8  C   UNL     1      22.399  45.846  48.178  1.00  0.00     0.017 A 
HETATM    9  C   UNL     1      22.045  44.497  48.100  1.00  0.00     0.001 A 
HETATM   10  C   UNL     1      22.631  43.570  48.956  1.00  0.00     0.002 A 
HETATM   11  C   UNL     1      23.568  43.988  49.901  1.00  0.00     0.030 A 
ENDROOT
BRANCH   1  12
HETATM   12  N   UNL     1      26.009  47.432  52.010  1.00  0.00    -0.258 NA
HETATM   13  H   UNL     1      26.943  47.111  51.749  1.00  0.00     0.130 HD
BRANCH  12  14
HETATM   14  C   UNL     1      25.680  47.045  53.379  1.00  0.00     0.136 C 
BRANCH  14  15
HETATM   15  C   UNL     1      26.865  46.404  54.069  1.00  0.00    -0.012 A 
HETATM   16  C   UNL     1      27.222  45.080  53.744  1.00  0.00     0.075 A 
HETATM   17  C   UNL     1      28.354  44.496  54.327  1.00  0.00     0.037 A 
HETATM   18  C   UNL     1      29.149  45.227  55.209  1.00  0.00     0.003 A 
HETATM   19  C   UNL     1      28.822  46.542  55.517  1.00  0.00     0.001 A 
HETATM   20  C   UNL     1      27.693  47.128  54.948  1.00  0.00     0.011 A 
BRANCH  16  21
HETATM   21  O   UNL     1      26.393  44.434  52.861  1.00  0.00    -0.355 OA
HETATM   22  C   UNL     1      26.836  43.159  52.398  1.00  0.00     0.210 C 
ENDBRANCH  16  21
ENDBRANCH  14  15
ENDBRANCH  12  14
ENDBRANCH   1  12
BRANCH   3  23
HETATM   23  N   UNL     1      23.196  48.641  48.489  1.00  0.00    -0.272 NA
HETATM   24  H   UNL     1      23.912  49.165  47.989  1.00  0.00     0.129 HD
BRANCH  23  25
HETATM   25  C   UNL     1      22.237  49.535  49.139  1.00  0.00     0.061 C 
HETATM   26  C   UNL     1      22.086  50.822  48.330  1.00  0.00     0.020 C 
HETATM   27  C   UNL     1      20.781  51.403  48.850  1.00  0.00     0.002 C 
HETATM   28  C   UNL     1      19.884  50.193  49.086  1.00  0.00     0.002 C 
HETATM   29  C   UNL     1      20.811  48.978  49.143  1.00  0.00     0.020 C 
ENDBRANCH  23  25
ENDBRANCH   3  23
TORSDOF 6
ENDMDL
MODEL 10
REMARK VINA RESULT:      -8.1      6.496      9.922
REMARK  6 active torsions:
REMARK  status: ('A' for Active; 'I' for Inactive)
REMARK    1  A    between atoms: O_2  and  C_3 
REMARK    2  A    between atoms: C_4  and  C_5 
REMARK    3  A    between atoms: C_5  and  N_6 
REMARK    4  A    between atoms: N_6  and  C_7 
REMARK    5  A    between atoms: C_9  and  N_10 
REMARK    6  A    between atoms: N_10  and  C_11 
ROOT
HETATM    1  C   UNL     1      22.936  47.990  49.288  1.00  0.00     0.181 A 
HETATM    2  N   UNL     1      23.483  46.951  49.926  1.00  0.00    -0.207 NA
HETATM    3  C   UNL     1      24.819  46.922  50.059  1.00  0.00     0.119 A 
HETATM    4  C   UNL     1      25.633  47.954  49.543  1.00  0.00     0.031 A 
HETATM    5  C   UNL     1      24.979  49.011  48.878  1.00  0.00     0.048 A 
HETATM    6  N   UNL     1      23.643  48.996  48.784  1.00  0.00    -0.330 N 
HETATM    7  H   UNL     1      23.128  49.769  48.380  1.00  0.00     0.168 HD
HETATM    8  C   UNL     1      27.041  48.016  49.665  1.00  0.00     0.017 A 
HETATM    9  C   UNL     1      27.764  49.081  49.123  1.00  0.00     0.001 A 
HETATM   10  C   UNL     1      27.101  50.108  48.457  1.00  0.00     0.002 A 
HETATM   11  C   UNL     1      25.712  50.080  48.337  1.00  0.00     0.030 A 
ENDROOT
BRANCH   1  12
HETATM   12  N   UNL     1      21.558  48.039  49.259  1.00  0.00    -0.258 NA
HETATM   13  H   UNL     1      21.239  47.075  49.377  1.00  0.00     0.130 HD
BRANCH  12  14
HETATM   14  C   UNL     1      20.911  48.674  48.114  1.00  0.00     0.136 C 
BRANCH  14  15
HETATM   15  C   UNL     1      20.098  49.878  48.539  1.00  0.00    -0.012 A 
HETATM   16  C   UNL     1      19.169  49.750  49.592  1.00  0.00     0.075 A 
HETATM   17  C   UNL     1      18.457  50.870  50.038  1.00  0.00     0.037 A 
HETATM   18  C   UNL     1      18.680  52.122  49.465  1.00  0.00     0.003 A 
HETATM   19  C   UNL     1      19.612  52.266  48.445  1.00  0.00     0.001 A 
HETATM   20  C   UNL     1      20.320  51.154  47.988  1.00  0.00     0.011 A 
BRANCH  16  21
HETATM   21  O   UNL     1      19.017  48.488  50.107  1.00  0.00    -0.355 OA
HETATM   22  C   UNL     1      18.441  48.404  51.410  1.00  0.00     0.210 C 
ENDBRANCH  16  21
ENDBRANCH  14  15
ENDBRANCH  12  14
ENDBRANCH   1  12
BRANCH   3  23
HETATM   23  N   UNL     1      25.398  45.879  50.794  1.00  0.00    -0.272 NA
HETATM   24  H   UNL     1      26.317  46.151  51.141  1.00  0.00     0.129 HD
BRANCH  23  25
HETATM   25  C   UNL     1      25.434  44.552  50.177  1.00  0.00     0.061 C 
HETATM   26  C   UNL     1      26.859  44.209  49.747  1.00  0.00     0.020 C 
HETATM   27  C   UNL     1      26.811  42.701  49.572  1.00  0.00     0.002 C 
HETATM   28  C   UNL     1      25.900  42.208  50.691  1.00  0.00     0.002 C 
HETATM   29  C   UNL     1      25.107  43.427  51.165  1.00  0.00     0.020 C 
ENDBRANCH  23  25
ENDBRANCH   3  23
TORSDOF 6
ENDMDL
