MODEL 1
REMARK VINA RESULT:      -8.9      0.000      0.000
REMARK  4 active torsions:
REMARK  status: ('A' for Active; 'I' for Inactive)
REMARK    1  A    between atoms: C_7  and  C_8 
REMARK    2  A    between atoms: C_11  and  O_12 
REMARK    3  A    between atoms: C_17  and  C_18 
REMARK    4  A    between atoms: C_25  and  C_26 
REMARK       I    between atoms: C_26  and  N_27 
ROOT
HETATM    1  C   UNL     1      27.922  38.461  49.345  1.00  0.00     0.070 C 
HETATM    2  C   UNL     1      27.824  39.873  49.871  1.00  0.00     0.037 C 
HETATM    3  N   UNL     1      28.081  40.027  51.233  1.00  0.00    -0.192 N 
HETATM    4  C   UNL     1      28.246  41.233  51.810  1.00  0.00     0.726 A 
HETATM    5  N   UNL     1      27.963  42.356  51.092  1.00  0.00    -0.083 N 
HETATM    6  N   UNL     1      28.273  43.476  51.770  1.00  0.00    -0.135 NA
HETATM    7  C   UNL     1      28.681  42.964  52.947  1.00  0.00     0.199 A 
HETATM    8  N   UNL     1      28.680  41.578  52.993  1.00  0.00    -0.041 NA
HETATM    9  C   UNL     1      27.397  42.340  49.741  1.00  0.00     0.202 C 
HETATM   10  C   UNL     1      27.510  40.955  49.109  1.00  0.00     0.062 C 
HETATM   11  H   UNL     1      28.409  39.207  51.737  1.00  0.00     0.184 HD
ENDROOT
BRANCH   7  12
HETATM   12  C   UNL     1      29.088  43.780  54.088  1.00  0.00     0.014 A 
HETATM   13  C   UNL     1      30.225  43.453  54.840  1.00  0.00     0.018 A 
HETATM   14  C   UNL     1      30.614  44.248  55.921  1.00  0.00     0.037 A 
HETATM   15  C   UNL     1      29.883  45.386  56.268  1.00  0.00     0.068 A 
HETATM   16  C   UNL     1      28.746  45.715  55.530  1.00  0.00     0.037 A 
HETATM   17  C   UNL     1      28.352  44.917  54.449  1.00  0.00     0.018 A 
BRANCH  15  18
HETATM   18  O   UNL     1      30.377  46.079  57.339  1.00  0.00    -0.356 OA
HETATM   19  C   UNL     1      30.628  45.335  58.524  1.00  0.00     0.210 C 
ENDBRANCH  15  18
ENDBRANCH   7  12
BRANCH   9  20
HETATM   20  C   UNL     1      25.963  42.877  49.812  1.00  0.00    -0.028 A 
HETATM   21  C   UNL     1      25.702  44.208  49.436  1.00  0.00     0.012 A 
HETATM   22  C   UNL     1      24.406  44.724  49.504  1.00  0.00     0.043 A 
HETATM   23  C   UNL     1      23.369  43.918  49.952  1.00  0.00     0.116 A 
HETATM   24  F   UNL     1      22.127  44.415  50.015  1.00  0.00    -0.206 F 
HETATM   25  C   UNL     1      23.602  42.606  50.342  1.00  0.00     0.043 A 
HETATM   26  C   UNL     1      24.895  42.086  50.280  1.00  0.00     0.012 A 
ENDBRANCH   9  20
BRANCH  10  27
HETATM   27  C   UNL     1      27.439  40.849  47.627  1.00  0.00     0.249 C 
HETATM   28  N   UNL     1      26.264  40.441  47.085  1.00  0.00    -0.366 N 
HETATM   29  H   UNL     1      25.494  40.037  47.598  1.00  0.00     0.159 HD
HETATM   30  H   UNL     1      26.250  40.333  46.077  1.00  0.00     0.159 HD
HETATM   31  O   UNL     1      28.377  41.143  46.895  1.00  0.00    -0.268 OA
ENDBRANCH  10  27
TORSDOF 4
ENDMDL
MODEL 2
REMARK VINA RESULT:      -8.6      2.686      4.291
REMARK  4 active torsions:
REMARK  status: ('A' for Active; 'I' for Inactive)
REMARK    1  A    between atoms: C_7  and  C_8 
REMARK    2  A    between atoms: C_11  and  O_12 
REMARK    3  A    between atoms: C_17  and  C_18 
REMARK    4  A    between atoms: C_25  and  C_26 
REMARK       I    between atoms: C_26  and  N_27 
ROOT
HETATM    1  C   UNL     1      23.892  44.192  47.742  1.00  0.00     0.070 C 
HETATM    2  C   UNL     1      24.755  43.485  48.759  1.00  0.00     0.037 C 
HETATM    3  N   UNL     1      25.696  44.284  49.410  1.00  0.00    -0.192 N 
HETATM    4  C   UNL     1      26.388  43.863  50.485  1.00  0.00     0.726 A 
HETATM    5  N   UNL     1      26.321  42.550  50.844  1.00  0.00    -0.083 N 
HETATM    6  N   UNL     1      26.983  42.310  51.991  1.00  0.00    -0.135 NA
HETATM    7  C   UNL     1      27.505  43.524  52.250  1.00  0.00     0.199 A 
HETATM    8  N   UNL     1      27.144  44.503  51.337  1.00  0.00    -0.041 NA
HETATM    9  C   UNL     1      25.606  41.528  50.076  1.00  0.00     0.202 C 
HETATM   10  C   UNL     1      24.661  42.161  49.058  1.00  0.00     0.062 C 
HETATM   11  H   UNL     1      25.660  45.283  49.225  1.00  0.00     0.184 HD
ENDROOT
BRANCH   7  12
HETATM   12  C   UNL     1      28.378  43.804  53.387  1.00  0.00     0.014 A 
HETATM   13  C   UNL     1      29.469  42.974  53.680  1.00  0.00     0.018 A 
HETATM   14  C   UNL     1      30.308  43.259  54.761  1.00  0.00     0.037 A 
HETATM   15  C   UNL     1      30.078  44.376  55.565  1.00  0.00     0.068 A 
HETATM   16  C   UNL     1      28.991  45.204  55.287  1.00  0.00     0.037 A 
HETATM   17  C   UNL     1      28.147  44.918  54.205  1.00  0.00     0.018 A 
BRANCH  15  18
HETATM   18  O   UNL     1      30.977  44.544  56.583  1.00  0.00    -0.356 OA
HETATM   19  C   UNL     1      31.750  43.408  56.949  1.00  0.00     0.210 C 
ENDBRANCH  15  18
ENDBRANCH   7  12
BRANCH   9  20
HETATM   20  C   UNL     1      26.639  40.577  49.459  1.00  0.00    -0.028 A 
HETATM   21  C   UNL     1      26.664  39.228  49.860  1.00  0.00     0.012 A 
HETATM   22  C   UNL     1      27.603  38.345  49.323  1.00  0.00     0.043 A 
HETATM   23  C   UNL     1      28.522  38.806  48.389  1.00  0.00     0.116 A 
HETATM   24  F   UNL     1      29.421  37.956  47.875  1.00  0.00    -0.206 F 
HETATM   25  C   UNL     1      28.528  40.135  47.988  1.00  0.00     0.043 A 
HETATM   26  C   UNL     1      27.594  41.022  48.525  1.00  0.00     0.012 A 
ENDBRANCH   9  20
BRANCH  10  27
HETATM   27  C   UNL     1      23.536  41.340  48.537  1.00  0.00     0.249 C 
HETATM   28  N   UNL     1      23.841  40.329  47.686  1.00  0.00    -0.366 N 
HETATM   29  H   UNL     1      24.736  40.192  47.239  1.00  0.00     0.159 HD
HETATM   30  H   UNL     1      23.057  39.810  47.308  1.00  0.00     0.159 HD
HETATM   31  O   UNL     1      22.370  41.525  48.869  1.00  0.00    -0.268 OA
ENDBRANCH  10  27
TORSDOF 4
ENDMDL
MODEL 3
REMARK VINA RESULT:      -8.0     13.360     16.113
REMARK  4 active torsions:
REMARK  status: ('A' for Active; 'I' for Inactive)
REMARK    1  A    between atoms: C_7  and  C_8 
REMARK    2  A    between atoms: C_11  and  O_12 
REMARK    3  A    between atoms: C_17  and  C_18 
REMARK    4  A    between atoms: C_25  and  C_26 
REMARK       I    between atoms: C_26  and  N_27 
ROOT
HETATM    1  C   UNL     1      14.786  51.022  45.216  1.00  0.00     0.070 C 
HETATM    2  C   UNL     1      15.218  51.437  46.602  1.00  0.00     0.037 C 
HETATM    3  N   UNL     1      15.024  52.782  46.916  1.00  0.00    -0.192 N 
HETATM    4  C   UNL     1      15.154  53.263  48.167  1.00  0.00     0.726 A 
HETATM    5  N   UNL     1      15.680  52.460  49.134  1.00  0.00    -0.083 N 
HETATM    6  N   UNL     1      15.650  53.048  50.344  1.00  0.00    -0.135 NA
HETATM    7  C   UNL     1      15.151  54.260  50.033  1.00  0.00     0.199 A 
HETATM    8  N   UNL     1      14.829  54.414  48.693  1.00  0.00    -0.041 NA
HETATM    9  C   UNL     1      16.206  51.117  48.884  1.00  0.00     0.202 C 
HETATM   10  C   UNL     1      15.765  50.594  47.519  1.00  0.00     0.062 C 
HETATM   11  H   UNL     1      14.522  53.347  46.235  1.00  0.00     0.184 HD
ENDROOT
BRANCH   7  12
HETATM   12  C   UNL     1      14.963  55.333  51.007  1.00  0.00     0.014 A 
HETATM   13  C   UNL     1      14.473  55.062  52.292  1.00  0.00     0.018 A 
HETATM   14  C   UNL     1      14.310  56.093  53.221  1.00  0.00     0.037 A 
HETATM   15  C   UNL     1      14.635  57.409  52.889  1.00  0.00     0.068 A 
HETATM   16  C   UNL     1      15.115  57.690  51.610  1.00  0.00     0.037 A 
HETATM   17  C   UNL     1      15.276  56.658  50.676  1.00  0.00     0.018 A 
BRANCH  15  18
HETATM   18  O   UNL     1      14.436  58.318  53.891  1.00  0.00    -0.356 OA
HETATM   19  C   UNL     1      13.920  57.818  55.118  1.00  0.00     0.210 C 
ENDBRANCH  15  18
ENDBRANCH   7  12
BRANCH   9  20
HETATM   20  C   UNL     1      17.728  51.151  49.074  1.00  0.00    -0.028 A 
HETATM   21  C   UNL     1      18.317  50.361  50.079  1.00  0.00     0.012 A 
HETATM   22  C   UNL     1      19.699  50.385  50.281  1.00  0.00     0.043 A 
HETATM   23  C   UNL     1      20.495  51.199  49.486  1.00  0.00     0.116 A 
HETATM   24  F   UNL     1      21.820  51.218  49.681  1.00  0.00    -0.206 F 
HETATM   25  C   UNL     1      19.936  51.997  48.498  1.00  0.00     0.043 A 
HETATM   26  C   UNL     1      18.556  51.981  48.294  1.00  0.00     0.012 A 
ENDBRANCH   9  20
BRANCH  10  27
HETATM   27  C   UNL     1      15.787  49.125  47.287  1.00  0.00     0.249 C 
HETATM   28  N   UNL     1      16.901  48.599  46.718  1.00  0.00    -0.366 N 
HETATM   29  H   UNL     1      17.640  49.131  46.282  1.00  0.00     0.159 HD
HETATM   30  H   UNL     1      16.879  47.604  46.528  1.00  0.00     0.159 HD
HETATM   31  O   UNL     1      14.865  48.388  47.614  1.00  0.00    -0.268 OA
ENDBRANCH  10  27
TORSDOF 4
ENDMDL
MODEL 4
REMARK VINA RESULT:      -7.6     12.492     14.759
REMARK  4 active torsions:
REMARK  status: ('A' for Active; 'I' for Inactive)
REMARK    1  A    between atoms: C_7  and  C_8 
REMARK    2  A    between atoms: C_11  and  O_12 
REMARK    3  A    between atoms: C_17  and  C_18 
REMARK    4  A    between atoms: C_25  and  C_26 
REMARK       I    between atoms: C_26  and  N_27 
ROOT
HETATM    1  C   UNL     1      34.324  49.310  41.606  1.00  0.00     0.070 C 
HETATM    2  C   UNL     1      32.849  49.149  41.330  1.00  0.00     0.037 C 
HETATM    3  N   UNL     1      32.500  48.048  40.547  1.00  0.00    -0.192 N 
HETATM    4  C   UNL     1      31.226  47.642  40.389  1.00  0.00     0.726 A 
HETATM    5  N   UNL     1      30.216  48.437  40.843  1.00  0.00    -0.083 N 
HETATM    6  N   UNL     1      29.014  47.849  40.702  1.00  0.00    -0.135 NA
HETATM    7  C   UNL     1      29.354  46.706  40.077  1.00  0.00     0.199 A 
HETATM    8  N   UNL     1      30.718  46.552  39.879  1.00  0.00    -0.041 NA
HETATM    9  C   UNL     1      30.420  49.767  41.422  1.00  0.00     0.202 C 
HETATM   10  C   UNL     1      31.885  49.992  41.789  1.00  0.00     0.062 C 
HETATM   11  H   UNL     1      33.243  47.394  40.312  1.00  0.00     0.184 HD
ENDROOT
BRANCH   7  12
HETATM   12  C   UNL     1      28.386  45.705  39.635  1.00  0.00     0.014 A 
HETATM   13  C   UNL     1      27.011  45.894  39.835  1.00  0.00     0.018 A 
HETATM   14  C   UNL     1      26.092  44.937  39.396  1.00  0.00     0.037 A 
HETATM   15  C   UNL     1      26.525  43.780  38.745  1.00  0.00     0.068 A 
HETATM   16  C   UNL     1      27.890  43.580  38.548  1.00  0.00     0.037 A 
HETATM   17  C   UNL     1      28.814  44.536  38.991  1.00  0.00     0.018 A 
BRANCH  15  18
HETATM   18  O   UNL     1      25.523  42.932  38.359  1.00  0.00    -0.356 OA
HETATM   19  C   UNL     1      24.844  42.229  39.393  1.00  0.00     0.210 C 
ENDBRANCH  15  18
ENDBRANCH   7  12
BRANCH   9  20
HETATM   20  C   UNL     1      29.855  50.809  40.450  1.00  0.00    -0.028 A 
HETATM   21  C   UNL     1      30.301  50.825  39.116  1.00  0.00     0.012 A 
HETATM   22  C   UNL     1      29.812  51.772  38.214  1.00  0.00     0.043 A 
HETATM   23  C   UNL     1      28.881  52.709  38.642  1.00  0.00     0.116 A 
HETATM   24  F   UNL     1      28.411  53.616  37.775  1.00  0.00    -0.206 F 
HETATM   25  C   UNL     1      28.435  52.724  39.957  1.00  0.00     0.043 A 
HETATM   26  C   UNL     1      28.924  51.782  40.863  1.00  0.00     0.012 A 
ENDBRANCH   9  20
BRANCH  10  27
HETATM   27  C   UNL     1      32.207  51.043  42.791  1.00  0.00     0.249 C 
HETATM   28  N   UNL     1      32.509  52.281  42.324  1.00  0.00    -0.366 N 
HETATM   29  H   UNL     1      32.705  52.509  41.360  1.00  0.00     0.159 HD
HETATM   30  H   UNL     1      32.767  52.971  43.020  1.00  0.00     0.159 HD
HETATM   31  O   UNL     1      32.177  50.840  43.999  1.00  0.00    -0.268 OA
ENDBRANCH  10  27
TORSDOF 4
ENDMDL
MODEL 5
REMARK VINA RESULT:      -7.4     11.479     14.621
REMARK  4 active torsions:
REMARK  status: ('A' for Active; 'I' for Inactive)
REMARK    1  A    between atoms: C_7  and  C_8 
REMARK    2  A    between atoms: C_11  and  O_12 
REMARK    3  A    between atoms: C_17  and  C_18 
REMARK    4  A    between atoms: C_25  and  C_26 
REMARK       I    between atoms: C_26  and  N_27 
ROOT
HETATM    1  C   UNL     1      16.988  47.081  45.440  1.00  0.00     0.070 C 
HETATM    2  C   UNL     1      17.112  48.107  46.540  1.00  0.00     0.037 C 
HETATM    3  N   UNL     1      16.396  49.288  46.345  1.00  0.00    -0.192 N 
HETATM    4  C   UNL     1      16.227  50.206  47.316  1.00  0.00     0.726 A 
HETATM    5  N   UNL     1      16.936  50.083  48.474  1.00  0.00    -0.083 N 
HETATM    6  N   UNL     1      16.583  51.015  49.378  1.00  0.00    -0.135 NA
HETATM    7  C   UNL     1      15.689  51.736  48.674  1.00  0.00     0.199 A 
HETATM    8  N   UNL     1      15.447  51.250  47.398  1.00  0.00    -0.041 NA
HETATM    9  C   UNL     1      17.952  49.054  48.704  1.00  0.00     0.202 C 
HETATM   10  C   UNL     1      17.859  47.940  47.665  1.00  0.00     0.062 C 
HETATM   11  H   UNL     1      15.776  49.325  45.540  1.00  0.00     0.184 HD
ENDROOT
BRANCH   7  12
HETATM   12  C   UNL     1      15.026  52.931  49.191  1.00  0.00     0.014 A 
HETATM   13  C   UNL     1      14.886  53.139  50.571  1.00  0.00     0.018 A 
HETATM   14  C   UNL     1      14.263  54.292  51.055  1.00  0.00     0.037 A 
HETATM   15  C   UNL     1      13.773  55.259  50.176  1.00  0.00     0.068 A 
HETATM   16  C   UNL     1      13.900  55.058  48.802  1.00  0.00     0.037 A 
HETATM   17  C   UNL     1      14.521  53.900  48.314  1.00  0.00     0.018 A 
BRANCH  15  18
HETATM   18  O   UNL     1      13.194  56.341  50.781  1.00  0.00    -0.356 OA
HETATM   19  C   UNL     1      11.922  56.136  51.382  1.00  0.00     0.210 C 
ENDBRANCH  15  18
ENDBRANCH   7  12
BRANCH   9  20
HETATM   20  C   UNL     1      19.325  49.736  48.764  1.00  0.00    -0.028 A 
HETATM   21  C   UNL     1      20.059  49.917  47.577  1.00  0.00     0.012 A 
HETATM   22  C   UNL     1      21.317  50.523  47.606  1.00  0.00     0.043 A 
HETATM   23  C   UNL     1      21.848  50.944  48.818  1.00  0.00     0.116 A 
HETATM   24  F   UNL     1      23.054  51.526  48.843  1.00  0.00    -0.206 F 
HETATM   25  C   UNL     1      21.150  50.764  50.004  1.00  0.00     0.043 A 
HETATM   26  C   UNL     1      19.894  50.155  49.981  1.00  0.00     0.012 A 
ENDBRANCH   9  20
BRANCH  10  27
HETATM   27  C   UNL     1      18.457  46.619  47.993  1.00  0.00     0.249 C 
HETATM   28  N   UNL     1      17.639  45.677  48.526  1.00  0.00    -0.366 N 
HETATM   29  H   UNL     1      16.708  45.845  48.881  1.00  0.00     0.159 HD
HETATM   30  H   UNL     1      18.075  44.799  48.783  1.00  0.00     0.159 HD
HETATM   31  O   UNL     1      19.632  46.349  47.772  1.00  0.00    -0.268 OA
ENDBRANCH  10  27
TORSDOF 4
ENDMDL
MODEL 6
REMARK VINA RESULT:      -7.4      2.456      7.482
REMARK  4 active torsions:
REMARK  status: ('A' for Active; 'I' for Inactive)
REMARK    1  A    between atoms: C_7  and  C_8 
REMARK    2  A    between atoms: C_11  and  O_12 
REMARK    3  A    between atoms: C_17  and  C_18 
REMARK    4  A    between atoms: C_25  and  C_26 
REMARK       I    between atoms: C_26  and  N_27 
ROOT
HETATM    1  C   UNL     1      30.006  42.951  54.251  1.00  0.00     0.070 C 
HETATM    2  C   UNL     1      28.893  42.575  53.302  1.00  0.00     0.037 C 
HETATM    3  N   UNL     1      29.250  41.707  52.270  1.00  0.00    -0.192 N 
HETATM    4  C   UNL     1      28.342  41.109  51.475  1.00  0.00     0.726 A 
HETATM    5  N   UNL     1      27.039  41.507  51.542  1.00  0.00    -0.083 N 
HETATM    6  N   UNL     1      26.245  40.750  50.764  1.00  0.00    -0.135 NA
HETATM    7  C   UNL     1      27.147  39.939  50.179  1.00  0.00     0.199 A 
HETATM    8  N   UNL     1      28.450  40.137  50.609  1.00  0.00    -0.041 NA
HETATM    9  C   UNL     1      26.566  42.618  52.370  1.00  0.00     0.202 C 
HETATM   10  C   UNL     1      27.614  43.025  53.403  1.00  0.00     0.062 C 
HETATM   11  H   UNL     1      30.190  41.320  52.295  1.00  0.00     0.184 HD
ENDROOT
BRANCH   7  12
HETATM   12  C   UNL     1      26.803  38.935  49.175  1.00  0.00     0.014 A 
HETATM   13  C   UNL     1      26.900  37.566  49.461  1.00  0.00     0.018 A 
HETATM   14  C   UNL     1      26.555  36.613  48.499  1.00  0.00     0.037 A 
HETATM   15  C   UNL     1      26.103  37.006  47.238  1.00  0.00     0.068 A 
HETATM   16  C   UNL     1      26.010  38.366  46.942  1.00  0.00     0.037 A 
HETATM   17  C   UNL     1      26.359  39.322  47.904  1.00  0.00     0.018 A 
BRANCH  15  18
HETATM   18  O   UNL     1      25.791  35.975  46.395  1.00  0.00    -0.356 OA
HETATM   19  C   UNL     1      26.337  34.701  46.711  1.00  0.00     0.210 C 
ENDBRANCH  15  18
ENDBRANCH   7  12
BRANCH   9  20
HETATM   20  C   UNL     1      26.131  43.759  51.443  1.00  0.00    -0.028 A 
HETATM   21  C   UNL     1      24.785  44.172  51.438  1.00  0.00     0.012 A 
HETATM   22  C   UNL     1      24.361  45.200  50.593  1.00  0.00     0.043 A 
HETATM   23  C   UNL     1      25.274  45.815  49.748  1.00  0.00     0.116 A 
HETATM   24  F   UNL     1      24.865  46.801  48.940  1.00  0.00    -0.206 F 
HETATM   25  C   UNL     1      26.604  45.417  49.723  1.00  0.00     0.043 A 
HETATM   26  C   UNL     1      27.033  44.387  50.562  1.00  0.00     0.012 A 
ENDBRANCH   9  20
BRANCH  10  27
HETATM   27  C   UNL     1      27.163  43.777  54.604  1.00  0.00     0.249 C 
HETATM   28  N   UNL     1      26.087  43.296  55.276  1.00  0.00    -0.366 N 
HETATM   29  H   UNL     1      25.461  42.579  54.938  1.00  0.00     0.159 HD
HETATM   30  H   UNL     1      25.769  43.846  56.066  1.00  0.00     0.159 HD
HETATM   31  O   UNL     1      27.739  44.777  55.016  1.00  0.00    -0.268 OA
ENDBRANCH  10  27
TORSDOF 4
ENDMDL
MODEL 7
REMARK VINA RESULT:      -7.3      8.091     11.280
REMARK  4 active torsions:
REMARK  status: ('A' for Active; 'I' for Inactive)
REMARK    1  A    between atoms: C_7  and  C_8 
REMARK    2  A    between atoms: C_11  and  O_12 
REMARK    3  A    between atoms: C_17  and  C_18 
REMARK    4  A    between atoms: C_25  and  C_26 
REMARK       I    between atoms: C_26  and  N_27 
ROOT
HETATM    1  C   UNL     1      21.084  44.583  45.449  1.00  0.00     0.070 C 
HETATM    2  C   UNL     1      21.000  45.672  46.491  1.00  0.00     0.037 C 
HETATM    3  N   UNL     1      20.137  46.726  46.192  1.00  0.00    -0.192 N 
HETATM    4  C   UNL     1      19.787  47.659  47.098  1.00  0.00     0.726 A 
HETATM    5  N   UNL     1      20.440  47.700  48.293  1.00  0.00    -0.083 N 
HETATM    6  N   UNL     1      19.909  48.616  49.123  1.00  0.00    -0.135 NA
HETATM    7  C   UNL     1      18.964  49.165  48.335  1.00  0.00     0.199 A 
HETATM    8  N   UNL     1      18.864  48.583  47.080  1.00  0.00    -0.041 NA
HETATM    9  C   UNL     1      21.577  46.841  48.633  1.00  0.00     0.202 C 
HETATM   10  C   UNL     1      21.699  45.673  47.658  1.00  0.00     0.062 C 
HETATM   11  H   UNL     1      19.564  46.631  45.357  1.00  0.00     0.184 HD
ENDROOT
BRANCH   7  12
HETATM   12  C   UNL     1      18.111  50.277  48.748  1.00  0.00     0.014 A 
HETATM   13  C   UNL     1      18.645  51.385  49.420  1.00  0.00     0.018 A 
HETATM   14  C   UNL     1      17.823  52.450  49.798  1.00  0.00     0.037 A 
HETATM   15  C   UNL     1      16.458  52.433  49.509  1.00  0.00     0.068 A 
HETATM   16  C   UNL     1      15.916  51.332  48.848  1.00  0.00     0.037 A 
HETATM   17  C   UNL     1      16.737  50.261  48.471  1.00  0.00     0.018 A 
BRANCH  15  18
HETATM   18  O   UNL     1      15.771  53.540  49.926  1.00  0.00    -0.356 OA
HETATM   19  C   UNL     1      14.602  53.315  50.703  1.00  0.00     0.210 C 
ENDBRANCH  15  18
ENDBRANCH   7  12
BRANCH   9  20
HETATM   20  C   UNL     1      22.834  47.714  48.717  1.00  0.00    -0.028 A 
HETATM   21  C   UNL     1      22.896  48.911  47.979  1.00  0.00     0.012 A 
HETATM   22  C   UNL     1      24.035  49.717  48.028  1.00  0.00     0.043 A 
HETATM   23  C   UNL     1      25.116  49.331  48.809  1.00  0.00     0.116 A 
HETATM   24  F   UNL     1      26.206  50.107  48.856  1.00  0.00    -0.206 F 
HETATM   25  C   UNL     1      25.085  48.149  49.536  1.00  0.00     0.043 A 
HETATM   26  C   UNL     1      23.951  47.337  49.487  1.00  0.00     0.012 A 
ENDBRANCH   9  20
BRANCH  10  27
HETATM   27  C   UNL     1      22.458  44.470  48.092  1.00  0.00     0.249 C 
HETATM   28  N   UNL     1      23.739  44.349  47.661  1.00  0.00    -0.366 N 
HETATM   29  H   UNL     1      24.166  44.907  46.936  1.00  0.00     0.159 HD
HETATM   30  H   UNL     1      24.224  43.501  47.932  1.00  0.00     0.159 HD
HETATM   31  O   UNL     1      21.984  43.619  48.836  1.00  0.00    -0.268 OA
ENDBRANCH  10  27
TORSDOF 4
ENDMDL
MODEL 8
REMARK VINA RESULT:      -7.3      3.857      5.088
REMARK  4 active torsions:
REMARK  status: ('A' for Active; 'I' for Inactive)
REMARK    1  A    between atoms: C_7  and  C_8 
REMARK    2  A    between atoms: C_11  and  O_12 
REMARK    3  A    between atoms: C_17  and  C_18 
REMARK    4  A    between atoms: C_25  and  C_26 
REMARK       I    between atoms: C_26  and  N_27 
ROOT
HETATM    1  C   UNL     1      22.394  41.331  47.616  1.00  0.00     0.070 C 
HETATM    2  C   UNL     1      22.829  42.641  48.228  1.00  0.00     0.037 C 
HETATM    3  N   UNL     1      23.169  42.591  49.580  1.00  0.00    -0.192 N 
HETATM    4  C   UNL     1      23.776  43.612  50.215  1.00  0.00     0.726 A 
HETATM    5  N   UNL     1      23.893  44.812  49.581  1.00  0.00    -0.083 N 
HETATM    6  N   UNL     1      24.608  45.693  50.303  1.00  0.00    -0.135 NA
HETATM    7  C   UNL     1      24.842  44.983  51.423  1.00  0.00     0.199 A 
HETATM    8  N   UNL     1      24.344  43.689  51.389  1.00  0.00    -0.041 NA
HETATM    9  C   UNL     1      23.315  45.101  48.266  1.00  0.00     0.202 C 
HETATM   10  C   UNL     1      22.900  43.818  47.549  1.00  0.00     0.062 C 
HETATM   11  H   UNL     1      23.195  41.673  50.016  1.00  0.00     0.184 HD
ENDROOT
BRANCH   7  12
HETATM   12  C   UNL     1      25.554  45.512  52.584  1.00  0.00     0.014 A 
HETATM   13  C   UNL     1      26.212  44.657  53.479  1.00  0.00     0.018 A 
HETATM   14  C   UNL     1      26.902  45.174  54.579  1.00  0.00     0.037 A 
HETATM   15  C   UNL     1      26.953  46.551  54.803  1.00  0.00     0.068 A 
HETATM   16  C   UNL     1      26.295  47.409  53.923  1.00  0.00     0.037 A 
HETATM   17  C   UNL     1      25.600  46.892  52.822  1.00  0.00     0.018 A 
BRANCH  15  18
HETATM   18  O   UNL     1      27.668  46.923  55.908  1.00  0.00    -0.356 OA
HETATM   19  C   UNL     1      28.855  46.189  56.182  1.00  0.00     0.210 C 
ENDBRANCH  15  18
ENDBRANCH   7  12
BRANCH   9  20
HETATM   20  C   UNL     1      22.174  46.107  48.450  1.00  0.00    -0.028 A 
HETATM   21  C   UNL     1      20.856  45.638  48.607  1.00  0.00     0.012 A 
HETATM   22  C   UNL     1      19.797  46.535  48.763  1.00  0.00     0.043 A 
HETATM   23  C   UNL     1      20.048  47.901  48.758  1.00  0.00     0.116 A 
HETATM   24  F   UNL     1      19.031  48.759  48.910  1.00  0.00    -0.206 F 
HETATM   25  C   UNL     1      21.337  48.389  48.591  1.00  0.00     0.043 A 
HETATM   26  C   UNL     1      22.398  47.498  48.430  1.00  0.00     0.012 A 
ENDBRANCH   9  20
BRANCH  10  27
HETATM   27  C   UNL     1      22.747  43.856  46.070  1.00  0.00     0.249 C 
HETATM   28  N   UNL     1      23.868  43.701  45.321  1.00  0.00    -0.366 N 
HETATM   29  H   UNL     1      24.814  43.737  45.672  1.00  0.00     0.159 HD
HETATM   30  H   UNL     1      23.749  43.774  44.317  1.00  0.00     0.159 HD
HETATM   31  O   UNL     1      21.661  43.987  45.519  1.00  0.00    -0.268 OA
ENDBRANCH  10  27
TORSDOF 4
ENDMDL
MODEL 9
REMARK VINA RESULT:      -7.3     13.128     14.672
REMARK  4 active torsions:
REMARK  status: ('A' for Active; 'I' for Inactive)
REMARK    1  A    between atoms: C_7  and  C_8 
REMARK    2  A    between atoms: C_11  and  O_12 
REMARK    3  A    between atoms: C_17  and  C_18 
REMARK    4  A    between atoms: C_25  and  C_26 
REMARK       I    between atoms: C_26  and  N_27 
ROOT
HETATM    1  C   UNL     1      28.874  53.807  38.907  1.00  0.00     0.070 C 
HETATM    2  C   UNL     1      29.686  52.828  39.720  1.00  0.00     0.037 C 
HETATM    3  N   UNL     1      31.071  52.974  39.630  1.00  0.00    -0.192 N 
HETATM    4  C   UNL     1      31.925  52.330  40.449  1.00  0.00     0.726 A 
HETATM    5  N   UNL     1      31.447  51.352  41.269  1.00  0.00    -0.083 N 
HETATM    6  N   UNL     1      32.400  50.878  42.091  1.00  0.00    -0.135 NA
HETATM    7  C   UNL     1      33.476  51.568  41.668  1.00  0.00     0.199 A 
HETATM    8  N   UNL     1      33.206  52.478  40.658  1.00  0.00    -0.041 NA
HETATM    9  C   UNL     1      30.059  50.883  41.258  1.00  0.00     0.202 C 
HETATM   10  C   UNL     1      29.153  51.851  40.502  1.00  0.00     0.062 C 
HETATM   11  H   UNL     1      31.418  53.778  39.114  1.00  0.00     0.184 HD
ENDROOT
BRANCH   7  12
HETATM   12  C   UNL     1      34.820  51.384  42.211  1.00  0.00     0.014 A 
HETATM   13  C   UNL     1      35.745  50.542  41.578  1.00  0.00     0.018 A 
HETATM   14  C   UNL     1      37.033  50.385  42.097  1.00  0.00     0.037 A 
HETATM   15  C   UNL     1      37.424  51.066  43.251  1.00  0.00     0.068 A 
HETATM   16  C   UNL     1      36.508  51.899  43.893  1.00  0.00     0.037 A 
HETATM   17  C   UNL     1      35.215  52.055  43.376  1.00  0.00     0.018 A 
BRANCH  15  18
HETATM   18  O   UNL     1      38.712  50.829  43.646  1.00  0.00    -0.356 OA
HETATM   19  C   UNL     1      39.049  49.485  43.962  1.00  0.00     0.210 C 
ENDBRANCH  15  18
ENDBRANCH   7  12
BRANCH   9  20
HETATM   20  C   UNL     1      30.038  49.452  40.706  1.00  0.00    -0.028 A 
HETATM   21  C   UNL     1      30.792  49.141  39.560  1.00  0.00     0.012 A 
HETATM   22  C   UNL     1      30.779  47.849  39.030  1.00  0.00     0.043 A 
HETATM   23  C   UNL     1      30.010  46.866  39.638  1.00  0.00     0.116 A 
HETATM   24  F   UNL     1      30.001  45.627  39.130  1.00  0.00    -0.206 F 
HETATM   25  C   UNL     1      29.246  47.151  40.762  1.00  0.00     0.043 A 
HETATM   26  C   UNL     1      29.252  48.441  41.293  1.00  0.00     0.012 A 
ENDBRANCH   9  20
BRANCH  10  27
HETATM   27  C   UNL     1      27.692  51.809  40.778  1.00  0.00     0.249 C 
HETATM   28  N   UNL     1      26.956  50.885  40.110  1.00  0.00    -0.366 N 
HETATM   29  H   UNL     1      27.276  50.344  39.320  1.00  0.00     0.159 HD
HETATM   30  H   UNL     1      25.956  50.901  40.279  1.00  0.00     0.159 HD
HETATM   31  O   UNL     1      27.149  52.544  41.594  1.00  0.00    -0.268 OA
ENDBRANCH  10  27
TORSDOF 4
ENDMDL
MODEL 10
REMARK VINA RESULT:      -7.0     12.454     15.164
REMARK  4 active torsions:
REMARK  status: ('A' for Active; 'I' for Inactive)
REMARK    1  A    between atoms: C_7  and  C_8 
REMARK    2  A    between atoms: C_11  and  O_12 
REMARK    3  A    between atoms: C_17  and  C_18 
REMARK    4  A    between atoms: C_25  and  C_26 
REMARK       I    between atoms: C_26  and  N_27 
ROOT
HETATM    1  C   UNL     1      27.202  52.723  41.641  1.00  0.00     0.070 C 
HETATM    2  C   UNL     1      28.058  51.617  41.071  1.00  0.00     0.037 C 
HETATM    3  N   UNL     1      27.641  50.319  41.369  1.00  0.00    -0.192 N 
HETATM    4  C   UNL     1      28.160  49.232  40.767  1.00  0.00     0.726 A 
HETATM    5  N   UNL     1      29.265  49.374  39.981  1.00  0.00    -0.083 N 
HETATM    6  N   UNL     1      29.599  48.221  39.374  1.00  0.00    -0.135 NA
HETATM    7  C   UNL     1      28.688  47.377  39.897  1.00  0.00     0.199 A 
HETATM    8  N   UNL     1      27.782  47.982  40.756  1.00  0.00    -0.041 NA
HETATM    9  C   UNL     1      29.991  50.635  39.813  1.00  0.00     0.202 C 
HETATM   10  C   UNL     1      29.168  51.819  40.313  1.00  0.00     0.062 C 
HETATM   11  H   UNL     1      26.752  50.219  41.853  1.00  0.00     0.184 HD
ENDROOT
BRANCH   7  12
HETATM   12  C   UNL     1      28.644  45.948  39.600  1.00  0.00     0.014 A 
HETATM   13  C   UNL     1      29.384  45.408  38.539  1.00  0.00     0.018 A 
HETATM   14  C   UNL     1      29.346  44.037  38.272  1.00  0.00     0.037 A 
HETATM   15  C   UNL     1      28.576  43.179  39.059  1.00  0.00     0.068 A 
HETATM   16  C   UNL     1      27.830  43.708  40.112  1.00  0.00     0.037 A 
HETATM   17  C   UNL     1      27.864  45.083  40.379  1.00  0.00     0.018 A 
BRANCH  15  18
HETATM   18  O   UNL     1      28.635  41.862  38.696  1.00  0.00    -0.356 OA
HETATM   19  C   UNL     1      29.663  41.493  37.786  1.00  0.00     0.210 C 
ENDBRANCH  15  18
ENDBRANCH   7  12
BRANCH   9  20
HETATM   20  C   UNL     1      31.359  50.498  40.492  1.00  0.00    -0.028 A 
HETATM   21  C   UNL     1      31.429  50.060  41.828  1.00  0.00     0.012 A 
HETATM   22  C   UNL     1      32.661  49.940  42.472  1.00  0.00     0.043 A 
HETATM   23  C   UNL     1      33.827  50.260  41.789  1.00  0.00     0.116 A 
HETATM   24  F   UNL     1      35.008  50.142  42.409  1.00  0.00    -0.206 F 
HETATM   25  C   UNL     1      33.785  50.707  40.476  1.00  0.00     0.043 A 
HETATM   26  C   UNL     1      32.555  50.834  39.828  1.00  0.00     0.012 A 
ENDBRANCH   9  20
BRANCH  10  27
HETATM   27  C   UNL     1      29.510  53.177  39.809  1.00  0.00     0.249 C 
HETATM   28  N   UNL     1      30.423  53.893  40.513  1.00  0.00    -0.366 N 
HETATM   29  H   UNL     1      30.759  53.663  41.437  1.00  0.00     0.159 HD
HETATM   30  H   UNL     1      30.609  54.832  40.179  1.00  0.00     0.159 HD
HETATM   31  O   UNL     1      29.028  53.645  38.785  1.00  0.00    -0.268 OA
ENDBRANCH  10  27
TORSDOF 4
ENDMDL
