MODEL 1
REMARK VINA RESULT:      -8.7      0.000      0.000
REMARK  7 active torsions:
REMARK  status: ('A' for Active; 'I' for Inactive)
REMARK    1  A    between atoms: O_2  and  C_3 
REMARK    2  A    between atoms: C_3  and  C_5 
REMARK    3  A    between atoms: C_9  and  N_10 
REMARK       I    between atoms: N_10  and  C_13 
REMARK    4  A    between atoms: C_13  and  C_15 
REMARK    5  A    between atoms: C_15  and  C_16 
REMARK    6  A    between atoms: C_16  and  N_17 
REMARK    7  A    between atoms: N_23  and  C_26 
ROOT
HETATM    1  C   UNL     1      26.956  45.233  53.048  1.00  0.00     0.142 A 
HETATM    2  N   UNL     1      26.011  46.200  52.953  1.00  0.00    -0.224 NA
HETATM    3  C   UNL     1      25.997  47.173  53.895  1.00  0.00     0.237 A 
HETATM    4  N   UNL     1      26.792  47.299  54.967  1.00  0.00    -0.223 NA
HETATM    5  C   UNL     1      27.710  46.327  55.024  1.00  0.00     0.144 A 
HETATM    6  N   UNL     1      28.673  46.207  55.992  1.00  0.00    -0.348 N 
HETATM    7  H   UNL     1      28.780  46.846  56.769  1.00  0.00     0.167 HD
HETATM    8  C   UNL     1      29.464  45.112  55.721  1.00  0.00     0.113 A 
HETATM    9  C   UNL     1      28.993  44.538  54.558  1.00  0.00     0.077 A 
HETATM   10  C   UNL     1      29.530  43.395  53.888  1.00  0.00     0.102 C 
HETATM   11  N   UNL     1      29.841  42.472  53.255  1.00  0.00    -0.191 NA
HETATM   12  C   UNL     1      27.863  45.287  54.124  1.00  0.00     0.078 A 
ENDROOT
BRANCH   1  13
HETATM   13  N   UNL     1      27.025  44.230  52.070  1.00  0.00    -0.365 N 
HETATM   14  C   UNL     1      25.959  43.244  52.185  1.00  0.00     0.126 C 
HETATM   15  C   UNL     1      24.846  43.548  51.196  1.00  0.00     0.041 C 
HETATM   16  C   UNL     1      25.367  43.757  49.762  1.00  0.00     0.076 C 
HETATM   17  C   UNL     1      26.480  44.825  49.723  1.00  0.00     0.041 C 
HETATM   18  C   UNL     1      27.555  44.685  50.799  1.00  0.00     0.126 C 
BRANCH  16  19
HETATM   19  C   UNL     1      25.887  42.391  49.227  1.00  0.00     0.330 C 
HETATM   20  N   UNL     1      27.083  42.219  48.456  1.00  0.00     0.018 N 
HETATM   21  H   UNL     1      27.872  42.658  48.949  1.00  0.00     0.294 HD
HETATM   22  H   UNL     1      27.013  42.777  47.602  1.00  0.00     0.294 HD
HETATM   23  O   UNL     1      25.300  41.349  49.478  1.00  0.00    -0.264 OA
BRANCH  20  24
HETATM   24  C   UNL     1      27.489  40.872  48.071  1.00  0.00     0.142 A 
HETATM   25  C   UNL     1      27.076  40.355  46.842  1.00  0.00     0.037 A 
HETATM   26  C   UNL     1      27.515  39.092  46.446  1.00  0.00     0.003 A 
HETATM   27  C   UNL     1      28.365  38.352  47.272  1.00  0.00     0.018 A 
HETATM   28  C   UNL     1      28.780  38.875  48.503  1.00  0.00     0.041 A 
HETATM   29  C   UNL     1      28.338  40.146  48.903  1.00  0.00     0.055 A 
BRANCH  28  30
HETATM   30  C   UNL     1      29.683  38.137  49.424  1.00  0.00     0.293 C 
HETATM   31  O   UNL     1      30.896  38.175  49.301  1.00  0.00    -0.259 OA
BRANCH  30  32
HETATM   32  O   UNL     1      28.976  37.440  50.339  1.00  0.00    -0.323 OA
HETATM   33  C   UNL     1      29.771  36.861  51.377  1.00  0.00     0.213 C 
ENDBRANCH  30  32
ENDBRANCH  28  30
ENDBRANCH  20  24
ENDBRANCH  16  19
BRANCH  16  34
HETATM   34  C   UNL     1      24.181  44.153  48.803  1.00  0.00     0.253 C 
BRANCH  34  35
HETATM   35  N   UNL     1      23.086  45.068  49.354  1.00  0.00    -0.078 N 
HETATM   36  H   UNL     1      23.077  45.025  50.383  1.00  0.00     0.279 HD
HETATM   37  C   UNL     1      23.168  46.530  48.987  1.00  0.00     0.269 C 
HETATM   38  C   UNL     1      21.710  44.533  48.965  1.00  0.00     0.269 C 
ENDBRANCH  34  35
ENDBRANCH  16  34
ENDBRANCH   1  13
TORSDOF 7
ENDMDL
MODEL 2
REMARK VINA RESULT:      -8.7      2.925      7.055
REMARK  7 active torsions:
REMARK  status: ('A' for Active; 'I' for Inactive)
REMARK    1  A    between atoms: O_2  and  C_3 
REMARK    2  A    between atoms: C_3  and  C_5 
REMARK    3  A    between atoms: C_9  and  N_10 
REMARK       I    between atoms: N_10  and  C_13 
REMARK    4  A    between atoms: C_13  and  C_15 
REMARK    5  A    between atoms: C_15  and  C_16 
REMARK    6  A    between atoms: C_16  and  N_17 
REMARK    7  A    between atoms: N_23  and  C_26 
ROOT
HETATM    1  C   UNL     1      27.645  44.191  52.939  1.00  0.00     0.142 A 
HETATM    2  N   UNL     1      28.215  42.978  52.737  1.00  0.00    -0.224 NA
HETATM    3  C   UNL     1      29.129  42.544  53.639  1.00  0.00     0.237 A 
HETATM    4  N   UNL     1      29.590  43.183  54.723  1.00  0.00    -0.223 NA
HETATM    5  C   UNL     1      29.002  44.374  54.887  1.00  0.00     0.144 A 
HETATM    6  N   UNL     1      29.252  45.242  55.918  1.00  0.00    -0.348 N 
HETATM    7  H   UNL     1      29.918  45.067  56.659  1.00  0.00     0.167 HD
HETATM    8  C   UNL     1      28.449  46.353  55.789  1.00  0.00     0.113 A 
HETATM    9  C   UNL     1      27.674  46.177  54.661  1.00  0.00     0.077 A 
HETATM   10  C   UNL     1      26.675  47.067  54.159  1.00  0.00     0.102 C 
HETATM   11  N   UNL     1      25.859  47.701  53.628  1.00  0.00    -0.191 NA
HETATM   12  C   UNL     1      28.038  44.935  54.068  1.00  0.00     0.078 A 
ENDROOT
BRANCH   1  13
HETATM   13  N   UNL     1      26.668  44.657  52.046  1.00  0.00    -0.365 N 
HETATM   14  C   UNL     1      27.145  44.749  50.673  1.00  0.00     0.126 C 
HETATM   15  C   UNL     1      26.698  43.536  49.874  1.00  0.00     0.041 C 
HETATM   16  C   UNL     1      25.188  43.263  50.006  1.00  0.00     0.076 C 
HETATM   17  C   UNL     1      24.766  43.164  51.487  1.00  0.00     0.041 C 
HETATM   18  C   UNL     1      25.317  44.262  52.396  1.00  0.00     0.126 C 
BRANCH  16  19
HETATM   19  C   UNL     1      24.419  44.407  49.283  1.00  0.00     0.330 C 
HETATM   20  N   UNL     1      23.456  45.265  49.909  1.00  0.00     0.018 N 
HETATM   21  H   UNL     1      23.868  45.680  50.754  1.00  0.00     0.294 HD
HETATM   22  H   UNL     1      22.696  44.694  50.287  1.00  0.00     0.294 HD
HETATM   23  O   UNL     1      24.633  44.669  48.109  1.00  0.00    -0.264 OA
BRANCH  20  24
HETATM   24  C   UNL     1      22.854  46.340  49.129  1.00  0.00     0.142 A 
HETATM   25  C   UNL     1      21.665  46.104  48.435  1.00  0.00     0.037 A 
HETATM   26  C   UNL     1      21.057  47.150  47.741  1.00  0.00     0.003 A 
HETATM   27  C   UNL     1      21.631  48.424  47.743  1.00  0.00     0.018 A 
HETATM   28  C   UNL     1      22.821  48.658  48.443  1.00  0.00     0.041 A 
HETATM   29  C   UNL     1      23.435  47.606  49.142  1.00  0.00     0.055 A 
BRANCH  28  30
HETATM   30  C   UNL     1      23.478  49.990  48.484  1.00  0.00     0.293 C 
HETATM   31  O   UNL     1      23.218  50.807  49.351  1.00  0.00    -0.259 OA
BRANCH  30  32
HETATM   32  O   UNL     1      24.331  50.139  47.448  1.00  0.00    -0.323 OA
HETATM   33  C   UNL     1      25.713  50.118  47.819  1.00  0.00     0.213 C 
ENDBRANCH  30  32
ENDBRANCH  28  30
ENDBRANCH  20  24
ENDBRANCH  16  19
BRANCH  16  34
HETATM   34  C   UNL     1      24.801  41.949  49.227  1.00  0.00     0.253 C 
BRANCH  34  35
HETATM   35  N   UNL     1      25.339  41.771  47.806  1.00  0.00    -0.078 N 
HETATM   36  H   UNL     1      25.709  42.666  47.456  1.00  0.00     0.279 HD
HETATM   37  C   UNL     1      26.432  40.748  47.611  1.00  0.00     0.269 C 
HETATM   38  C   UNL     1      24.192  41.464  46.846  1.00  0.00     0.269 C 
ENDBRANCH  34  35
ENDBRANCH  16  34
ENDBRANCH   1  13
TORSDOF 7
ENDMDL
MODEL 3
REMARK VINA RESULT:      -8.4      4.168      7.980
REMARK  7 active torsions:
REMARK  status: ('A' for Active; 'I' for Inactive)
REMARK    1  A    between atoms: O_2  and  C_3 
REMARK    2  A    between atoms: C_3  and  C_5 
REMARK    3  A    between atoms: C_9  and  N_10 
REMARK       I    between atoms: N_10  and  C_13 
REMARK    4  A    between atoms: C_13  and  C_15 
REMARK    5  A    between atoms: C_15  and  C_16 
REMARK    6  A    between atoms: C_16  and  N_17 
REMARK    7  A    between atoms: N_23  and  C_26 
ROOT
HETATM    1  C   UNL     1      26.986  44.751  52.555  1.00  0.00     0.142 A 
HETATM    2  N   UNL     1      27.399  43.580  52.011  1.00  0.00    -0.224 NA
HETATM    3  C   UNL     1      28.296  42.836  52.702  1.00  0.00     0.237 A 
HETATM    4  N   UNL     1      28.880  43.122  53.874  1.00  0.00    -0.223 NA
HETATM    5  C   UNL     1      28.446  44.284  54.378  1.00  0.00     0.144 A 
HETATM    6  N   UNL     1      28.846  44.825  55.572  1.00  0.00    -0.348 N 
HETATM    7  H   UNL     1      29.520  44.396  56.192  1.00  0.00     0.167 HD
HETATM    8  C   UNL     1      28.174  46.008  55.789  1.00  0.00     0.113 A 
HETATM    9  C   UNL     1      27.331  46.210  54.715  1.00  0.00     0.077 A 
HETATM   10  C   UNL     1      26.422  47.297  54.531  1.00  0.00     0.102 C 
HETATM   11  N   UNL     1      25.663  48.127  54.239  1.00  0.00    -0.191 NA
HETATM   12  C   UNL     1      27.518  45.133  53.802  1.00  0.00     0.078 A 
ENDROOT
BRANCH   1  13
HETATM   13  N   UNL     1      26.031  45.529  51.885  1.00  0.00    -0.365 N 
HETATM   14  C   UNL     1      26.524  46.092  50.636  1.00  0.00     0.126 C 
HETATM   15  C   UNL     1      26.057  45.256  49.456  1.00  0.00     0.041 C 
HETATM   16  C   UNL     1      24.540  44.993  49.480  1.00  0.00     0.076 C 
HETATM   17  C   UNL     1      24.100  44.384  50.827  1.00  0.00     0.041 C 
HETATM   18  C   UNL     1      24.667  45.071  52.068  1.00  0.00     0.126 C 
BRANCH  16  19
HETATM   19  C   UNL     1      23.806  46.339  49.210  1.00  0.00     0.330 C 
HETATM   20  N   UNL     1      24.358  47.635  49.473  1.00  0.00     0.018 N 
HETATM   21  H   UNL     1      25.280  47.711  49.023  1.00  0.00     0.294 HD
HETATM   22  H   UNL     1      24.588  47.706  50.467  1.00  0.00     0.294 HD
HETATM   23  O   UNL     1      22.693  46.362  48.706  1.00  0.00    -0.264 OA
BRANCH  20  24
HETATM   24  C   UNL     1      23.586  48.819  49.114  1.00  0.00     0.142 A 
HETATM   25  C   UNL     1      24.115  49.737  48.205  1.00  0.00     0.037 A 
HETATM   26  C   UNL     1      23.351  50.836  47.815  1.00  0.00     0.003 A 
HETATM   27  C   UNL     1      22.063  51.015  48.327  1.00  0.00     0.018 A 
HETATM   28  C   UNL     1      21.534  50.091  49.237  1.00  0.00     0.041 A 
HETATM   29  C   UNL     1      22.303  48.984  49.631  1.00  0.00     0.055 A 
BRANCH  28  30
HETATM   30  C   UNL     1      20.172  50.227  49.815  1.00  0.00     0.293 C 
HETATM   31  O   UNL     1      19.713  51.313  50.129  1.00  0.00    -0.259 OA
BRANCH  30  32
HETATM   32  O   UNL     1      19.583  49.019  49.952  1.00  0.00    -0.323 OA
HETATM   33  C   UNL     1      18.679  48.930  51.057  1.00  0.00     0.213 C 
ENDBRANCH  30  32
ENDBRANCH  28  30
ENDBRANCH  20  24
ENDBRANCH  16  19
BRANCH  16  34
HETATM   34  C   UNL     1      24.131  44.053  48.283  1.00  0.00     0.253 C 
BRANCH  34  35
HETATM   35  N   UNL     1      22.803  43.300  48.382  1.00  0.00    -0.078 N 
HETATM   36  H   UNL     1      22.298  43.588  49.232  1.00  0.00     0.279 HD
HETATM   37  C   UNL     1      21.837  43.463  47.233  1.00  0.00     0.269 C 
HETATM   38  C   UNL     1      23.060  41.812  48.610  1.00  0.00     0.269 C 
ENDBRANCH  34  35
ENDBRANCH  16  34
ENDBRANCH   1  13
TORSDOF 7
ENDMDL
MODEL 4
REMARK VINA RESULT:      -8.2      2.853      7.277
REMARK  7 active torsions:
REMARK  status: ('A' for Active; 'I' for Inactive)
REMARK    1  A    between atoms: O_2  and  C_3 
REMARK    2  A    between atoms: C_3  and  C_5 
REMARK    3  A    between atoms: C_9  and  N_10 
REMARK       I    between atoms: N_10  and  C_13 
REMARK    4  A    between atoms: C_13  and  C_15 
REMARK    5  A    between atoms: C_15  and  C_16 
REMARK    6  A    between atoms: C_16  and  N_17 
REMARK    7  A    between atoms: N_23  and  C_26 
ROOT
HETATM    1  C   UNL     1      27.356  44.191  52.622  1.00  0.00     0.142 A 
HETATM    2  N   UNL     1      27.984  42.999  52.470  1.00  0.00    -0.224 NA
HETATM    3  C   UNL     1      28.935  42.658  53.372  1.00  0.00     0.237 A 
HETATM    4  N   UNL     1      29.383  43.376  54.413  1.00  0.00    -0.223 NA
HETATM    5  C   UNL     1      28.738  44.542  54.529  1.00  0.00     0.144 A 
HETATM    6  N   UNL     1      28.963  45.474  55.509  1.00  0.00    -0.348 N 
HETATM    7  H   UNL     1      29.651  45.370  56.244  1.00  0.00     0.167 HD
HETATM    8  C   UNL     1      28.102  46.535  55.341  1.00  0.00     0.113 A 
HETATM    9  C   UNL     1      27.316  46.263  54.240  1.00  0.00     0.077 A 
HETATM   10  C   UNL     1      26.264  47.075  53.715  1.00  0.00     0.102 C 
HETATM   11  N   UNL     1      25.407  47.639  53.169  1.00  0.00    -0.191 NA
HETATM   12  C   UNL     1      27.732  45.012  53.703  1.00  0.00     0.078 A 
ENDROOT
BRANCH   1  13
HETATM   13  N   UNL     1      26.341  44.561  51.728  1.00  0.00    -0.365 N 
HETATM   14  C   UNL     1      26.799  44.657  50.349  1.00  0.00     0.126 C 
HETATM   15  C   UNL     1      26.439  43.396  49.581  1.00  0.00     0.041 C 
HETATM   16  C   UNL     1      24.955  43.013  49.733  1.00  0.00     0.076 C 
HETATM   17  C   UNL     1      24.552  42.917  51.219  1.00  0.00     0.041 C 
HETATM   18  C   UNL     1      25.026  44.073  52.098  1.00  0.00     0.126 C 
BRANCH  16  19
HETATM   19  C   UNL     1      24.097  44.078  48.991  1.00  0.00     0.330 C 
HETATM   20  N   UNL     1      23.196  44.989  49.633  1.00  0.00     0.018 N 
HETATM   21  H   UNL     1      23.691  45.486  50.384  1.00  0.00     0.294 HD
HETATM   22  H   UNL     1      22.489  44.456  50.144  1.00  0.00     0.294 HD
HETATM   23  O   UNL     1      24.178  44.224  47.780  1.00  0.00    -0.264 OA
BRANCH  20  24
HETATM   24  C   UNL     1      22.498  45.981  48.823  1.00  0.00     0.142 A 
HETATM   25  C   UNL     1      21.340  45.616  48.133  1.00  0.00     0.037 A 
HETATM   26  C   UNL     1      20.639  46.580  47.409  1.00  0.00     0.003 A 
HETATM   27  C   UNL     1      21.089  47.902  47.379  1.00  0.00     0.018 A 
HETATM   28  C   UNL     1      22.248  48.267  48.075  1.00  0.00     0.041 A 
HETATM   29  C   UNL     1      22.956  47.297  48.803  1.00  0.00     0.055 A 
BRANCH  28  30
HETATM   30  C   UNL     1      22.776  49.656  48.081  1.00  0.00     0.293 C 
HETATM   31  O   UNL     1      23.557  50.049  47.231  1.00  0.00    -0.259 OA
BRANCH  30  32
HETATM   32  O   UNL     1      22.296  50.350  49.135  1.00  0.00    -0.323 OA
HETATM   33  C   UNL     1      21.228  51.244  48.812  1.00  0.00     0.213 C 
ENDBRANCH  30  32
ENDBRANCH  28  30
ENDBRANCH  20  24
ENDBRANCH  16  19
BRANCH  16  34
HETATM   34  C   UNL     1      24.664  41.655  48.988  1.00  0.00     0.253 C 
BRANCH  34  35
HETATM   35  N   UNL     1      25.782  41.046  48.140  1.00  0.00    -0.078 N 
HETATM   36  H   UNL     1      26.570  41.706  48.071  1.00  0.00     0.279 HD
HETATM   37  C   UNL     1      26.361  39.734  48.611  1.00  0.00     0.269 C 
HETATM   38  C   UNL     1      25.320  40.896  46.692  1.00  0.00     0.269 C 
ENDBRANCH  34  35
ENDBRANCH  16  34
ENDBRANCH   1  13
TORSDOF 7
ENDMDL
MODEL 5
REMARK VINA RESULT:      -7.8      1.486      2.283
REMARK  7 active torsions:
REMARK  status: ('A' for Active; 'I' for Inactive)
REMARK    1  A    between atoms: O_2  and  C_3 
REMARK    2  A    between atoms: C_3  and  C_5 
REMARK    3  A    between atoms: C_9  and  N_10 
REMARK       I    between atoms: N_10  and  C_13 
REMARK    4  A    between atoms: C_13  and  C_15 
REMARK    5  A    between atoms: C_15  and  C_16 
REMARK    6  A    between atoms: C_16  and  N_17 
REMARK    7  A    between atoms: N_23  and  C_26 
ROOT
HETATM    1  C   UNL     1      26.851  45.347  53.177  1.00  0.00     0.142 A 
HETATM    2  N   UNL     1      25.893  46.260  52.884  1.00  0.00    -0.224 NA
HETATM    3  C   UNL     1      25.768  47.337  53.697  1.00  0.00     0.237 A 
HETATM    4  N   UNL     1      26.461  47.619  54.809  1.00  0.00    -0.223 NA
HETATM    5  C   UNL     1      27.397  46.696  55.062  1.00  0.00     0.144 A 
HETATM    6  N   UNL     1      28.272  46.728  56.115  1.00  0.00    -0.348 N 
HETATM    7  H   UNL     1      28.292  47.458  56.815  1.00  0.00     0.167 HD
HETATM    8  C   UNL     1      29.113  45.639  56.048  1.00  0.00     0.113 A 
HETATM    9  C   UNL     1      28.764  44.913  54.928  1.00  0.00     0.077 A 
HETATM   10  C   UNL     1      29.389  43.720  54.449  1.00  0.00     0.102 C 
HETATM   11  N   UNL     1      29.780  42.741  53.962  1.00  0.00    -0.191 NA
HETATM   12  C   UNL     1      27.657  45.563  54.311  1.00  0.00     0.078 A 
ENDROOT
BRANCH   1  13
HETATM   13  N   UNL     1      27.034  44.238  52.337  1.00  0.00    -0.365 N 
HETATM   14  C   UNL     1      25.974  43.248  52.458  1.00  0.00     0.126 C 
HETATM   15  C   UNL     1      24.967  43.407  51.331  1.00  0.00     0.041 C 
HETATM   16  C   UNL     1      25.634  43.459  49.944  1.00  0.00     0.076 C 
HETATM   17  C   UNL     1      26.732  44.541  49.892  1.00  0.00     0.041 C 
HETATM   18  C   UNL     1      27.690  44.554  51.082  1.00  0.00     0.126 C 
BRANCH  16  19
HETATM   19  C   UNL     1      26.222  42.052  49.631  1.00  0.00     0.330 C 
HETATM   20  N   UNL     1      27.580  41.804  49.247  1.00  0.00     0.018 N 
HETATM   21  H   UNL     1      28.213  42.239  49.930  1.00  0.00     0.294 HD
HETATM   22  H   UNL     1      27.785  42.323  48.389  1.00  0.00     0.294 HD
HETATM   23  O   UNL     1      25.541  41.044  49.739  1.00  0.00    -0.264 OA
BRANCH  20  24
HETATM   24  C   UNL     1      28.018  40.428  49.044  1.00  0.00     0.142 A 
HETATM   25  C   UNL     1      28.501  39.692  50.128  1.00  0.00     0.037 A 
HETATM   26  C   UNL     1      28.861  38.357  49.946  1.00  0.00     0.003 A 
HETATM   27  C   UNL     1      28.735  37.760  48.689  1.00  0.00     0.018 A 
HETATM   28  C   UNL     1      28.246  38.499  47.605  1.00  0.00     0.041 A 
HETATM   29  C   UNL     1      27.884  39.843  47.786  1.00  0.00     0.055 A 
BRANCH  28  30
HETATM   30  C   UNL     1      28.088  37.919  46.246  1.00  0.00     0.293 C 
HETATM   31  O   UNL     1      28.106  36.714  46.056  1.00  0.00    -0.259 OA
BRANCH  30  32
HETATM   32  O   UNL     1      27.961  38.891  45.317  1.00  0.00    -0.323 OA
HETATM   33  C   UNL     1      28.768  38.698  44.152  1.00  0.00     0.213 C 
ENDBRANCH  30  32
ENDBRANCH  28  30
ENDBRANCH  20  24
ENDBRANCH  16  19
BRANCH  16  34
HETATM   34  C   UNL     1      24.550  43.711  48.827  1.00  0.00     0.253 C 
BRANCH  34  35
HETATM   35  N   UNL     1      23.147  43.141  49.046  1.00  0.00    -0.078 N 
HETATM   36  H   UNL     1      23.136  42.547  49.888  1.00  0.00     0.279 HD
HETATM   37  C   UNL     1      22.022  44.135  49.206  1.00  0.00     0.269 C 
HETATM   38  C   UNL     1      22.796  42.168  47.923  1.00  0.00     0.269 C 
ENDBRANCH  34  35
ENDBRANCH  16  34
ENDBRANCH   1  13
TORSDOF 7
ENDMDL
MODEL 6
REMARK VINA RESULT:      -7.7      3.590      7.197
REMARK  7 active torsions:
REMARK  status: ('A' for Active; 'I' for Inactive)
REMARK    1  A    between atoms: O_2  and  C_3 
REMARK    2  A    between atoms: C_3  and  C_5 
REMARK    3  A    between atoms: C_9  and  N_10 
REMARK       I    between atoms: N_10  and  C_13 
REMARK    4  A    between atoms: C_13  and  C_15 
REMARK    5  A    between atoms: C_15  and  C_16 
REMARK    6  A    between atoms: C_16  and  N_17 
REMARK    7  A    between atoms: N_23  and  C_26 
ROOT
HETATM    1  C   UNL     1      27.798  44.085  52.908  1.00  0.00     0.142 A 
HETATM    2  N   UNL     1      28.437  43.015  52.375  1.00  0.00    -0.224 NA
HETATM    3  C   UNL     1      29.555  42.565  52.994  1.00  0.00     0.237 A 
HETATM    4  N   UNL     1      30.160  43.069  54.079  1.00  0.00    -0.223 NA
HETATM    5  C   UNL     1      29.499  44.122  54.574  1.00  0.00     0.144 A 
HETATM    6  N   UNL     1      29.864  44.829  55.690  1.00  0.00    -0.348 N 
HETATM    7  H   UNL     1      30.682  44.624  56.250  1.00  0.00     0.167 HD
HETATM    8  C   UNL     1      28.941  45.823  55.928  1.00  0.00     0.113 A 
HETATM    9  C   UNL     1      27.974  45.735  54.947  1.00  0.00     0.077 A 
HETATM   10  C   UNL     1      26.808  46.550  54.817  1.00  0.00     0.102 C 
HETATM   11  N   UNL     1      25.840  47.146  54.575  1.00  0.00    -0.191 NA
HETATM   12  C   UNL     1      28.336  44.675  54.068  1.00  0.00     0.078 A 
ENDROOT
BRANCH   1  13
HETATM   13  N   UNL     1      26.618  44.556  52.315  1.00  0.00    -0.365 N 
HETATM   14  C   UNL     1      26.850  45.291  51.080  1.00  0.00     0.126 C 
HETATM   15  C   UNL     1      26.603  44.398  49.875  1.00  0.00     0.041 C 
HETATM   16  C   UNL     1      25.243  43.679  49.940  1.00  0.00     0.076 C 
HETATM   17  C   UNL     1      25.080  42.912  51.269  1.00  0.00     0.041 C 
HETATM   18  C   UNL     1      25.471  43.692  52.523  1.00  0.00     0.126 C 
BRANCH  16  19
HETATM   19  C   UNL     1      24.119  44.742  49.769  1.00  0.00     0.330 C 
HETATM   20  N   UNL     1      24.222  45.910  48.945  1.00  0.00     0.018 N 
HETATM   21  H   UNL     1      24.510  45.636  47.997  1.00  0.00     0.294 HD
HETATM   22  H   UNL     1      25.011  46.476  49.265  1.00  0.00     0.294 HD
HETATM   23  O   UNL     1      23.035  44.610  50.317  1.00  0.00    -0.264 OA
BRANCH  20  24
HETATM   24  C   UNL     1      23.068  46.794  48.824  1.00  0.00     0.142 A 
HETATM   25  C   UNL     1      23.139  48.093  49.329  1.00  0.00     0.037 A 
HETATM   26  C   UNL     1      22.058  48.957  49.158  1.00  0.00     0.003 A 
HETATM   27  C   UNL     1      20.914  48.527  48.482  1.00  0.00     0.018 A 
HETATM   28  C   UNL     1      20.846  47.224  47.973  1.00  0.00     0.041 A 
HETATM   29  C   UNL     1      21.933  46.353  48.146  1.00  0.00     0.055 A 
BRANCH  28  30
HETATM   30  C   UNL     1      19.658  46.709  47.245  1.00  0.00     0.293 C 
HETATM   31  O   UNL     1      19.575  46.766  46.029  1.00  0.00    -0.259 OA
BRANCH  30  32
HETATM   32  O   UNL     1      18.735  46.228  48.106  1.00  0.00    -0.323 OA
HETATM   33  C   UNL     1      17.399  46.660  47.835  1.00  0.00     0.213 C 
ENDBRANCH  30  32
ENDBRANCH  28  30
ENDBRANCH  20  24
ENDBRANCH  16  19
BRANCH  16  34
HETATM   34  C   UNL     1      25.082  42.705  48.712  1.00  0.00     0.253 C 
BRANCH  34  35
HETATM   35  N   UNL     1      23.696  42.569  48.079  1.00  0.00    -0.078 N 
HETATM   36  H   UNL     1      23.011  43.125  48.611  1.00  0.00     0.279 HD
HETATM   37  C   UNL     1      23.559  42.987  46.635  1.00  0.00     0.269 C 
HETATM   38  C   UNL     1      23.187  41.138  48.234  1.00  0.00     0.269 C 
ENDBRANCH  34  35
ENDBRANCH  16  34
ENDBRANCH   1  13
TORSDOF 7
ENDMDL
MODEL 7
REMARK VINA RESULT:      -7.5      5.682      9.687
REMARK  7 active torsions:
REMARK  status: ('A' for Active; 'I' for Inactive)
REMARK    1  A    between atoms: O_2  and  C_3 
REMARK    2  A    between atoms: C_3  and  C_5 
REMARK    3  A    between atoms: C_9  and  N_10 
REMARK       I    between atoms: N_10  and  C_13 
REMARK    4  A    between atoms: C_13  and  C_15 
REMARK    5  A    between atoms: C_15  and  C_16 
REMARK    6  A    between atoms: C_16  and  N_17 
REMARK    7  A    between atoms: N_23  and  C_26 
ROOT
HETATM    1  C   UNL     1      18.099  49.216  48.227  1.00  0.00     0.142 A 
HETATM    2  N   UNL     1      17.026  48.682  47.593  1.00  0.00    -0.224 NA
HETATM    3  C   UNL     1      15.865  49.380  47.606  1.00  0.00     0.237 A 
HETATM    4  N   UNL     1      15.609  50.549  48.209  1.00  0.00    -0.223 NA
HETATM    5  C   UNL     1      16.692  51.042  48.821  1.00  0.00     0.144 A 
HETATM    6  N   UNL     1      16.741  52.231  49.501  1.00  0.00    -0.348 N 
HETATM    7  H   UNL     1      15.952  52.855  49.612  1.00  0.00     0.167 HD
HETATM    8  C   UNL     1      18.017  52.438  49.975  1.00  0.00     0.113 A 
HETATM    9  C   UNL     1      18.786  51.362  49.580  1.00  0.00     0.077 A 
HETATM   10  C   UNL     1      20.181  51.169  49.825  1.00  0.00     0.102 C 
HETATM   11  N   UNL     1      21.294  50.871  49.969  1.00  0.00    -0.191 NA
HETATM   12  C   UNL     1      17.945  50.459  48.870  1.00  0.00     0.078 A 
ENDROOT
BRANCH   1  13
HETATM   13  N   UNL     1      19.328  48.540  48.203  1.00  0.00    -0.365 N 
HETATM   14  C   UNL     1      19.422  47.488  49.205  1.00  0.00     0.126 C 
HETATM   15  C   UNL     1      19.140  46.131  48.581  1.00  0.00     0.041 C 
HETATM   16  C   UNL     1      19.976  45.878  47.313  1.00  0.00     0.076 C 
HETATM   17  C   UNL     1      19.810  47.026  46.295  1.00  0.00     0.041 C 
HETATM   18  C   UNL     1      19.914  48.434  46.880  1.00  0.00     0.126 C 
BRANCH  16  19
HETATM   19  C   UNL     1      21.466  45.717  47.733  1.00  0.00     0.330 C 
HETATM   20  N   UNL     1      21.905  45.172  48.984  1.00  0.00     0.018 N 
HETATM   21  H   UNL     1      21.460  44.257  49.133  1.00  0.00     0.294 HD
HETATM   22  H   UNL     1      21.522  45.736  49.746  1.00  0.00     0.294 HD
HETATM   23  O   UNL     1      22.373  46.022  46.974  1.00  0.00    -0.264 OA
BRANCH  20  24
HETATM   24  C   UNL     1      23.335  45.019  49.225  1.00  0.00     0.142 A 
HETATM   25  C   UNL     1      23.934  43.771  49.043  1.00  0.00     0.037 A 
HETATM   26  C   UNL     1      25.312  43.639  49.214  1.00  0.00     0.003 A 
HETATM   27  C   UNL     1      26.087  44.748  49.560  1.00  0.00     0.018 A 
HETATM   28  C   UNL     1      25.484  46.000  49.739  1.00  0.00     0.041 A 
HETATM   29  C   UNL     1      24.097  46.134  49.568  1.00  0.00     0.055 A 
BRANCH  28  30
HETATM   30  C   UNL     1      26.255  47.215  50.106  1.00  0.00     0.293 C 
HETATM   31  O   UNL     1      26.030  47.832  51.135  1.00  0.00    -0.259 OA
BRANCH  30  32
HETATM   32  O   UNL     1      27.166  47.516  49.156  1.00  0.00    -0.323 OA
HETATM   33  C   UNL     1      27.425  48.915  49.013  1.00  0.00     0.213 C 
ENDBRANCH  30  32
ENDBRANCH  28  30
ENDBRANCH  20  24
ENDBRANCH  16  19
BRANCH  16  34
HETATM   34  C   UNL     1      19.578  44.498  46.664  1.00  0.00     0.253 C 
BRANCH  34  35
HETATM   35  N   UNL     1      19.677  44.363  45.143  1.00  0.00    -0.078 N 
HETATM   36  H   UNL     1      19.525  45.280  44.699  1.00  0.00     0.279 HD
HETATM   37  C   UNL     1      20.972  43.825  44.587  1.00  0.00     0.269 C 
HETATM   38  C   UNL     1      18.519  43.519  44.616  1.00  0.00     0.269 C 
ENDBRANCH  34  35
ENDBRANCH  16  34
ENDBRANCH   1  13
TORSDOF 7
ENDMDL
MODEL 8
REMARK VINA RESULT:      -7.5      3.679      9.200
REMARK  7 active torsions:
REMARK  status: ('A' for Active; 'I' for Inactive)
REMARK    1  A    between atoms: O_2  and  C_3 
REMARK    2  A    between atoms: C_3  and  C_5 
REMARK    3  A    between atoms: C_9  and  N_10 
REMARK       I    between atoms: N_10  and  C_13 
REMARK    4  A    between atoms: C_13  and  C_15 
REMARK    5  A    between atoms: C_15  and  C_16 
REMARK    6  A    between atoms: C_16  and  N_17 
REMARK    7  A    between atoms: N_23  and  C_26 
ROOT
HETATM    1  C   UNL     1      25.869  42.150  49.514  1.00  0.00     0.142 A 
HETATM    2  N   UNL     1      26.758  41.612  50.384  1.00  0.00    -0.224 NA
HETATM    3  C   UNL     1      27.015  40.284  50.295  1.00  0.00     0.237 A 
HETATM    4  N   UNL     1      26.468  39.390  49.459  1.00  0.00    -0.223 NA
HETATM    5  C   UNL     1      25.599  39.962  48.616  1.00  0.00     0.144 A 
HETATM    6  N   UNL     1      24.903  39.305  47.635  1.00  0.00    -0.348 N 
HETATM    7  H   UNL     1      24.976  38.312  47.455  1.00  0.00     0.167 HD
HETATM    8  C   UNL     1      24.127  40.205  46.940  1.00  0.00     0.113 A 
HETATM    9  C   UNL     1      24.345  41.452  47.490  1.00  0.00     0.077 A 
HETATM   10  C   UNL     1      23.770  42.689  47.064  1.00  0.00     0.102 C 
HETATM   11  N   UNL     1      23.363  43.755  46.844  1.00  0.00    -0.191 NA
HETATM   12  C   UNL     1      25.257  41.302  48.572  1.00  0.00     0.078 A 
ENDROOT
BRANCH   1  13
HETATM   13  N   UNL     1      25.606  43.528  49.554  1.00  0.00    -0.365 N 
HETATM   14  C   UNL     1      24.425  43.863  50.336  1.00  0.00     0.126 C 
HETATM   15  C   UNL     1      24.824  44.325  51.728  1.00  0.00     0.041 C 
HETATM   16  C   UNL     1      25.902  45.424  51.702  1.00  0.00     0.076 C 
HETATM   17  C   UNL     1      27.124  44.987  50.867  1.00  0.00     0.041 C 
HETATM   18  C   UNL     1      26.797  44.355  49.516  1.00  0.00     0.126 C 
BRANCH  16  19
HETATM   19  C   UNL     1      25.265  46.720  51.121  1.00  0.00     0.330 C 
HETATM   20  N   UNL     1      25.007  46.948  49.729  1.00  0.00     0.018 N 
HETATM   21  H   UNL     1      24.466  46.161  49.349  1.00  0.00     0.294 HD
HETATM   22  H   UNL     1      25.888  46.885  49.212  1.00  0.00     0.294 HD
HETATM   23  O   UNL     1      24.902  47.628  51.852  1.00  0.00    -0.264 OA
BRANCH  20  24
HETATM   24  C   UNL     1      24.347  48.184  49.326  1.00  0.00     0.142 A 
HETATM   25  C   UNL     1      25.105  49.228  48.794  1.00  0.00     0.037 A 
HETATM   26  C   UNL     1      24.466  50.385  48.351  1.00  0.00     0.003 A 
HETATM   27  C   UNL     1      23.075  50.497  48.435  1.00  0.00     0.018 A 
HETATM   28  C   UNL     1      22.317  49.446  48.966  1.00  0.00     0.041 A 
HETATM   29  C   UNL     1      22.960  48.281  49.413  1.00  0.00     0.055 A 
BRANCH  28  30
HETATM   30  C   UNL     1      20.836  49.505  49.081  1.00  0.00     0.293 C 
HETATM   31  O   UNL     1      20.187  48.562  49.501  1.00  0.00    -0.259 OA
BRANCH  30  32
HETATM   32  O   UNL     1      20.365  50.691  48.640  1.00  0.00    -0.323 OA
HETATM   33  C   UNL     1      19.673  51.453  49.634  1.00  0.00     0.213 C 
ENDBRANCH  30  32
ENDBRANCH  28  30
ENDBRANCH  20  24
ENDBRANCH  16  19
BRANCH  16  34
HETATM   34  C   UNL     1      26.335  45.798  53.170  1.00  0.00     0.253 C 
BRANCH  34  35
HETATM   35  N   UNL     1      27.308  44.865  53.893  1.00  0.00    -0.078 N 
HETATM   36  H   UNL     1      27.788  44.261  53.210  1.00  0.00     0.279 HD
HETATM   37  C   UNL     1      28.387  45.513  54.726  1.00  0.00     0.269 C 
HETATM   38  C   UNL     1      26.537  43.873  54.760  1.00  0.00     0.269 C 
ENDBRANCH  34  35
ENDBRANCH  16  34
ENDBRANCH   1  13
TORSDOF 7
ENDMDL
MODEL 9
REMARK VINA RESULT:      -7.4      1.735      2.309
REMARK  7 active torsions:
REMARK  status: ('A' for Active; 'I' for Inactive)
REMARK    1  A    between atoms: O_2  and  C_3 
REMARK    2  A    between atoms: C_3  and  C_5 
REMARK    3  A    between atoms: C_9  and  N_10 
REMARK       I    between atoms: N_10  and  C_13 
REMARK    4  A    between atoms: C_13  and  C_15 
REMARK    5  A    between atoms: C_15  and  C_16 
REMARK    6  A    between atoms: C_16  and  N_17 
REMARK    7  A    between atoms: N_23  and  C_26 
ROOT
HETATM    1  C   UNL     1      27.428  44.879  53.431  1.00  0.00     0.142 A 
HETATM    2  N   UNL     1      26.899  46.109  53.645  1.00  0.00    -0.224 NA
HETATM    3  C   UNL     1      27.448  46.879  54.615  1.00  0.00     0.237 A 
HETATM    4  N   UNL     1      28.454  46.572  55.446  1.00  0.00    -0.223 NA
HETATM    5  C   UNL     1      28.948  45.353  55.201  1.00  0.00     0.144 A 
HETATM    6  N   UNL     1      29.994  44.776  55.873  1.00  0.00    -0.348 N 
HETATM    7  H   UNL     1      30.496  45.220  56.632  1.00  0.00     0.167 HD
HETATM    8  C   UNL     1      30.255  43.533  55.339  1.00  0.00     0.113 A 
HETATM    9  C   UNL     1      29.361  43.329  54.308  1.00  0.00     0.077 A 
HETATM   10  C   UNL     1      29.285  42.186  53.453  1.00  0.00     0.102 C 
HETATM   11  N   UNL     1      29.092  41.317  52.706  1.00  0.00    -0.191 NA
HETATM   12  C   UNL     1      28.510  44.468  54.232  1.00  0.00     0.078 A 
ENDROOT
BRANCH   1  13
HETATM   13  N   UNL     1      26.909  44.068  52.411  1.00  0.00    -0.365 N 
HETATM   14  C   UNL     1      25.463  43.911  52.483  1.00  0.00     0.126 C 
HETATM   15  C   UNL     1      24.777  44.854  51.508  1.00  0.00     0.041 C 
HETATM   16  C   UNL     1      25.357  44.759  50.085  1.00  0.00     0.076 C 
HETATM   17  C   UNL     1      26.888  44.950  50.091  1.00  0.00     0.041 C 
HETATM   18  C   UNL     1      27.639  44.159  51.160  1.00  0.00     0.126 C 
BRANCH  16  19
HETATM   19  C   UNL     1      24.971  43.372  49.492  1.00  0.00     0.330 C 
HETATM   20  N   UNL     1      25.432  42.869  48.231  1.00  0.00     0.018 N 
HETATM   21  H   UNL     1      26.458  42.926  48.196  1.00  0.00     0.294 HD
HETATM   22  H   UNL     1      25.145  43.512  47.490  1.00  0.00     0.294 HD
HETATM   23  O   UNL     1      24.260  42.595  50.111  1.00  0.00    -0.264 OA
BRANCH  20  24
HETATM   24  C   UNL     1      25.043  41.524  47.822  1.00  0.00     0.142 A 
HETATM   25  C   UNL     1      23.795  41.318  47.232  1.00  0.00     0.037 A 
HETATM   26  C   UNL     1      23.448  40.043  46.785  1.00  0.00     0.003 A 
HETATM   27  C   UNL     1      24.347  38.981  46.923  1.00  0.00     0.018 A 
HETATM   28  C   UNL     1      25.599  39.192  47.512  1.00  0.00     0.041 A 
HETATM   29  C   UNL     1      25.949  40.475  47.963  1.00  0.00     0.055 A 
BRANCH  28  30
HETATM   30  C   UNL     1      26.596  38.104  47.685  1.00  0.00     0.293 C 
HETATM   31  O   UNL     1      26.266  36.977  48.016  1.00  0.00    -0.259 OA
BRANCH  30  32
HETATM   32  O   UNL     1      27.848  38.555  47.456  1.00  0.00    -0.323 OA
HETATM   33  C   UNL     1      28.804  37.524  47.190  1.00  0.00     0.213 C 
ENDBRANCH  30  32
ENDBRANCH  28  30
ENDBRANCH  20  24
ENDBRANCH  16  19
BRANCH  16  34
HETATM   34  C   UNL     1      24.667  45.817  49.143  1.00  0.00     0.253 C 
BRANCH  34  35
HETATM   35  N   UNL     1      23.242  46.261  49.483  1.00  0.00    -0.078 N 
HETATM   36  H   UNL     1      23.050  46.091  50.481  1.00  0.00     0.279 HD
HETATM   37  C   UNL     1      22.895  47.706  49.219  1.00  0.00     0.269 C 
HETATM   38  C   UNL     1      22.230  45.367  48.771  1.00  0.00     0.269 C 
ENDBRANCH  34  35
ENDBRANCH  16  34
ENDBRANCH   1  13
TORSDOF 7
ENDMDL
MODEL 10
REMARK VINA RESULT:      -7.3     10.536     12.300
REMARK  7 active torsions:
REMARK  status: ('A' for Active; 'I' for Inactive)
REMARK    1  A    between atoms: O_2  and  C_3 
REMARK    2  A    between atoms: C_3  and  C_5 
REMARK    3  A    between atoms: C_9  and  N_10 
REMARK       I    between atoms: N_10  and  C_13 
REMARK    4  A    between atoms: C_13  and  C_15 
REMARK    5  A    between atoms: C_15  and  C_16 
REMARK    6  A    between atoms: C_16  and  N_17 
REMARK    7  A    between atoms: N_23  and  C_26 
ROOT
HETATM    1  C   UNL     1      30.688  50.710  40.678  1.00  0.00     0.142 A 
HETATM    2  N   UNL     1      30.078  51.906  40.491  1.00  0.00    -0.224 NA
HETATM    3  C   UNL     1      30.829  53.029  40.600  1.00  0.00     0.237 A 
HETATM    4  N   UNL     1      32.129  53.128  40.912  1.00  0.00    -0.223 NA
HETATM    5  C   UNL     1      32.693  51.927  41.086  1.00  0.00     0.144 A 
HETATM    6  N   UNL     1      34.012  51.712  41.390  1.00  0.00    -0.348 N 
HETATM    7  H   UNL     1      34.693  52.449  41.518  1.00  0.00     0.167 HD
HETATM    8  C   UNL     1      34.252  50.357  41.465  1.00  0.00     0.113 A 
HETATM    9  C   UNL     1      33.063  49.710  41.197  1.00  0.00     0.077 A 
HETATM   10  C   UNL     1      32.850  48.298  41.137  1.00  0.00     0.102 C 
HETATM   11  N   UNL     1      32.528  47.183  41.080  1.00  0.00    -0.191 NA
HETATM   12  C   UNL     1      32.063  50.700  40.982  1.00  0.00     0.078 A 
ENDROOT
BRANCH   1  13
HETATM   13  N   UNL     1      29.950  49.525  40.537  1.00  0.00    -0.365 N 
HETATM   14  C   UNL     1      28.977  49.326  41.602  1.00  0.00     0.126 C 
HETATM   15  C   UNL     1      27.592  49.749  41.141  1.00  0.00     0.041 C 
HETATM   16  C   UNL     1      27.198  49.117  39.793  1.00  0.00     0.076 C 
HETATM   17  C   UNL     1      28.270  49.384  38.716  1.00  0.00     0.041 C 
HETATM   18  C   UNL     1      29.712  49.142  39.158  1.00  0.00     0.126 C 
BRANCH  16  19
HETATM   19  C   UNL     1      26.995  47.589  40.009  1.00  0.00     0.330 C 
HETATM   20  N   UNL     1      26.634  46.984  41.258  1.00  0.00     0.018 N 
HETATM   21  H   UNL     1      25.794  47.445  41.630  1.00  0.00     0.294 HD
HETATM   22  H   UNL     1      27.344  47.212  41.957  1.00  0.00     0.294 HD
HETATM   23  O   UNL     1      27.098  46.800  39.083  1.00  0.00    -0.264 OA
BRANCH  20  24
HETATM   24  C   UNL     1      26.414  45.543  41.308  1.00  0.00     0.142 A 
HETATM   25  C   UNL     1      25.139  45.052  41.595  1.00  0.00     0.037 A 
HETATM   26  C   UNL     1      24.914  43.675  41.582  1.00  0.00     0.003 A 
HETATM   27  C   UNL     1      25.957  42.796  41.279  1.00  0.00     0.018 A 
HETATM   28  C   UNL     1      27.234  43.292  40.988  1.00  0.00     0.041 A 
HETATM   29  C   UNL     1      27.461  44.677  41.002  1.00  0.00     0.055 A 
BRANCH  28  30
HETATM   30  C   UNL     1      28.381  42.407  40.658  1.00  0.00     0.293 C 
HETATM   31  O   UNL     1      28.727  41.501  41.398  1.00  0.00    -0.259 OA
BRANCH  30  32
HETATM   32  O   UNL     1      28.955  42.775  39.492  1.00  0.00    -0.323 OA
HETATM   33  C   UNL     1      28.364  42.178  38.334  1.00  0.00     0.213 C 
ENDBRANCH  30  32
ENDBRANCH  28  30
ENDBRANCH  20  24
ENDBRANCH  16  19
BRANCH  16  34
HETATM   34  C   UNL     1      25.793  49.658  39.327  1.00  0.00     0.253 C 
BRANCH  34  35
HETATM   35  N   UNL     1      24.728  48.638  38.921  1.00  0.00    -0.078 N 
HETATM   36  H   UNL     1      25.103  47.683  39.015  1.00  0.00     0.279 HD
HETATM   37  C   UNL     1      23.427  48.665  39.687  1.00  0.00     0.269 C 
HETATM   38  C   UNL     1      24.430  48.756  37.428  1.00  0.00     0.269 C 
ENDBRANCH  34  35
ENDBRANCH  16  34
ENDBRANCH   1  13
TORSDOF 7
ENDMDL
