MODEL 1
REMARK VINA RESULT:      -8.8      0.000      0.000
REMARK  3 active torsions:
REMARK  status: ('A' for Active; 'I' for Inactive)
REMARK    1  A    between atoms: C_2  and  N_3 
REMARK       I    between atoms: N_3  and  C_4 
REMARK    2  A    between atoms: C_4  and  C_5 
REMARK    3  A    between atoms: C_20  and  C_21 
REMARK       I    between atoms: C_21  and  N_22 
ROOT
HETATM    1  C   UNL     1      26.462  41.982  51.279  1.00  0.00     0.032 A 
HETATM    2  C   UNL     1      27.604  41.617  51.995  1.00  0.00     0.036 A 
HETATM    3  C   UNL     1      28.300  40.450  51.636  1.00  0.00     0.046 A 
HETATM    4  C   UNL     1      27.837  39.658  50.565  1.00  0.00     0.030 A 
HETATM    5  C   UNL     1      26.694  40.054  49.886  1.00  0.00     0.063 A 
HETATM    6  N   UNL     1      26.495  39.102  48.925  1.00  0.00    -0.277 N 
HETATM    7  H   UNL     1      25.746  39.066  48.243  1.00  0.00     0.189 HD
HETATM    8  N   UNL     1      27.418  38.123  48.913  1.00  0.00    -0.168 NA
HETATM    9  C   UNL     1      28.254  38.456  49.921  1.00  0.00     0.156 A 
HETATM   10  C   UNL     1      25.979  41.208  50.212  1.00  0.00     0.034 A 
ENDROOT
BRANCH   2  11
HETATM   11  N   UNL     1      28.126  42.356  53.080  1.00  0.00    -0.323 N 
HETATM   12  C   UNL     1      29.269  43.135  53.090  1.00  0.00     0.256 C 
HETATM   13  O   UNL     1      30.017  43.357  52.146  1.00  0.00    -0.267 OA
HETATM   14  H   UNL     1      27.553  42.344  53.914  1.00  0.00     0.169 HD
BRANCH  12  15
HETATM   15  C   UNL     1      29.589  43.793  54.387  1.00  0.00     0.038 A 
HETATM   16  C   UNL     1      28.827  44.841  54.901  1.00  0.00     0.061 A 
HETATM   17  C   UNL     1      29.215  45.368  56.119  1.00  0.00     0.128 A 
HETATM   18 CL   UNL     1      28.344  46.665  56.826  1.00  0.00    -0.062 Cl
HETATM   19  N   UNL     1      30.264  44.940  56.842  1.00  0.00    -0.225 NA
HETATM   20  C   UNL     1      30.959  43.912  56.322  1.00  0.00     0.128 A 
HETATM   21 CL   UNL     1      32.278  43.385  57.282  1.00  0.00    -0.062 Cl
HETATM   22  C   UNL     1      30.672  43.303  55.118  1.00  0.00     0.061 A 
ENDBRANCH  12  15
ENDBRANCH   2  11
BRANCH   9  23
HETATM   23  C   UNL     1      29.427  37.635  50.252  1.00  0.00     0.270 C 
HETATM   24  N   UNL     1      29.152  36.569  51.065  1.00  0.00    -0.365 N 
HETATM   25  H   UNL     1      28.197  36.423  51.368  1.00  0.00     0.159 HD
HETATM   26  H   UNL     1      29.892  35.944  51.342  1.00  0.00     0.159 HD
HETATM   27  O   UNL     1      30.564  37.858  49.848  1.00  0.00    -0.266 OA
ENDBRANCH   9  23
TORSDOF 3
ENDMDL
MODEL 2
REMARK VINA RESULT:      -8.8      0.166      1.810
REMARK  3 active torsions:
REMARK  status: ('A' for Active; 'I' for Inactive)
REMARK    1  A    between atoms: C_2  and  N_3 
REMARK       I    between atoms: N_3  and  C_4 
REMARK    2  A    between atoms: C_4  and  C_5 
REMARK    3  A    between atoms: C_20  and  C_21 
REMARK       I    between atoms: C_21  and  N_22 
ROOT
HETATM    1  C   UNL     1      26.417  41.932  51.298  1.00  0.00     0.032 A 
HETATM    2  C   UNL     1      27.599  41.595  51.962  1.00  0.00     0.036 A 
HETATM    3  C   UNL     1      28.330  40.470  51.543  1.00  0.00     0.046 A 
HETATM    4  C   UNL     1      27.862  39.692  50.464  1.00  0.00     0.030 A 
HETATM    5  C   UNL     1      26.679  40.057  49.838  1.00  0.00     0.063 A 
HETATM    6  N   UNL     1      26.486  39.127  48.855  1.00  0.00    -0.277 N 
HETATM    7  H   UNL     1      25.715  39.080  48.199  1.00  0.00     0.189 HD
HETATM    8  N   UNL     1      27.448  38.191  48.780  1.00  0.00    -0.168 NA
HETATM    9  C   UNL     1      28.306  38.528  49.768  1.00  0.00     0.156 A 
HETATM   10  C   UNL     1      25.929  41.169  50.225  1.00  0.00     0.034 A 
ENDROOT
BRANCH   2  11
HETATM   11  N   UNL     1      28.128  42.323  53.051  1.00  0.00    -0.323 N 
HETATM   12  C   UNL     1      29.271  43.102  53.061  1.00  0.00     0.256 C 
HETATM   13  O   UNL     1      30.013  43.334  52.115  1.00  0.00    -0.267 OA
HETATM   14  H   UNL     1      27.561  42.302  53.889  1.00  0.00     0.169 HD
BRANCH  12  15
HETATM   15  C   UNL     1      29.600  43.746  54.362  1.00  0.00     0.038 A 
HETATM   16  C   UNL     1      30.665  43.326  55.156  1.00  0.00     0.061 A 
HETATM   17  C   UNL     1      30.880  44.006  56.340  1.00  0.00     0.128 A 
HETATM   18 CL   UNL     1      32.162  43.554  57.386  1.00  0.00    -0.062 Cl
HETATM   19  N   UNL     1      30.143  45.042  56.776  1.00  0.00    -0.225 NA
HETATM   20  C   UNL     1      29.139  45.433  55.970  1.00  0.00     0.128 A 
HETATM   21 CL   UNL     1      28.235  46.767  56.552  1.00  0.00    -0.062 Cl
HETATM   22  C   UNL     1      28.825  44.835  54.767  1.00  0.00     0.061 A 
ENDBRANCH  12  15
ENDBRANCH   2  11
BRANCH   9  23
HETATM   23  C   UNL     1      29.523  37.749  50.032  1.00  0.00     0.270 C 
HETATM   24  N   UNL     1      29.350  36.726  50.924  1.00  0.00    -0.365 N 
HETATM   25  H   UNL     1      28.431  36.580  51.323  1.00  0.00     0.159 HD
HETATM   26  H   UNL     1      30.128  36.131  51.164  1.00  0.00     0.159 HD
HETATM   27  O   UNL     1      30.613  37.970  49.512  1.00  0.00    -0.266 OA
ENDBRANCH   9  23
TORSDOF 3
ENDMDL
MODEL 3
REMARK VINA RESULT:      -8.4      6.726      8.665
REMARK  3 active torsions:
REMARK  status: ('A' for Active; 'I' for Inactive)
REMARK    1  A    between atoms: C_2  and  N_3 
REMARK       I    between atoms: N_3  and  C_4 
REMARK    2  A    between atoms: C_4  and  C_5 
REMARK    3  A    between atoms: C_20  and  C_21 
REMARK       I    between atoms: C_21  and  N_22 
ROOT
HETATM    1  C   UNL     1      26.958  48.640  49.501  1.00  0.00     0.032 A 
HETATM    2  C   UNL     1      26.062  47.714  50.040  1.00  0.00     0.036 A 
HETATM    3  C   UNL     1      24.704  47.777  49.681  1.00  0.00     0.046 A 
HETATM    4  C   UNL     1      24.260  48.774  48.789  1.00  0.00     0.030 A 
HETATM    5  C   UNL     1      25.183  49.678  48.283  1.00  0.00     0.063 A 
HETATM    6  N   UNL     1      24.466  50.510  47.468  1.00  0.00    -0.277 N 
HETATM    7  H   UNL     1      24.817  51.296  46.933  1.00  0.00     0.189 HD
HETATM    8  N   UNL     1      23.156  50.219  47.391  1.00  0.00    -0.168 NA
HETATM    9  C   UNL     1      23.015  49.147  48.202  1.00  0.00     0.156 A 
HETATM   10  C   UNL     1      26.538  49.644  48.615  1.00  0.00     0.034 A 
ENDROOT
BRANCH   2  11
HETATM   11  N   UNL     1      26.430  46.690  50.942  1.00  0.00    -0.323 N 
HETATM   12  C   UNL     1      26.831  45.404  50.630  1.00  0.00     0.256 C 
HETATM   13  O   UNL     1      26.976  44.929  49.511  1.00  0.00    -0.267 OA
HETATM   14  H   UNL     1      26.450  46.971  51.914  1.00  0.00     0.169 HD
BRANCH  12  15
HETATM   15  C   UNL     1      27.148  44.528  51.791  1.00  0.00     0.038 A 
HETATM   16  C   UNL     1      28.321  43.780  51.865  1.00  0.00     0.061 A 
HETATM   17  C   UNL     1      28.511  43.009  52.997  1.00  0.00     0.128 A 
HETATM   18 CL   UNL     1      29.921  42.048  53.173  1.00  0.00    -0.062 Cl
HETATM   19  N   UNL     1      27.653  42.935  54.029  1.00  0.00    -0.225 NA
HETATM   20  C   UNL     1      26.544  43.690  53.930  1.00  0.00     0.128 A 
HETATM   21 CL   UNL     1      25.484  43.581  55.273  1.00  0.00    -0.062 Cl
HETATM   22  C   UNL     1      26.242  44.497  52.853  1.00  0.00     0.061 A 
ENDBRANCH  12  15
ENDBRANCH   2  11
BRANCH   9  23
HETATM   23  C   UNL     1      21.712  48.498  48.403  1.00  0.00     0.270 C 
HETATM   24  N   UNL     1      21.157  48.726  49.632  1.00  0.00    -0.365 N 
HETATM   25  H   UNL     1      21.660  49.306  50.292  1.00  0.00     0.159 HD
HETATM   26  H   UNL     1      20.260  48.328  49.861  1.00  0.00     0.159 HD
HETATM   27  O   UNL     1      21.145  47.808  47.560  1.00  0.00    -0.266 OA
ENDBRANCH   9  23
TORSDOF 3
ENDMDL
MODEL 4
REMARK VINA RESULT:      -8.2      3.857      5.723
REMARK  3 active torsions:
REMARK  status: ('A' for Active; 'I' for Inactive)
REMARK    1  A    between atoms: C_2  and  N_3 
REMARK       I    between atoms: N_3  and  C_4 
REMARK    2  A    between atoms: C_4  and  C_5 
REMARK    3  A    between atoms: C_20  and  C_21 
REMARK       I    between atoms: C_21  and  N_22 
ROOT
HETATM    1  C   UNL     1      25.978  43.038  51.593  1.00  0.00     0.032 A 
HETATM    2  C   UNL     1      26.247  44.291  52.147  1.00  0.00     0.036 A 
HETATM    3  C   UNL     1      25.669  45.438  51.573  1.00  0.00     0.046 A 
HETATM    4  C   UNL     1      24.833  45.312  50.445  1.00  0.00     0.030 A 
HETATM    5  C   UNL     1      24.599  44.048  49.923  1.00  0.00     0.063 A 
HETATM    6  N   UNL     1      23.772  44.245  48.852  1.00  0.00    -0.277 N 
HETATM    7  H   UNL     1      23.398  43.539  48.229  1.00  0.00     0.189 HD
HETATM    8  N   UNL     1      23.439  45.530  48.637  1.00  0.00    -0.168 NA
HETATM    9  C   UNL     1      24.087  46.200  49.615  1.00  0.00     0.156 A 
HETATM   10  C   UNL     1      25.152  42.888  50.468  1.00  0.00     0.034 A 
ENDROOT
BRANCH   2  11
HETATM   11  N   UNL     1      27.077  44.498  53.272  1.00  0.00    -0.323 N 
HETATM   12  C   UNL     1      28.414  44.170  53.397  1.00  0.00     0.256 C 
HETATM   13  O   UNL     1      29.134  43.672  52.540  1.00  0.00    -0.267 OA
HETATM   14  H   UNL     1      26.637  44.995  54.036  1.00  0.00     0.169 HD
BRANCH  12  15
HETATM   15  C   UNL     1      29.037  44.493  54.710  1.00  0.00     0.038 A 
HETATM   16  C   UNL     1      28.490  45.430  55.586  1.00  0.00     0.061 A 
HETATM   17  C   UNL     1      29.152  45.641  56.781  1.00  0.00     0.128 A 
HETATM   18 CL   UNL     1      28.559  46.780  57.918  1.00  0.00    -0.062 Cl
HETATM   19  N   UNL     1      30.274  45.006  57.160  1.00  0.00    -0.225 NA
HETATM   20  C   UNL     1      30.757  44.094  56.298  1.00  0.00     0.128 A 
HETATM   21 CL   UNL     1      32.179  43.295  56.826  1.00  0.00    -0.062 Cl
HETATM   22  C   UNL     1      30.189  43.795  55.077  1.00  0.00     0.061 A 
ENDBRANCH  12  15
ENDBRANCH   2  11
BRANCH   9  23
HETATM   23  C   UNL     1      23.986  47.660  49.747  1.00  0.00     0.270 C 
HETATM   24  N   UNL     1      22.716  48.148  49.605  1.00  0.00    -0.365 N 
HETATM   25  H   UNL     1      21.962  47.496  49.429  1.00  0.00     0.159 HD
HETATM   26  H   UNL     1      22.545  49.139  49.685  1.00  0.00     0.159 HD
HETATM   27  O   UNL     1      24.938  48.403  49.966  1.00  0.00    -0.266 OA
ENDBRANCH   9  23
TORSDOF 3
ENDMDL
MODEL 5
REMARK VINA RESULT:      -8.2      5.837      7.626
REMARK  3 active torsions:
REMARK  status: ('A' for Active; 'I' for Inactive)
REMARK    1  A    between atoms: C_2  and  N_3 
REMARK       I    between atoms: N_3  and  C_4 
REMARK    2  A    between atoms: C_4  and  C_5 
REMARK    3  A    between atoms: C_20  and  C_21 
REMARK       I    between atoms: C_21  and  N_22 
ROOT
HETATM    1  C   UNL     1      24.002  44.744  50.098  1.00  0.00     0.032 A 
HETATM    2  C   UNL     1      24.874  45.720  50.585  1.00  0.00     0.036 A 
HETATM    3  C   UNL     1      24.745  47.046  50.138  1.00  0.00     0.046 A 
HETATM    4  C   UNL     1      23.745  47.377  49.201  1.00  0.00     0.030 A 
HETATM    5  C   UNL     1      22.905  46.375  48.737  1.00  0.00     0.063 A 
HETATM    6  N   UNL     1      22.062  46.988  47.853  1.00  0.00    -0.277 N 
HETATM    7  H   UNL     1      21.317  46.558  47.318  1.00  0.00     0.189 HD
HETATM    8  N   UNL     1      22.274  48.308  47.708  1.00  0.00    -0.168 NA
HETATM    9  C   UNL     1      23.311  48.562  48.537  1.00  0.00     0.156 A 
HETATM   10  C   UNL     1      23.002  45.048  49.161  1.00  0.00     0.034 A 
ENDROOT
BRANCH   2  11
HETATM   11  N   UNL     1      25.902  45.466  51.521  1.00  0.00    -0.323 N 
HETATM   12  C   UNL     1      25.766  44.932  52.790  1.00  0.00     0.256 C 
HETATM   13  O   UNL     1      24.731  44.547  53.320  1.00  0.00    -0.267 OA
HETATM   14  H   UNL     1      26.837  45.648  51.181  1.00  0.00     0.169 HD
BRANCH  12  15
HETATM   15  C   UNL     1      27.028  44.787  53.566  1.00  0.00     0.038 A 
HETATM   16  C   UNL     1      27.254  45.470  54.760  1.00  0.00     0.061 A 
HETATM   17  C   UNL     1      28.460  45.250  55.398  1.00  0.00     0.128 A 
HETATM   18 CL   UNL     1      28.829  46.053  56.867  1.00  0.00    -0.062 Cl
HETATM   19  N   UNL     1      29.423  44.424  54.956  1.00  0.00    -0.225 NA
HETATM   20  C   UNL     1      29.157  43.765  53.814  1.00  0.00     0.128 A 
HETATM   21 CL   UNL     1      30.403  42.708  53.293  1.00  0.00    -0.062 Cl
HETATM   22  C   UNL     1      27.994  43.901  53.085  1.00  0.00     0.061 A 
ENDBRANCH  12  15
ENDBRANCH   2  11
BRANCH   9  23
HETATM   23  C   UNL     1      23.866  49.914  48.685  1.00  0.00     0.270 C 
HETATM   24  N   UNL     1      24.984  50.145  47.931  1.00  0.00    -0.365 N 
HETATM   25  H   UNL     1      25.337  49.400  47.344  1.00  0.00     0.159 HD
HETATM   26  H   UNL     1      25.434  51.047  47.961  1.00  0.00     0.159 HD
HETATM   27  O   UNL     1      23.390  50.782  49.410  1.00  0.00    -0.266 OA
ENDBRANCH   9  23
TORSDOF 3
ENDMDL
MODEL 6
REMARK VINA RESULT:      -8.2      5.227      8.163
REMARK  3 active torsions:
REMARK  status: ('A' for Active; 'I' for Inactive)
REMARK    1  A    between atoms: C_2  and  N_3 
REMARK       I    between atoms: N_3  and  C_4 
REMARK    2  A    between atoms: C_4  and  C_5 
REMARK    3  A    between atoms: C_20  and  C_21 
REMARK       I    between atoms: C_21  and  N_22 
ROOT
HETATM    1  C   UNL     1      29.550  43.016  53.104  1.00  0.00     0.032 A 
HETATM    2  C   UNL     1      28.704  44.088  53.398  1.00  0.00     0.036 A 
HETATM    3  C   UNL     1      28.853  44.770  54.618  1.00  0.00     0.046 A 
HETATM    4  C   UNL     1      29.846  44.365  55.532  1.00  0.00     0.030 A 
HETATM    5  C   UNL     1      30.660  43.290  55.203  1.00  0.00     0.063 A 
HETATM    6  N   UNL     1      31.503  43.135  56.268  1.00  0.00    -0.277 N 
HETATM    7  H   UNL     1      32.233  42.439  56.375  1.00  0.00     0.189 HD
HETATM    8  N   UNL     1      31.315  44.023  57.260  1.00  0.00    -0.168 NA
HETATM    9  C   UNL     1      30.295  44.790  56.817  1.00  0.00     0.156 A 
HETATM   10  C   UNL     1      30.543  42.592  54.001  1.00  0.00     0.034 A 
ENDROOT
BRANCH   2  11
HETATM   11  N   UNL     1      27.684  44.550  52.536  1.00  0.00    -0.323 N 
HETATM   12  C   UNL     1      26.318  44.438  52.720  1.00  0.00     0.256 C 
HETATM   13  O   UNL     1      25.742  43.950  53.685  1.00  0.00    -0.267 OA
HETATM   14  H   UNL     1      28.013  45.067  51.731  1.00  0.00     0.169 HD
BRANCH  12  15
HETATM   15  C   UNL     1      25.473  45.007  51.635  1.00  0.00     0.038 A 
HETATM   16  C   UNL     1      24.372  44.331  51.113  1.00  0.00     0.061 A 
HETATM   17  C   UNL     1      23.656  44.962  50.113  1.00  0.00     0.128 A 
HETATM   18 CL   UNL     1      22.291  44.204  49.404  1.00  0.00    -0.062 Cl
HETATM   19  N   UNL     1      23.940  46.178  49.615  1.00  0.00    -0.225 NA
HETATM   20  C   UNL     1      24.996  46.807  50.162  1.00  0.00     0.128 A 
HETATM   21 CL   UNL     1      25.315  48.361  49.512  1.00  0.00    -0.062 Cl
HETATM   22  C   UNL     1      25.787  46.282  51.162  1.00  0.00     0.061 A 
ENDBRANCH  12  15
ENDBRANCH   2  11
BRANCH   9  23
HETATM   23  C   UNL     1      29.768  45.907  57.615  1.00  0.00     0.270 C 
HETATM   24  N   UNL     1      30.668  46.436  58.499  1.00  0.00    -0.365 N 
HETATM   25  H   UNL     1      31.599  46.040  58.540  1.00  0.00     0.159 HD
HETATM   26  H   UNL     1      30.400  47.210  59.086  1.00  0.00     0.159 HD
HETATM   27  O   UNL     1      28.628  46.349  57.517  1.00  0.00    -0.266 OA
ENDBRANCH   9  23
TORSDOF 3
ENDMDL
MODEL 7
REMARK VINA RESULT:      -8.1      5.427      8.347
REMARK  3 active torsions:
REMARK  status: ('A' for Active; 'I' for Inactive)
REMARK    1  A    between atoms: C_2  and  N_3 
REMARK       I    between atoms: N_3  and  C_4 
REMARK    2  A    between atoms: C_4  and  C_5 
REMARK    3  A    between atoms: C_20  and  C_21 
REMARK       I    between atoms: C_21  and  N_22 
ROOT
HETATM    1  C   UNL     1      26.550  47.274  54.035  1.00  0.00     0.032 A 
HETATM    2  C   UNL     1      26.343  46.295  53.062  1.00  0.00     0.036 A 
HETATM    3  C   UNL     1      27.120  45.124  53.084  1.00  0.00     0.046 A 
HETATM    4  C   UNL     1      28.101  44.952  54.082  1.00  0.00     0.030 A 
HETATM    5  C   UNL     1      28.279  45.954  55.026  1.00  0.00     0.063 A 
HETATM    6  N   UNL     1      29.284  45.511  55.840  1.00  0.00    -0.277 N 
HETATM    7  H   UNL     1      29.681  45.991  56.640  1.00  0.00     0.189 HD
HETATM    8  N   UNL     1      29.771  44.301  55.514  1.00  0.00    -0.168 NA
HETATM    9  C   UNL     1      29.048  43.943  54.430  1.00  0.00     0.156 A 
HETATM   10  C   UNL     1      27.523  47.127  55.036  1.00  0.00     0.034 A 
ENDROOT
BRANCH   2  11
HETATM   11  N   UNL     1      25.384  46.396  52.029  1.00  0.00    -0.323 N 
HETATM   12  C   UNL     1      25.430  47.223  50.922  1.00  0.00     0.256 C 
HETATM   13  O   UNL     1      26.330  47.994  50.616  1.00  0.00    -0.267 OA
HETATM   14  H   UNL     1      24.617  45.740  52.099  1.00  0.00     0.169 HD
BRANCH  12  15
HETATM   15  C   UNL     1      24.266  47.129  49.998  1.00  0.00     0.038 A 
HETATM   16  C   UNL     1      23.607  48.256  49.509  1.00  0.00     0.061 A 
HETATM   17  C   UNL     1      22.544  48.045  48.651  1.00  0.00     0.128 A 
HETATM   18 CL   UNL     1      21.667  49.370  48.006  1.00  0.00    -0.062 Cl
HETATM   19  N   UNL     1      22.107  46.839  48.251  1.00  0.00    -0.225 NA
HETATM   20  C   UNL     1      22.783  45.778  48.727  1.00  0.00     0.128 A 
HETATM   21 CL   UNL     1      22.206  44.259  48.180  1.00  0.00    -0.062 Cl
HETATM   22  C   UNL     1      23.858  45.859  49.589  1.00  0.00     0.061 A 
ENDBRANCH  12  15
ENDBRANCH   2  11
BRANCH   9  23
HETATM   23  C   UNL     1      29.265  42.660  53.748  1.00  0.00     0.270 C 
HETATM   24  N   UNL     1      30.366  42.635  52.937  1.00  0.00    -0.365 N 
HETATM   25  H   UNL     1      30.936  43.469  52.867  1.00  0.00     0.159 HD
HETATM   26  H   UNL     1      30.600  41.795  52.432  1.00  0.00     0.159 HD
HETATM   27  O   UNL     1      28.540  41.677  53.877  1.00  0.00    -0.266 OA
ENDBRANCH   9  23
TORSDOF 3
ENDMDL
MODEL 8
REMARK VINA RESULT:      -8.0      2.458      4.031
REMARK  3 active torsions:
REMARK  status: ('A' for Active; 'I' for Inactive)
REMARK    1  A    between atoms: C_2  and  N_3 
REMARK       I    between atoms: N_3  and  C_4 
REMARK    2  A    between atoms: C_4  and  C_5 
REMARK    3  A    between atoms: C_20  and  C_21 
REMARK       I    between atoms: C_21  and  N_22 
ROOT
HETATM    1  C   UNL     1      27.319  40.933  51.643  1.00  0.00     0.032 A 
HETATM    2  C   UNL     1      27.035  42.232  52.067  1.00  0.00     0.036 A 
HETATM    3  C   UNL     1      26.047  42.976  51.398  1.00  0.00     0.046 A 
HETATM    4  C   UNL     1      25.360  42.408  50.306  1.00  0.00     0.030 A 
HETATM    5  C   UNL     1      25.679  41.116  49.914  1.00  0.00     0.063 A 
HETATM    6  N   UNL     1      24.867  40.850  48.847  1.00  0.00    -0.277 N 
HETATM    7  H   UNL     1      24.830  39.996  48.303  1.00  0.00     0.189 HD
HETATM    8  N   UNL     1      24.037  41.855  48.516  1.00  0.00    -0.168 NA
HETATM    9  C   UNL     1      24.330  42.824  49.411  1.00  0.00     0.156 A 
HETATM   10  C   UNL     1      26.652  40.347  50.556  1.00  0.00     0.034 A 
ENDROOT
BRANCH   2  11
HETATM   11  N   UNL     1      27.683  42.871  53.148  1.00  0.00    -0.323 N 
HETATM   12  C   UNL     1      29.017  43.226  53.233  1.00  0.00     0.256 C 
HETATM   13  O   UNL     1      29.873  43.085  52.370  1.00  0.00    -0.267 OA
HETATM   14  H   UNL     1      27.071  43.140  53.908  1.00  0.00     0.169 HD
BRANCH  12  15
HETATM   15  C   UNL     1      29.430  43.879  54.506  1.00  0.00     0.038 A 
HETATM   16  C   UNL     1      28.714  44.933  55.071  1.00  0.00     0.061 A 
HETATM   17  C   UNL     1      29.189  45.455  56.260  1.00  0.00     0.128 A 
HETATM   18 CL   UNL     1      28.379  46.759  57.026  1.00  0.00    -0.062 Cl
HETATM   19  N   UNL     1      30.280  45.016  56.911  1.00  0.00    -0.225 NA
HETATM   20  C   UNL     1      30.929  43.983  56.345  1.00  0.00     0.128 A 
HETATM   21 CL   UNL     1      32.305  43.442  57.213  1.00  0.00    -0.062 Cl
HETATM   22  C   UNL     1      30.556  43.379  55.162  1.00  0.00     0.061 A 
ENDBRANCH  12  15
ENDBRANCH   2  11
BRANCH   9  23
HETATM   23  C   UNL     1      23.633  44.117  49.404  1.00  0.00     0.270 C 
HETATM   24  N   UNL     1      22.466  44.128  50.118  1.00  0.00    -0.365 N 
HETATM   25  H   UNL     1      22.176  43.278  50.587  1.00  0.00     0.159 HD
HETATM   26  H   UNL     1      21.919  44.973  50.176  1.00  0.00     0.159 HD
HETATM   27  O   UNL     1      24.037  45.118  48.820  1.00  0.00    -0.266 OA
ENDBRANCH   9  23
TORSDOF 3
ENDMDL
MODEL 9
REMARK VINA RESULT:      -8.0      9.456     11.349
REMARK  3 active torsions:
REMARK  status: ('A' for Active; 'I' for Inactive)
REMARK    1  A    between atoms: C_2  and  N_3 
REMARK       I    between atoms: N_3  and  C_4 
REMARK    2  A    between atoms: C_4  and  C_5 
REMARK    3  A    between atoms: C_20  and  C_21 
REMARK       I    between atoms: C_21  and  N_22 
ROOT
HETATM    1  C   UNL     1      24.762  50.312  48.347  1.00  0.00     0.032 A 
HETATM    2  C   UNL     1      23.883  49.371  48.888  1.00  0.00     0.036 A 
HETATM    3  C   UNL     1      24.387  48.143  49.352  1.00  0.00     0.046 A 
HETATM    4  C   UNL     1      25.768  47.872  49.262  1.00  0.00     0.030 A 
HETATM    5  C   UNL     1      26.603  48.832  48.710  1.00  0.00     0.063 A 
HETATM    6  N   UNL     1      27.857  48.289  48.752  1.00  0.00    -0.277 N 
HETATM    7  H   UNL     1      28.720  48.712  48.428  1.00  0.00     0.189 HD
HETATM    8  N   UNL     1      27.912  47.060  49.294  1.00  0.00    -0.168 NA
HETATM    9  C   UNL     1      26.627  46.790  49.614  1.00  0.00     0.156 A 
HETATM   10  C   UNL     1      26.139  50.063  48.243  1.00  0.00     0.034 A 
ENDROOT
BRANCH   2  11
HETATM   11  N   UNL     1      22.489  49.567  49.008  1.00  0.00    -0.323 N 
HETATM   12  C   UNL     1      21.835  50.412  49.887  1.00  0.00     0.256 C 
HETATM   13  O   UNL     1      22.350  51.173  50.697  1.00  0.00    -0.267 OA
HETATM   14  H   UNL     1      21.932  49.068  48.327  1.00  0.00     0.169 HD
BRANCH  12  15
HETATM   15  C   UNL     1      20.350  50.407  49.801  1.00  0.00     0.038 A 
HETATM   16  C   UNL     1      19.592  51.574  49.879  1.00  0.00     0.061 A 
HETATM   17  C   UNL     1      18.219  51.446  49.778  1.00  0.00     0.128 A 
HETATM   18 CL   UNL     1      17.205  52.826  49.870  1.00  0.00    -0.062 Cl
HETATM   19  N   UNL     1      17.566  50.285  49.604  1.00  0.00    -0.225 NA
HETATM   20  C   UNL     1      18.334  49.184  49.510  1.00  0.00     0.128 A 
HETATM   21 CL   UNL     1      17.465  47.726  49.272  1.00  0.00    -0.062 Cl
HETATM   22  C   UNL     1      19.711  49.182  49.597  1.00  0.00     0.061 A 
ENDBRANCH  12  15
ENDBRANCH   2  11
BRANCH   9  23
HETATM   23  C   UNL     1      26.241  45.521  50.246  1.00  0.00     0.270 C 
HETATM   24  N   UNL     1      26.033  44.497  49.364  1.00  0.00    -0.365 N 
HETATM   25  H   UNL     1      26.158  44.675  48.375  1.00  0.00     0.159 HD
HETATM   26  H   UNL     1      25.770  43.585  49.704  1.00  0.00     0.159 HD
HETATM   27  O   UNL     1      26.110  45.363  51.456  1.00  0.00    -0.266 OA
ENDBRANCH   9  23
TORSDOF 3
ENDMDL
MODEL 10
REMARK VINA RESULT:      -7.8      5.804      7.698
REMARK  3 active torsions:
REMARK  status: ('A' for Active; 'I' for Inactive)
REMARK    1  A    between atoms: C_2  and  N_3 
REMARK       I    between atoms: N_3  and  C_4 
REMARK    2  A    between atoms: C_4  and  C_5 
REMARK    3  A    between atoms: C_20  and  C_21 
REMARK       I    between atoms: C_21  and  N_22 
ROOT
HETATM    1  C   UNL     1      23.691  44.275  49.826  1.00  0.00     0.032 A 
HETATM    2  C   UNL     1      24.527  45.305  50.262  1.00  0.00     0.036 A 
HETATM    3  C   UNL     1      24.322  46.610  49.781  1.00  0.00     0.046 A 
HETATM    4  C   UNL     1      23.283  46.865  48.864  1.00  0.00     0.030 A 
HETATM    5  C   UNL     1      22.481  45.810  48.451  1.00  0.00     0.063 A 
HETATM    6  N   UNL     1      21.585  46.357  47.575  1.00  0.00    -0.277 N 
HETATM    7  H   UNL     1      20.848  45.876  47.073  1.00  0.00     0.189 HD
HETATM    8  N   UNL     1      21.729  47.681  47.387  1.00  0.00    -0.168 NA
HETATM    9  C   UNL     1      22.774  48.008  48.179  1.00  0.00     0.156 A 
HETATM   10  C   UNL     1      22.653  44.503  48.910  1.00  0.00     0.034 A 
ENDROOT
BRANCH   2  11
HETATM   11  N   UNL     1      25.590  45.127  51.175  1.00  0.00    -0.323 N 
HETATM   12  C   UNL     1      25.503  44.716  52.493  1.00  0.00     0.256 C 
HETATM   13  O   UNL     1      24.488  44.394  53.098  1.00  0.00    -0.267 OA
HETATM   14  H   UNL     1      26.512  45.267  50.782  1.00  0.00     0.169 HD
BRANCH  12  15
HETATM   15  C   UNL     1      26.794  44.630  53.228  1.00  0.00     0.038 A 
HETATM   16  C   UNL     1      27.848  43.826  52.796  1.00  0.00     0.061 A 
HETATM   17  C   UNL     1      29.003  43.833  53.556  1.00  0.00     0.128 A 
HETATM   18 CL   UNL     1      30.349  42.871  53.107  1.00  0.00    -0.062 Cl
HETATM   19  N   UNL     1      29.184  44.560  54.672  1.00  0.00    -0.225 NA
HETATM   20  C   UNL     1      28.152  45.340  55.042  1.00  0.00     0.128 A 
HETATM   21 CL   UNL     1      28.428  46.264  56.459  1.00  0.00    -0.062 Cl
HETATM   22  C   UNL     1      26.950  45.418  54.369  1.00  0.00     0.061 A 
ENDBRANCH  12  15
ENDBRANCH   2  11
BRANCH   9  23
HETATM   23  C   UNL     1      23.267  49.389  48.273  1.00  0.00     0.270 C 
HETATM   24  N   UNL     1      22.922  50.028  49.432  1.00  0.00    -0.365 N 
HETATM   25  H   UNL     1      22.375  49.524  50.120  1.00  0.00     0.159 HD
HETATM   26  H   UNL     1      23.219  50.978  49.592  1.00  0.00     0.159 HD
HETATM   27  O   UNL     1      23.933  49.947  47.407  1.00  0.00    -0.266 OA
ENDBRANCH   9  23
TORSDOF 3
ENDMDL
