MODEL 1
REMARK VINA RESULT:      -9.1      0.000      0.000
REMARK  7 active torsions:
REMARK  status: ('A' for Active; 'I' for Inactive)
REMARK    1  A    between atoms: C_7  and  C_8 
REMARK    2  A    between atoms: C_8  and  C_9 
REMARK    3  A    between atoms: C_9  and  C_10 
REMARK    4  A    between atoms: C_10  and  O_11 
REMARK    5  A    between atoms: C_13  and  C_14 
REMARK    6  A    between atoms: C_21  and  C_22 
REMARK       I    between atoms: C_22  and  N_23 
REMARK    7  A    between atoms: N_23  and  C_24 
ROOT
HETATM    1  C   UNL     1      22.933  43.808  48.469  1.00  0.00     0.070 C 
HETATM    2  C   UNL     1      23.660  44.842  49.293  1.00  0.00     0.037 C 
HETATM    3  N   UNL     1      24.603  44.343  50.185  1.00  0.00    -0.192 N 
HETATM    4  C   UNL     1      25.169  45.093  51.151  1.00  0.00     0.726 A 
HETATM    5  N   UNL     1      24.937  46.440  51.181  1.00  0.00    -0.083 N 
HETATM    6  N   UNL     1      25.518  47.016  52.255  1.00  0.00    -0.140 NA
HETATM    7  C   UNL     1      26.115  45.955  52.816  1.00  0.00     0.166 A 
HETATM    8  N   UNL     1      25.925  44.758  52.164  1.00  0.00    -0.046 NA
HETATM    9  C   UNL     1      24.096  47.150  50.210  1.00  0.00     0.202 C 
HETATM   10  C   UNL     1      23.405  46.174  49.263  1.00  0.00     0.062 C 
HETATM   11  H   UNL     1      24.705  43.333  50.247  1.00  0.00     0.184 HD
ENDROOT
BRANCH  10  12
HETATM   12  C   UNL     1      22.373  46.809  48.403  1.00  0.00     0.256 C 
HETATM   13  N   UNL     1      21.375  47.436  49.118  1.00  0.00    -0.323 N 
HETATM   14  H   UNL     1      21.442  47.402  50.127  1.00  0.00     0.169 HD
HETATM   15  O   UNL     1      22.461  46.684  47.190  1.00  0.00    -0.267 OA
BRANCH  13  16
HETATM   16  C   UNL     1      20.261  48.128  48.598  1.00  0.00     0.035 A 
HETATM   17  C   UNL     1      20.347  49.127  47.626  1.00  0.00     0.031 A 
HETATM   18  C   UNL     1      19.193  49.771  47.165  1.00  0.00     0.026 A 
HETATM   19  C   UNL     1      17.949  49.423  47.682  1.00  0.00     0.034 A 
HETATM   20 CL   UNL     1      16.532  50.222  47.121  1.00  0.00    -0.084 Cl
HETATM   21  C   UNL     1      17.847  48.431  48.651  1.00  0.00     0.026 A 
HETATM   22  C   UNL     1      19.000  47.783  49.105  1.00  0.00     0.031 A 
ENDBRANCH  13  16
ENDBRANCH  10  12
BRANCH   9  23
HETATM   23  C   UNL     1      24.914  48.196  49.455  1.00  0.00    -0.025 A 
HETATM   24  C   UNL     1      26.315  48.185  49.559  1.00  0.00     0.052 A 
HETATM   25  C   UNL     1      27.073  49.143  48.894  1.00  0.00     0.117 A 
HETATM   26  F   UNL     1      28.408  49.118  49.000  1.00  0.00    -0.206 F 
HETATM   27  C   UNL     1      26.467  50.129  48.124  1.00  0.00     0.042 A 
HETATM   28  C   UNL     1      25.079  50.159  48.017  1.00  0.00     0.004 A 
HETATM   29  C   UNL     1      24.306  49.201  48.680  1.00  0.00     0.010 A 
ENDBRANCH   9  23
BRANCH   7  30
HETATM   30  C   UNL     1      26.919  46.058  54.061  1.00  0.00     0.085 C 
BRANCH  30  31
HETATM   31  C   UNL     1      27.355  47.484  54.383  1.00  0.00     0.034 C 
BRANCH  31  32
HETATM   32  C   UNL     1      26.470  48.154  55.429  1.00  0.00     0.164 C 
BRANCH  32  33
HETATM   33  O   UNL     1      25.347  48.751  54.791  1.00  0.00    -0.401 OA
HETATM   34  H   UNL     1      24.640  48.084  54.756  1.00  0.00     0.209 HD
ENDBRANCH  32  33
ENDBRANCH  31  32
ENDBRANCH  30  31
ENDBRANCH   7  30
TORSDOF 7
ENDMDL
MODEL 2
REMARK VINA RESULT:      -8.9      1.735      1.988
REMARK  7 active torsions:
REMARK  status: ('A' for Active; 'I' for Inactive)
REMARK    1  A    between atoms: C_7  and  C_8 
REMARK    2  A    between atoms: C_8  and  C_9 
REMARK    3  A    between atoms: C_9  and  C_10 
REMARK    4  A    between atoms: C_10  and  O_11 
REMARK    5  A    between atoms: C_13  and  C_14 
REMARK    6  A    between atoms: C_21  and  C_22 
REMARK       I    between atoms: C_22  and  N_23 
REMARK    7  A    between atoms: N_23  and  C_24 
ROOT
HETATM    1  C   UNL     1      22.359  44.472  48.099  1.00  0.00     0.070 C 
HETATM    2  C   UNL     1      23.294  45.248  48.993  1.00  0.00     0.037 C 
HETATM    3  N   UNL     1      24.183  44.483  49.741  1.00  0.00    -0.192 N 
HETATM    4  C   UNL     1      24.918  44.989  50.750  1.00  0.00     0.726 A 
HETATM    5  N   UNL     1      24.923  46.338  50.970  1.00  0.00    -0.083 N 
HETATM    6  N   UNL     1      25.648  46.656  52.064  1.00  0.00    -0.140 NA
HETATM    7  C   UNL     1      26.083  45.444  52.437  1.00  0.00     0.166 A 
HETATM    8  N   UNL     1      25.658  44.398  51.652  1.00  0.00    -0.046 NA
HETATM    9  C   UNL     1      24.165  47.304  50.165  1.00  0.00     0.202 C 
HETATM   10  C   UNL     1      23.269  46.595  49.154  1.00  0.00     0.062 C 
HETATM   11  H   UNL     1      24.114  43.472  49.664  1.00  0.00     0.184 HD
ENDROOT
BRANCH  10  12
HETATM   12  C   UNL     1      22.318  47.504  48.463  1.00  0.00     0.256 C 
HETATM   13  N   UNL     1      21.578  48.282  49.327  1.00  0.00    -0.323 N 
HETATM   14  H   UNL     1      21.751  48.160  50.316  1.00  0.00     0.169 HD
HETATM   15  O   UNL     1      22.236  47.451  47.244  1.00  0.00    -0.267 OA
BRANCH  13  16
HETATM   16  C   UNL     1      20.599  49.238  48.987  1.00  0.00     0.035 A 
HETATM   17  C   UNL     1      20.863  50.601  48.824  1.00  0.00     0.031 A 
HETATM   18  C   UNL     1      19.834  51.489  48.490  1.00  0.00     0.026 A 
HETATM   19  C   UNL     1      18.536  51.018  48.324  1.00  0.00     0.034 A 
HETATM   20 CL   UNL     1      17.270  52.112  47.923  1.00  0.00    -0.084 Cl
HETATM   21  C   UNL     1      18.257  49.664  48.484  1.00  0.00     0.026 A 
HETATM   22  C   UNL     1      19.288  48.777  48.809  1.00  0.00     0.031 A 
ENDBRANCH  13  16
ENDBRANCH  10  12
BRANCH   9  23
HETATM   23  C   UNL     1      25.110  48.298  49.492  1.00  0.00    -0.025 A 
HETATM   24  C   UNL     1      26.495  48.190  49.706  1.00  0.00     0.052 A 
HETATM   25  C   UNL     1      27.366  49.100  49.117  1.00  0.00     0.117 A 
HETATM   26  F   UNL     1      28.684  48.982  49.327  1.00  0.00    -0.206 F 
HETATM   27  C   UNL     1      26.892  50.132  48.316  1.00  0.00     0.042 A 
HETATM   28  C   UNL     1      25.522  50.258  48.100  1.00  0.00     0.004 A 
HETATM   29  C   UNL     1      24.635  49.350  48.686  1.00  0.00     0.010 A 
ENDBRANCH   9  23
BRANCH   7  30
HETATM   30  C   UNL     1      26.957  45.240  53.621  1.00  0.00     0.085 C 
BRANCH  30  31
HETATM   31  C   UNL     1      26.578  44.016  54.449  1.00  0.00     0.034 C 
BRANCH  31  32
HETATM   32  C   UNL     1      27.524  42.840  54.238  1.00  0.00     0.164 C 
BRANCH  32  33
HETATM   33  O   UNL     1      27.069  42.051  53.144  1.00  0.00    -0.401 OA
HETATM   34  H   UNL     1      26.212  41.667  53.396  1.00  0.00     0.209 HD
ENDBRANCH  32  33
ENDBRANCH  31  32
ENDBRANCH  30  31
ENDBRANCH   7  30
TORSDOF 7
ENDMDL
MODEL 3
REMARK VINA RESULT:      -8.8      4.861      9.158
REMARK  7 active torsions:
REMARK  status: ('A' for Active; 'I' for Inactive)
REMARK    1  A    between atoms: C_7  and  C_8 
REMARK    2  A    between atoms: C_8  and  C_9 
REMARK    3  A    between atoms: C_9  and  C_10 
REMARK    4  A    between atoms: C_10  and  O_11 
REMARK    5  A    between atoms: C_13  and  C_14 
REMARK    6  A    between atoms: C_21  and  C_22 
REMARK       I    between atoms: C_22  and  N_23 
REMARK    7  A    between atoms: N_23  and  C_24 
ROOT
HETATM    1  C   UNL     1      25.608  47.398  51.590  1.00  0.00     0.070 C 
HETATM    2  C   UNL     1      25.008  46.193  50.908  1.00  0.00     0.037 C 
HETATM    3  N   UNL     1      24.244  46.462  49.778  1.00  0.00    -0.192 N 
HETATM    4  C   UNL     1      23.454  45.543  49.190  1.00  0.00     0.726 A 
HETATM    5  N   UNL     1      23.504  44.242  49.611  1.00  0.00    -0.083 N 
HETATM    6  N   UNL     1      22.594  43.481  48.967  1.00  0.00    -0.140 NA
HETATM    7  C   UNL     1      22.049  44.386  48.141  1.00  0.00     0.166 A 
HETATM    8  N   UNL     1      22.555  45.661  48.248  1.00  0.00    -0.046 NA
HETATM    9  C   UNL     1      24.380  43.761  50.686  1.00  0.00     0.202 C 
HETATM   10  C   UNL     1      25.111  44.918  51.359  1.00  0.00     0.062 C 
HETATM   11  H   UNL     1      24.113  47.436  49.518  1.00  0.00     0.184 HD
ENDROOT
BRANCH  10  12
HETATM   12  C   UNL     1      25.841  44.522  52.592  1.00  0.00     0.256 C 
HETATM   13  N   UNL     1      27.206  44.684  52.497  1.00  0.00    -0.323 N 
HETATM   14  H   UNL     1      27.565  45.046  51.623  1.00  0.00     0.169 HD
HETATM   15  O   UNL     1      25.204  44.057  53.527  1.00  0.00    -0.267 OA
BRANCH  13  16
HETATM   16  C   UNL     1      28.169  44.403  53.489  1.00  0.00     0.035 A 
HETATM   17  C   UNL     1      28.423  45.230  54.585  1.00  0.00     0.031 A 
HETATM   18  C   UNL     1      29.401  44.883  55.525  1.00  0.00     0.026 A 
HETATM   19  C   UNL     1      30.132  43.710  55.366  1.00  0.00     0.034 A 
HETATM   20 CL   UNL     1      31.340  43.289  56.517  1.00  0.00    -0.084 Cl
HETATM   21  C   UNL     1      29.891  42.877  54.279  1.00  0.00     0.026 A 
HETATM   22  C   UNL     1      28.908  43.221  53.346  1.00  0.00     0.031 A 
ENDBRANCH  13  16
ENDBRANCH  10  12
BRANCH   9  23
HETATM   23  C   UNL     1      25.348  42.705  50.155  1.00  0.00    -0.025 A 
HETATM   24  C   UNL     1      25.251  41.382  50.620  1.00  0.00     0.052 A 
HETATM   25  C   UNL     1      26.139  40.414  50.162  1.00  0.00     0.117 A 
HETATM   26  F   UNL     1      26.031  39.156  50.611  1.00  0.00    -0.206 F 
HETATM   27  C   UNL     1      27.137  40.731  49.249  1.00  0.00     0.042 A 
HETATM   28  C   UNL     1      27.253  42.038  48.785  1.00  0.00     0.004 A 
HETATM   29  C   UNL     1      26.367  43.021  49.237  1.00  0.00     0.010 A 
ENDBRANCH   9  23
BRANCH   7  30
HETATM   30  C   UNL     1      20.968  44.042  47.182  1.00  0.00     0.085 C 
BRANCH  30  31
HETATM   31  C   UNL     1      20.073  45.227  46.829  1.00  0.00     0.034 C 
BRANCH  31  32
HETATM   32  C   UNL     1      18.616  45.006  47.219  1.00  0.00     0.164 C 
BRANCH  32  33
HETATM   33  O   UNL     1      18.537  44.664  48.598  1.00  0.00    -0.401 OA
HETATM   34  H   UNL     1      19.070  45.310  49.092  1.00  0.00     0.209 HD
ENDBRANCH  32  33
ENDBRANCH  31  32
ENDBRANCH  30  31
ENDBRANCH   7  30
TORSDOF 7
ENDMDL
MODEL 4
REMARK VINA RESULT:      -8.8      2.027      2.392
REMARK  7 active torsions:
REMARK  status: ('A' for Active; 'I' for Inactive)
REMARK    1  A    between atoms: C_7  and  C_8 
REMARK    2  A    between atoms: C_8  and  C_9 
REMARK    3  A    between atoms: C_9  and  C_10 
REMARK    4  A    between atoms: C_10  and  O_11 
REMARK    5  A    between atoms: C_13  and  C_14 
REMARK    6  A    between atoms: C_21  and  C_22 
REMARK       I    between atoms: C_22  and  N_23 
REMARK    7  A    between atoms: N_23  and  C_24 
ROOT
HETATM    1  C   UNL     1      24.811  42.973  49.624  1.00  0.00     0.070 C 
HETATM    2  C   UNL     1      25.046  44.314  50.276  1.00  0.00     0.037 C 
HETATM    3  N   UNL     1      25.913  44.308  51.363  1.00  0.00    -0.192 N 
HETATM    4  C   UNL     1      26.053  45.358  52.195  1.00  0.00     0.726 A 
HETATM    5  N   UNL     1      25.442  46.544  51.895  1.00  0.00    -0.083 N 
HETATM    6  N   UNL     1      25.626  47.455  52.874  1.00  0.00    -0.140 NA
HETATM    7  C   UNL     1      26.390  46.757  53.725  1.00  0.00     0.166 A 
HETATM    8  N   UNL     1      26.676  45.467  53.340  1.00  0.00    -0.046 NA
HETATM    9  C   UNL     1      24.623  46.763  50.697  1.00  0.00     0.202 C 
HETATM   10  C   UNL     1      24.428  45.467  49.917  1.00  0.00     0.062 C 
HETATM   11  H   UNL     1      26.290  43.412  51.661  1.00  0.00     0.184 HD
ENDROOT
BRANCH  10  12
HETATM   12  C   UNL     1      23.431  45.577  48.821  1.00  0.00     0.256 C 
HETATM   13  N   UNL     1      22.205  46.046  49.239  1.00  0.00    -0.323 N 
HETATM   14  H   UNL     1      22.109  46.263  50.223  1.00  0.00     0.169 HD
HETATM   15  O   UNL     1      23.750  45.208  47.699  1.00  0.00    -0.267 OA
BRANCH  13  16
HETATM   16  C   UNL     1      21.059  46.263  48.446  1.00  0.00     0.035 A 
HETATM   17  C   UNL     1      20.850  47.409  47.676  1.00  0.00     0.031 A 
HETATM   18  C   UNL     1      19.681  47.553  46.918  1.00  0.00     0.026 A 
HETATM   19  C   UNL     1      18.715  46.552  46.935  1.00  0.00     0.034 A 
HETATM   20 CL   UNL     1      17.276  46.733  46.010  1.00  0.00    -0.084 Cl
HETATM   21  C   UNL     1      18.909  45.405  47.698  1.00  0.00     0.026 A 
HETATM   22  C   UNL     1      20.081  45.260  48.448  1.00  0.00     0.031 A 
ENDBRANCH  13  16
ENDBRANCH  10  12
BRANCH   9  23
HETATM   23  C   UNL     1      25.228  47.865  49.828  1.00  0.00    -0.025 A 
HETATM   24  C   UNL     1      24.379  48.764  49.161  1.00  0.00     0.052 A 
HETATM   25  C   UNL     1      24.915  49.760  48.350  1.00  0.00     0.117 A 
HETATM   26  F   UNL     1      24.093  50.613  47.724  1.00  0.00    -0.206 F 
HETATM   27  C   UNL     1      26.288  49.883  48.177  1.00  0.00     0.042 A 
HETATM   28  C   UNL     1      27.143  48.994  48.824  1.00  0.00     0.004 A 
HETATM   29  C   UNL     1      26.618  47.989  49.642  1.00  0.00     0.010 A 
ENDBRANCH   9  23
BRANCH   7  30
HETATM   30  C   UNL     1      26.890  47.330  55.001  1.00  0.00     0.085 C 
BRANCH  30  31
HETATM   31  C   UNL     1      28.393  47.149  55.199  1.00  0.00     0.034 C 
BRANCH  31  32
HETATM   32  C   UNL     1      28.737  45.939  56.059  1.00  0.00     0.164 C 
BRANCH  32  33
HETATM   33  O   UNL     1      29.129  44.854  55.224  1.00  0.00    -0.401 OA
HETATM   34  H   UNL     1      28.335  44.325  55.038  1.00  0.00     0.209 HD
ENDBRANCH  32  33
ENDBRANCH  31  32
ENDBRANCH  30  31
ENDBRANCH   7  30
TORSDOF 7
ENDMDL
MODEL 5
REMARK VINA RESULT:      -8.6      5.563      9.624
REMARK  7 active torsions:
REMARK  status: ('A' for Active; 'I' for Inactive)
REMARK    1  A    between atoms: C_7  and  C_8 
REMARK    2  A    between atoms: C_8  and  C_9 
REMARK    3  A    between atoms: C_9  and  C_10 
REMARK    4  A    between atoms: C_10  and  O_11 
REMARK    5  A    between atoms: C_13  and  C_14 
REMARK    6  A    between atoms: C_21  and  C_22 
REMARK       I    between atoms: C_22  and  N_23 
REMARK    7  A    between atoms: N_23  and  C_24 
ROOT
HETATM    1  C   UNL     1      25.745  46.485  50.536  1.00  0.00     0.070 C 
HETATM    2  C   UNL     1      25.311  45.124  50.052  1.00  0.00     0.037 C 
HETATM    3  N   UNL     1      24.592  45.111  48.862  1.00  0.00    -0.192 N 
HETATM    4  C   UNL     1      23.936  44.024  48.413  1.00  0.00     0.726 A 
HETATM    5  N   UNL     1      24.092  42.828  49.057  1.00  0.00    -0.083 N 
HETATM    6  N   UNL     1      23.304  41.872  48.519  1.00  0.00    -0.140 NA
HETATM    7  C   UNL     1      22.719  42.558  47.526  1.00  0.00     0.166 A 
HETATM    8  N   UNL     1      23.086  43.881  47.429  1.00  0.00    -0.046 NA
HETATM    9  C   UNL     1      24.947  42.635  50.234  1.00  0.00     0.202 C 
HETATM   10  C   UNL     1      25.516  43.963  50.724  1.00  0.00     0.062 C 
HETATM   11  H   UNL     1      24.378  46.006  48.431  1.00  0.00     0.184 HD
ENDROOT
BRANCH  10  12
HETATM   12  C   UNL     1      26.208  43.865  52.035  1.00  0.00     0.256 C 
HETATM   13  N   UNL     1      27.582  43.866  51.932  1.00  0.00    -0.323 N 
HETATM   14  H   UNL     1      27.971  43.932  51.001  1.00  0.00     0.169 HD
HETATM   15  O   UNL     1      25.532  43.744  53.048  1.00  0.00    -0.267 OA
BRANCH  13  16
HETATM   16  C   UNL     1      28.516  43.788  52.986  1.00  0.00     0.035 A 
HETATM   17  C   UNL     1      29.584  42.888  53.017  1.00  0.00     0.031 A 
HETATM   18  C   UNL     1      30.466  42.869  54.103  1.00  0.00     0.026 A 
HETATM   19  C   UNL     1      30.279  43.747  55.166  1.00  0.00     0.034 A 
HETATM   20 CL   UNL     1      31.358  43.716  56.505  1.00  0.00    -0.084 Cl
HETATM   21  C   UNL     1      29.220  44.648  55.150  1.00  0.00     0.026 A 
HETATM   22  C   UNL     1      28.344  44.671  54.060  1.00  0.00     0.031 A 
ENDBRANCH  13  16
ENDBRANCH  10  12
BRANCH   9  23
HETATM   23  C   UNL     1      26.047  41.618  49.936  1.00  0.00    -0.025 A 
HETATM   24  C   UNL     1      26.917  41.836  48.855  1.00  0.00     0.052 A 
HETATM   25  C   UNL     1      27.910  40.908  48.559  1.00  0.00     0.117 A 
HETATM   26  F   UNL     1      28.735  41.133  47.527  1.00  0.00    -0.206 F 
HETATM   27  C   UNL     1      28.059  39.751  49.313  1.00  0.00     0.042 A 
HETATM   28  C   UNL     1      27.200  39.515  50.383  1.00  0.00     0.004 A 
HETATM   29  C   UNL     1      26.197  40.440  50.692  1.00  0.00     0.010 A 
ENDBRANCH   9  23
BRANCH   7  30
HETATM   30  C   UNL     1      21.738  41.940  46.599  1.00  0.00     0.085 C 
BRANCH  30  31
HETATM   31  C   UNL     1      21.872  40.423  46.500  1.00  0.00     0.034 C 
BRANCH  31  32
HETATM   32  C   UNL     1      20.531  39.702  46.581  1.00  0.00     0.164 C 
BRANCH  32  33
HETATM   33  O   UNL     1      20.306  39.261  47.916  1.00  0.00    -0.401 OA
HETATM   34  H   UNL     1      20.910  38.517  48.085  1.00  0.00     0.209 HD
ENDBRANCH  32  33
ENDBRANCH  31  32
ENDBRANCH  30  31
ENDBRANCH   7  30
TORSDOF 7
ENDMDL
MODEL 6
REMARK VINA RESULT:      -8.5      3.921      7.759
REMARK  7 active torsions:
REMARK  status: ('A' for Active; 'I' for Inactive)
REMARK    1  A    between atoms: C_7  and  C_8 
REMARK    2  A    between atoms: C_8  and  C_9 
REMARK    3  A    between atoms: C_9  and  C_10 
REMARK    4  A    between atoms: C_10  and  O_11 
REMARK    5  A    between atoms: C_13  and  C_14 
REMARK    6  A    between atoms: C_21  and  C_22 
REMARK       I    between atoms: C_22  and  N_23 
REMARK    7  A    between atoms: N_23  and  C_24 
ROOT
HETATM    1  C   UNL     1      26.913  49.870  48.516  1.00  0.00     0.070 C 
HETATM    2  C   UNL     1      25.452  49.522  48.657  1.00  0.00     0.037 C 
HETATM    3  N   UNL     1      24.560  50.464  48.154  1.00  0.00    -0.192 N 
HETATM    4  C   UNL     1      23.236  50.426  48.401  1.00  0.00     0.726 A 
HETATM    5  N   UNL     1      22.701  49.345  49.044  1.00  0.00    -0.083 N 
HETATM    6  N   UNL     1      21.381  49.513  49.275  1.00  0.00    -0.140 NA
HETATM    7  C   UNL     1      21.178  50.712  48.711  1.00  0.00     0.166 A 
HETATM    8  N   UNL     1      22.294  51.301  48.162  1.00  0.00    -0.046 NA
HETATM    9  C   UNL     1      23.483  48.189  49.496  1.00  0.00     0.202 C 
HETATM   10  C   UNL     1      24.977  48.418  49.286  1.00  0.00     0.062 C 
HETATM   11  H   UNL     1      24.947  51.322  47.770  1.00  0.00     0.184 HD
ENDROOT
BRANCH  10  12
HETATM   12  C   UNL     1      25.833  47.383  49.922  1.00  0.00     0.256 C 
HETATM   13  N   UNL     1      25.601  47.235  51.272  1.00  0.00    -0.323 N 
HETATM   14  H   UNL     1      24.892  47.827  51.683  1.00  0.00     0.169 HD
HETATM   15  O   UNL     1      26.671  46.813  49.237  1.00  0.00    -0.267 OA
BRANCH  13  16
HETATM   16  C   UNL     1      26.244  46.341  52.153  1.00  0.00     0.035 A 
HETATM   17  C   UNL     1      26.692  46.691  53.429  1.00  0.00     0.031 A 
HETATM   18  C   UNL     1      27.326  45.745  54.244  1.00  0.00     0.026 A 
HETATM   19  C   UNL     1      27.521  44.448  53.781  1.00  0.00     0.034 A 
HETATM   20 CL   UNL     1      28.309  43.289  54.779  1.00  0.00    -0.084 Cl
HETATM   21  C   UNL     1      27.081  44.085  52.512  1.00  0.00     0.026 A 
HETATM   22  C   UNL     1      26.440  45.028  51.703  1.00  0.00     0.031 A 
ENDBRANCH  13  16
ENDBRANCH  10  12
BRANCH   9  23
HETATM   23  C   UNL     1      23.000  46.912  48.809  1.00  0.00    -0.025 A 
HETATM   24  C   UNL     1      22.335  47.001  47.574  1.00  0.00     0.052 A 
HETATM   25  C   UNL     1      21.871  45.850  46.947  1.00  0.00     0.117 A 
HETATM   26  F   UNL     1      21.243  45.950  45.767  1.00  0.00    -0.206 F 
HETATM   27  C   UNL     1      22.045  44.598  47.524  1.00  0.00     0.042 A 
HETATM   28  C   UNL     1      22.693  44.493  48.751  1.00  0.00     0.004 A 
HETATM   29  C   UNL     1      23.166  45.643  49.393  1.00  0.00     0.010 A 
ENDBRANCH   9  23
BRANCH   7  30
HETATM   30  C   UNL     1      19.846  51.367  48.686  1.00  0.00     0.085 C 
BRANCH  30  31
HETATM   31  C   UNL     1      19.165  51.407  50.052  1.00  0.00     0.034 C 
BRANCH  31  32
HETATM   32  C   UNL     1      18.346  50.155  50.344  1.00  0.00     0.164 C 
BRANCH  32  33
HETATM   33  O   UNL     1      18.993  49.385  51.351  1.00  0.00    -0.401 OA
HETATM   34  H   UNL     1      18.304  49.044  51.948  1.00  0.00     0.209 HD
ENDBRANCH  32  33
ENDBRANCH  31  32
ENDBRANCH  30  31
ENDBRANCH   7  30
TORSDOF 7
ENDMDL
MODEL 7
REMARK VINA RESULT:      -8.4      3.930      7.905
REMARK  7 active torsions:
REMARK  status: ('A' for Active; 'I' for Inactive)
REMARK    1  A    between atoms: C_7  and  C_8 
REMARK    2  A    between atoms: C_8  and  C_9 
REMARK    3  A    between atoms: C_9  and  C_10 
REMARK    4  A    between atoms: C_10  and  O_11 
REMARK    5  A    between atoms: C_13  and  C_14 
REMARK    6  A    between atoms: C_21  and  C_22 
REMARK       I    between atoms: C_22  and  N_23 
REMARK    7  A    between atoms: N_23  and  C_24 
ROOT
HETATM    1  C   UNL     1      26.514  49.910  48.431  1.00  0.00     0.070 C 
HETATM    2  C   UNL     1      25.100  49.405  48.577  1.00  0.00     0.037 C 
HETATM    3  N   UNL     1      24.112  50.224  48.041  1.00  0.00    -0.192 N 
HETATM    4  C   UNL     1      22.799  50.046  48.284  1.00  0.00     0.726 A 
HETATM    5  N   UNL     1      22.383  48.932  48.958  1.00  0.00    -0.083 N 
HETATM    6  N   UNL     1      21.051  48.958  49.178  1.00  0.00    -0.140 NA
HETATM    7  C   UNL     1      20.720  50.109  48.576  1.00  0.00     0.166 A 
HETATM    8  N   UNL     1      21.767  50.802  48.013  1.00  0.00    -0.046 NA
HETATM    9  C   UNL     1      23.287  47.885  49.450  1.00  0.00     0.202 C 
HETATM   10  C   UNL     1      24.746  48.274  49.238  1.00  0.00     0.062 C 
HETATM   11  H   UNL     1      24.403  51.108  47.632  1.00  0.00     0.184 HD
ENDROOT
BRANCH  10  12
HETATM   12  C   UNL     1      25.708  47.362  49.910  1.00  0.00     0.256 C 
HETATM   13  N   UNL     1      25.487  47.233  51.264  1.00  0.00    -0.323 N 
HETATM   14  H   UNL     1      24.714  47.757  51.654  1.00  0.00     0.169 HD
HETATM   15  O   UNL     1      26.608  46.866  49.246  1.00  0.00    -0.267 OA
BRANCH  13  16
HETATM   16  C   UNL     1      26.219  46.445  52.176  1.00  0.00     0.035 A 
HETATM   17  C   UNL     1      26.626  46.888  53.437  1.00  0.00     0.031 A 
HETATM   18  C   UNL     1      27.356  46.045  54.284  1.00  0.00     0.026 A 
HETATM   19  C   UNL     1      27.687  44.759  53.868  1.00  0.00     0.034 A 
HETATM   20 CL   UNL     1      28.592  43.728  54.907  1.00  0.00    -0.084 Cl
HETATM   21  C   UNL     1      27.289  44.305  52.616  1.00  0.00     0.026 A 
HETATM   22  C   UNL     1      26.553  45.145  51.774  1.00  0.00     0.031 A 
ENDBRANCH  13  16
ENDBRANCH  10  12
BRANCH   9  23
HETATM   23  C   UNL     1      22.954  46.542  48.801  1.00  0.00    -0.025 A 
HETATM   24  C   UNL     1      23.176  45.355  49.519  1.00  0.00     0.052 A 
HETATM   25  C   UNL     1      22.898  44.123  48.935  1.00  0.00     0.117 A 
HETATM   26  F   UNL     1      23.109  43.000  49.633  1.00  0.00    -0.206 F 
HETATM   27  C   UNL     1      22.407  44.039  47.638  1.00  0.00     0.042 A 
HETATM   28  C   UNL     1      22.190  45.206  46.909  1.00  0.00     0.004 A 
HETATM   29  C   UNL     1      22.465  46.451  47.485  1.00  0.00     0.010 A 
ENDBRANCH   9  23
BRANCH   7  30
HETATM   30  C   UNL     1      19.322  50.609  48.525  1.00  0.00     0.085 C 
BRANCH  30  31
HETATM   31  C   UNL     1      19.207  52.110  48.777  1.00  0.00     0.034 C 
BRANCH  31  32
HETATM   32  C   UNL     1      17.947  52.488  49.548  1.00  0.00     0.164 C 
BRANCH  32  33
HETATM   33  O   UNL     1      17.435  51.341  50.217  1.00  0.00    -0.401 OA
HETATM   34  H   UNL     1      16.483  51.290  50.025  1.00  0.00     0.209 HD
ENDBRANCH  32  33
ENDBRANCH  31  32
ENDBRANCH  30  31
ENDBRANCH   7  30
TORSDOF 7
ENDMDL
MODEL 8
REMARK VINA RESULT:      -8.3      5.233      8.687
REMARK  7 active torsions:
REMARK  status: ('A' for Active; 'I' for Inactive)
REMARK    1  A    between atoms: C_7  and  C_8 
REMARK    2  A    between atoms: C_8  and  C_9 
REMARK    3  A    between atoms: C_9  and  C_10 
REMARK    4  A    between atoms: C_10  and  O_11 
REMARK    5  A    between atoms: C_13  and  C_14 
REMARK    6  A    between atoms: C_21  and  C_22 
REMARK       I    between atoms: C_22  and  N_23 
REMARK    7  A    between atoms: N_23  and  C_24 
ROOT
HETATM    1  C   UNL     1      28.452  40.742  53.315  1.00  0.00     0.070 C 
HETATM    2  C   UNL     1      27.882  41.036  51.949  1.00  0.00     0.037 C 
HETATM    3  N   UNL     1      27.622  39.923  51.157  1.00  0.00    -0.192 N 
HETATM    4  C   UNL     1      27.336  40.008  49.843  1.00  0.00     0.726 A 
HETATM    5  N   UNL     1      27.138  41.236  49.274  1.00  0.00    -0.083 N 
HETATM    6  N   UNL     1      26.939  41.135  47.943  1.00  0.00    -0.140 NA
HETATM    7  C   UNL     1      26.998  39.806  47.780  1.00  0.00     0.166 A 
HETATM    8  N   UNL     1      27.237  39.082  48.925  1.00  0.00    -0.046 NA
HETATM    9  C   UNL     1      27.214  42.503  50.010  1.00  0.00     0.202 C 
HETATM   10  C   UNL     1      27.683  42.279  51.445  1.00  0.00     0.062 C 
HETATM   11  H   UNL     1      27.867  39.010  51.530  1.00  0.00     0.184 HD
ENDROOT
BRANCH  10  12
HETATM   12  C   UNL     1      27.991  43.537  52.173  1.00  0.00     0.256 C 
HETATM   13  N   UNL     1      26.903  44.073  52.826  1.00  0.00    -0.323 N 
HETATM   14  H   UNL     1      26.028  43.571  52.747  1.00  0.00     0.169 HD
HETATM   15  O   UNL     1      29.121  44.000  52.092  1.00  0.00    -0.267 OA
BRANCH  13  16
HETATM   16  C   UNL     1      26.869  45.251  53.601  1.00  0.00     0.035 A 
HETATM   17  C   UNL     1      27.687  45.479  54.710  1.00  0.00     0.031 A 
HETATM   18  C   UNL     1      27.589  46.675  55.432  1.00  0.00     0.026 A 
HETATM   19  C   UNL     1      26.668  47.644  55.049  1.00  0.00     0.034 A 
HETATM   20 CL   UNL     1      26.542  49.109  55.942  1.00  0.00    -0.084 Cl
HETATM   21  C   UNL     1      25.846  47.431  53.947  1.00  0.00     0.026 A 
HETATM   22  C   UNL     1      25.951  46.240  53.222  1.00  0.00     0.031 A 
ENDBRANCH  13  16
ENDBRANCH  10  12
BRANCH   9  23
HETATM   23  C   UNL     1      25.875  43.236  49.956  1.00  0.00    -0.025 A 
HETATM   24  C   UNL     1      25.840  44.581  49.547  1.00  0.00     0.052 A 
HETATM   25  C   UNL     1      24.631  45.268  49.512  1.00  0.00     0.117 A 
HETATM   26  F   UNL     1      24.612  46.548  49.116  1.00  0.00    -0.206 F 
HETATM   27  C   UNL     1      23.443  44.651  49.883  1.00  0.00     0.042 A 
HETATM   28  C   UNL     1      23.462  43.322  50.299  1.00  0.00     0.004 A 
HETATM   29  C   UNL     1      24.670  42.619  50.339  1.00  0.00     0.010 A 
ENDBRANCH   9  23
BRANCH   7  30
HETATM   30  C   UNL     1      26.827  39.156  46.455  1.00  0.00     0.085 C 
BRANCH  30  31
HETATM   31  C   UNL     1      28.131  38.621  45.870  1.00  0.00     0.034 C 
BRANCH  31  32
HETATM   32  C   UNL     1      28.294  37.117  46.061  1.00  0.00     0.164 C 
BRANCH  32  33
HETATM   33  O   UNL     1      28.693  36.846  47.401  1.00  0.00    -0.401 OA
HETATM   34  H   UNL     1      28.052  36.219  47.777  1.00  0.00     0.209 HD
ENDBRANCH  32  33
ENDBRANCH  31  32
ENDBRANCH  30  31
ENDBRANCH   7  30
TORSDOF 7
ENDMDL
MODEL 9
REMARK VINA RESULT:      -8.2      3.521      4.591
REMARK  7 active torsions:
REMARK  status: ('A' for Active; 'I' for Inactive)
REMARK    1  A    between atoms: C_7  and  C_8 
REMARK    2  A    between atoms: C_8  and  C_9 
REMARK    3  A    between atoms: C_9  and  C_10 
REMARK    4  A    between atoms: C_10  and  O_11 
REMARK    5  A    between atoms: C_13  and  C_14 
REMARK    6  A    between atoms: C_21  and  C_22 
REMARK       I    between atoms: C_22  and  N_23 
REMARK    7  A    between atoms: N_23  and  C_24 
ROOT
HETATM    1  C   UNL     1      25.415  40.520  48.848  1.00  0.00     0.070 C 
HETATM    2  C   UNL     1      25.916  41.510  49.871  1.00  0.00     0.037 C 
HETATM    3  N   UNL     1      27.189  41.261  50.373  1.00  0.00    -0.192 N 
HETATM    4  C   UNL     1      27.691  41.900  51.448  1.00  0.00     0.726 A 
HETATM    5  N   UNL     1      27.001  42.946  51.994  1.00  0.00    -0.083 N 
HETATM    6  N   UNL     1      27.612  43.412  53.105  1.00  0.00    -0.140 NA
HETATM    7  C   UNL     1      28.690  42.616  53.151  1.00  0.00     0.166 A 
HETATM    8  N   UNL     1      28.773  41.678  52.148  1.00  0.00    -0.046 NA
HETATM    9  C   UNL     1      25.718  43.440  51.481  1.00  0.00     0.202 C 
HETATM   10  C   UNL     1      25.193  42.548  50.360  1.00  0.00     0.062 C 
HETATM   11  H   UNL     1      27.667  40.424  50.051  1.00  0.00     0.184 HD
ENDROOT
BRANCH  10  12
HETATM   12  C   UNL     1      23.800  42.866  49.951  1.00  0.00     0.256 C 
HETATM   13  N   UNL     1      23.711  43.408  48.687  1.00  0.00    -0.323 N 
HETATM   14  H   UNL     1      24.577  43.532  48.179  1.00  0.00     0.169 HD
HETATM   15  O   UNL     1      22.896  42.678  50.753  1.00  0.00    -0.267 OA
BRANCH  13  16
HETATM   16  C   UNL     1      22.539  43.812  48.014  1.00  0.00     0.035 A 
HETATM   17  C   UNL     1      21.831  44.979  48.312  1.00  0.00     0.031 A 
HETATM   18  C   UNL     1      20.672  45.308  47.599  1.00  0.00     0.026 A 
HETATM   19  C   UNL     1      20.212  44.465  46.592  1.00  0.00     0.034 A 
HETATM   20 CL   UNL     1      18.782  44.866  45.724  1.00  0.00    -0.084 Cl
HETATM   21  C   UNL     1      20.906  43.299  46.285  1.00  0.00     0.026 A 
HETATM   22  C   UNL     1      22.069  42.976  46.992  1.00  0.00     0.031 A 
ENDBRANCH  13  16
ENDBRANCH  10  12
BRANCH   9  23
HETATM   23  C   UNL     1      25.843  44.897  51.040  1.00  0.00    -0.025 A 
HETATM   24  C   UNL     1      26.863  45.264  50.145  1.00  0.00     0.052 A 
HETATM   25  C   UNL     1      27.002  46.590  49.751  1.00  0.00     0.117 A 
HETATM   26  F   UNL     1      27.977  46.924  48.894  1.00  0.00    -0.206 F 
HETATM   27  C   UNL     1      26.149  47.576  50.232  1.00  0.00     0.042 A 
HETATM   28  C   UNL     1      25.139  47.231  51.125  1.00  0.00     0.004 A 
HETATM   29  C   UNL     1      24.987  45.901  51.531  1.00  0.00     0.010 A 
ENDBRANCH   9  23
BRANCH   7  30
HETATM   30  C   UNL     1      29.720  42.731  54.214  1.00  0.00     0.085 C 
BRANCH  30  31
HETATM   31  C   UNL     1      29.696  44.073  54.940  1.00  0.00     0.034 C 
BRANCH  31  32
HETATM   32  C   UNL     1      30.818  44.217  55.961  1.00  0.00     0.164 C 
BRANCH  32  33
HETATM   33  O   UNL     1      30.498  45.256  56.879  1.00  0.00    -0.401 OA
HETATM   34  H   UNL     1      31.268  45.383  57.460  1.00  0.00     0.209 HD
ENDBRANCH  32  33
ENDBRANCH  31  32
ENDBRANCH  30  31
ENDBRANCH   7  30
TORSDOF 7
ENDMDL
MODEL 10
REMARK VINA RESULT:      -8.2      4.649      8.626
REMARK  7 active torsions:
REMARK  status: ('A' for Active; 'I' for Inactive)
REMARK    1  A    between atoms: C_7  and  C_8 
REMARK    2  A    between atoms: C_8  and  C_9 
REMARK    3  A    between atoms: C_9  and  C_10 
REMARK    4  A    between atoms: C_10  and  O_11 
REMARK    5  A    between atoms: C_13  and  C_14 
REMARK    6  A    between atoms: C_21  and  C_22 
REMARK       I    between atoms: C_22  and  N_23 
REMARK    7  A    between atoms: N_23  and  C_24 
ROOT
HETATM    1  C   UNL     1      23.065  51.160  48.156  1.00  0.00     0.070 C 
HETATM    2  C   UNL     1      21.643  50.671  48.282  1.00  0.00     0.037 C 
HETATM    3  N   UNL     1      20.675  51.664  48.393  1.00  0.00    -0.192 N 
HETATM    4  C   UNL     1      19.400  51.409  48.742  1.00  0.00     0.726 A 
HETATM    5  N   UNL     1      18.976  50.113  48.851  1.00  0.00    -0.083 N 
HETATM    6  N   UNL     1      17.699  50.048  49.283  1.00  0.00    -0.140 NA
HETATM    7  C   UNL     1      17.401  51.351  49.384  1.00  0.00     0.166 A 
HETATM    8  N   UNL     1      18.420  52.216  49.057  1.00  0.00    -0.046 NA
HETATM    9  C   UNL     1      19.832  48.947  48.606  1.00  0.00     0.202 C 
HETATM   10  C   UNL     1      21.278  49.367  48.360  1.00  0.00     0.062 C 
HETATM   11  H   UNL     1      20.991  52.629  48.421  1.00  0.00     0.184 HD
ENDROOT
BRANCH  10  12
HETATM   12  C   UNL     1      22.230  48.227  48.325  1.00  0.00     0.256 C 
HETATM   13  N   UNL     1      22.900  48.036  49.514  1.00  0.00    -0.323 N 
HETATM   14  H   UNL     1      22.683  48.672  50.270  1.00  0.00     0.169 HD
HETATM   15  O   UNL     1      22.373  47.614  47.276  1.00  0.00    -0.267 OA
BRANCH  13  16
HETATM   16  C   UNL     1      23.861  47.044  49.800  1.00  0.00     0.035 A 
HETATM   17  C   UNL     1      23.647  45.675  49.621  1.00  0.00     0.031 A 
HETATM   18  C   UNL     1      24.652  44.752  49.934  1.00  0.00     0.026 A 
HETATM   19  C   UNL     1      25.872  45.195  50.436  1.00  0.00     0.034 A 
HETATM   20 CL   UNL     1      27.102  44.059  50.830  1.00  0.00    -0.084 Cl
HETATM   21  C   UNL     1      26.099  46.555  50.621  1.00  0.00     0.026 A 
HETATM   22  C   UNL     1      25.098  47.476  50.299  1.00  0.00     0.031 A 
ENDBRANCH  13  16
ENDBRANCH  10  12
BRANCH   9  23
HETATM   23  C   UNL     1      19.278  48.108  47.455  1.00  0.00    -0.025 A 
HETATM   24  C   UNL     1      18.981  46.751  47.670  1.00  0.00     0.052 A 
HETATM   25  C   UNL     1      18.496  45.969  46.627  1.00  0.00     0.117 A 
HETATM   26  F   UNL     1      18.212  44.678  46.848  1.00  0.00    -0.206 F 
HETATM   27  C   UNL     1      18.303  46.503  45.359  1.00  0.00     0.042 A 
HETATM   28  C   UNL     1      18.602  47.843  45.127  1.00  0.00     0.004 A 
HETATM   29  C   UNL     1      19.089  48.641  46.167  1.00  0.00     0.010 A 
ENDBRANCH   9  23
BRANCH   7  30
HETATM   30  C   UNL     1      16.067  51.832  49.827  1.00  0.00     0.085 C 
BRANCH  30  31
HETATM   31  C   UNL     1      16.065  53.295  50.262  1.00  0.00     0.034 C 
BRANCH  31  32
HETATM   32  C   UNL     1      14.722  53.746  50.824  1.00  0.00     0.164 C 
BRANCH  32  33
HETATM   33  O   UNL     1      14.910  54.308  52.118  1.00  0.00    -0.401 OA
HETATM   34  H   UNL     1      14.796  55.271  52.040  1.00  0.00     0.209 HD
ENDBRANCH  32  33
ENDBRANCH  31  32
ENDBRANCH  30  31
ENDBRANCH   7  30
TORSDOF 7
ENDMDL
