MODEL 1
REMARK VINA RESULT:      -9.7      0.000      0.000
REMARK  8 active torsions:
REMARK  status: ('A' for Active; 'I' for Inactive)
REMARK    1  A    between atoms: O_2  and  C_3 
REMARK    2  A    between atoms: C_10  and  C_11 
REMARK    3  A    between atoms: N_12  and  N_13 
REMARK       I    between atoms: N_13  and  C_14 
REMARK    4  A    between atoms: C_14  and  C_15 
REMARK    5  A    between atoms: N_16  and  C_17 
REMARK    6  A    between atoms: C_21  and  N_22 
REMARK    7  A    between atoms: C_25  and  C_26 
REMARK    8  A    between atoms: C_26  and  N_27 
ROOT
HETATM    1  C   UNL     1      24.216  46.918  49.953  1.00  0.00     0.154 A 
HETATM    2  N   UNL     1      23.733  45.655  49.591  1.00  0.00    -0.184 N 
HETATM    3  N   UNL     1      22.771  45.821  48.634  1.00  0.00    -0.058 NA
HETATM    4  N   UNL     1      22.567  47.105  48.425  1.00  0.00    -0.132 NA
HETATM    5  C   UNL     1      23.417  47.799  49.230  1.00  0.00     0.118 A 
ENDROOT
BRANCH   1   6
HETATM    6  C   UNL     1      25.207  47.315  50.928  1.00  0.00     0.271 C 
HETATM    7  N   UNL     1      25.111  46.779  52.212  1.00  0.00    -0.145 NA
HETATM    8  H   UNL     1      24.167  46.506  52.485  1.00  0.00     0.158 HD
HETATM    9  O   UNL     1      26.165  47.996  50.563  1.00  0.00    -0.271 OA
BRANCH   7  10
HETATM   10  N   UNL     1      25.706  47.447  53.240  1.00  0.00    -0.205 NA
HETATM   11  C   UNL     1      26.722  46.974  53.906  1.00  0.00     0.147 C 
BRANCH  11  12
HETATM   12  C   UNL     1      27.463  45.687  53.872  1.00  0.00     0.019 A 
HETATM   13  C   UNL     1      28.541  45.522  54.766  1.00  0.00     0.101 A 
HETATM   14  C   UNL     1      29.331  44.361  54.719  1.00  0.00     0.069 A 
HETATM   15 CL   UNL     1      30.707  44.157  55.744  1.00  0.00    -0.081 Cl
HETATM   16  C   UNL     1      29.031  43.342  53.818  1.00  0.00     0.050 A 
HETATM   17  C   UNL     1      27.938  43.486  52.973  1.00  0.00     0.036 A 
HETATM   18 CL   UNL     1      27.562  42.245  51.838  1.00  0.00    -0.084 Cl
HETATM   19  C   UNL     1      27.150  44.639  53.005  1.00  0.00     0.039 A 
BRANCH  13  20
HETATM   20  O   UNL     1      28.853  46.529  55.646  1.00  0.00    -0.353 OA
HETATM   21  C   UNL     1      28.467  46.198  56.985  1.00  0.00     0.210 C 
ENDBRANCH  13  20
ENDBRANCH  11  12
ENDBRANCH   7  10
ENDBRANCH   1   6
BRANCH   2  22
HETATM   22  C   UNL     1      24.050  44.366  50.081  1.00  0.00     0.230 A 
HETATM   23  N   UNL     1      23.923  44.086  51.376  1.00  0.00    -0.081 NA
HETATM   24  O   UNL     1      24.304  42.748  51.474  1.00  0.00    -0.103 OA
HETATM   25  N   UNL     1      24.669  42.240  50.236  1.00  0.00    -0.083 NA
HETATM   26  C   UNL     1      24.505  43.239  49.371  1.00  0.00     0.201 A 
BRANCH  26  27
HETATM   27  N   UNL     1      24.738  43.143  48.053  1.00  0.00    -0.379 N 
HETATM   28  H   UNL     1      25.205  42.321  47.680  1.00  0.00     0.158 HD
HETATM   29  H   UNL     1      24.643  43.918  47.402  1.00  0.00     0.158 HD
ENDBRANCH  26  27
ENDBRANCH   2  22
BRANCH   5  30
HETATM   30  C   UNL     1      23.339  49.292  49.224  1.00  0.00     0.298 C 
BRANCH  30  31
HETATM   31  N   UNL     1      21.898  49.778  49.030  1.00  0.00    -0.066 N 
HETATM   32  H   UNL     1      21.330  48.937  49.217  1.00  0.00     0.280 HD
HETATM   33  C   UNL     1      21.538  50.800  50.081  1.00  0.00     0.235 C 
HETATM   34  C   UNL     1      20.048  51.122  50.088  1.00  0.00     0.028 C 
HETATM   35  C   UNL     1      19.627  52.016  48.929  1.00  0.00     0.002 C 
HETATM   36  C   UNL     1      19.294  51.281  47.636  1.00  0.00     0.002 C 
HETATM   37  C   UNL     1      20.160  50.079  47.274  1.00  0.00     0.028 C 
HETATM   38  C   UNL     1      21.641  50.211  47.607  1.00  0.00     0.235 C 
ENDBRANCH  30  31
ENDBRANCH   5  30
TORSDOF 8
ENDMDL
MODEL 2
REMARK VINA RESULT:      -9.5      2.426      4.136
REMARK  8 active torsions:
REMARK  status: ('A' for Active; 'I' for Inactive)
REMARK    1  A    between atoms: O_2  and  C_3 
REMARK    2  A    between atoms: C_10  and  C_11 
REMARK    3  A    between atoms: N_12  and  N_13 
REMARK       I    between atoms: N_13  and  C_14 
REMARK    4  A    between atoms: C_14  and  C_15 
REMARK    5  A    between atoms: N_16  and  C_17 
REMARK    6  A    between atoms: C_21  and  N_22 
REMARK    7  A    between atoms: C_25  and  C_26 
REMARK    8  A    between atoms: C_26  and  N_27 
ROOT
HETATM    1  C   UNL     1      23.588  47.643  49.269  1.00  0.00     0.154 A 
HETATM    2  N   UNL     1      24.760  48.407  49.254  1.00  0.00    -0.184 N 
HETATM    3  N   UNL     1      24.412  49.729  49.303  1.00  0.00    -0.058 NA
HETATM    4  N   UNL     1      23.101  49.846  49.274  1.00  0.00    -0.132 NA
HETATM    5  C   UNL     1      22.571  48.593  49.229  1.00  0.00     0.118 A 
ENDROOT
BRANCH   1   6
HETATM    6  C   UNL     1      23.382  46.213  49.205  1.00  0.00     0.271 C 
HETATM    7  N   UNL     1      23.613  45.469  50.361  1.00  0.00    -0.145 NA
HETATM    8  H   UNL     1      24.282  45.888  51.007  1.00  0.00     0.158 HD
HETATM    9  O   UNL     1      22.891  45.725  48.188  1.00  0.00    -0.271 OA
BRANCH   7  10
HETATM   10  N   UNL     1      23.876  44.137  50.235  1.00  0.00    -0.205 NA
HETATM   11  C   UNL     1      24.832  43.533  50.884  1.00  0.00     0.147 C 
BRANCH  11  12
HETATM   12  C   UNL     1      25.901  43.998  51.806  1.00  0.00     0.019 A 
HETATM   13  C   UNL     1      27.157  43.364  51.733  1.00  0.00     0.101 A 
HETATM   14  C   UNL     1      28.177  43.702  52.639  1.00  0.00     0.069 A 
HETATM   15 CL   UNL     1      29.703  42.892  52.631  1.00  0.00    -0.081 Cl
HETATM   16  C   UNL     1      27.972  44.699  53.588  1.00  0.00     0.050 A 
HETATM   17  C   UNL     1      26.749  45.358  53.625  1.00  0.00     0.036 A 
HETATM   18 CL   UNL     1      26.468  46.580  54.806  1.00  0.00    -0.084 Cl
HETATM   19  C   UNL     1      25.724  45.024  52.736  1.00  0.00     0.039 A 
BRANCH  13  20
HETATM   20  O   UNL     1      27.363  42.368  50.810  1.00  0.00    -0.353 OA
HETATM   21  C   UNL     1      27.201  41.068  51.391  1.00  0.00     0.210 C 
ENDBRANCH  13  20
ENDBRANCH  11  12
ENDBRANCH   7  10
ENDBRANCH   1   6
BRANCH   2  22
HETATM   22  C   UNL     1      26.118  48.021  49.153  1.00  0.00     0.230 A 
HETATM   23  N   UNL     1      26.472  46.750  49.322  1.00  0.00    -0.081 NA
HETATM   24  O   UNL     1      27.855  46.755  49.137  1.00  0.00    -0.103 OA
HETATM   25  N   UNL     1      28.319  48.035  48.871  1.00  0.00    -0.083 NA
HETATM   26  C   UNL     1      27.243  48.819  48.874  1.00  0.00     0.201 A 
BRANCH  26  27
HETATM   27  N   UNL     1      27.270  50.140  48.636  1.00  0.00    -0.379 N 
HETATM   28  H   UNL     1      28.097  50.681  48.876  1.00  0.00     0.158 HD
HETATM   29  H   UNL     1      26.451  50.690  48.393  1.00  0.00     0.158 HD
ENDBRANCH  26  27
ENDBRANCH   2  22
BRANCH   5  30
HETATM   30  C   UNL     1      21.085  48.454  49.128  1.00  0.00     0.298 C 
BRANCH  30  31
HETATM   31  N   UNL     1      20.456  49.660  48.423  1.00  0.00    -0.066 N 
HETATM   32  H   UNL     1      21.268  50.179  48.055  1.00  0.00     0.280 HD
HETATM   33  C   UNL     1      19.640  49.212  47.234  1.00  0.00     0.235 C 
HETATM   34  C   UNL     1      19.208  50.380  46.356  1.00  0.00     0.028 C 
HETATM   35  C   UNL     1      18.068  51.190  46.962  1.00  0.00     0.002 C 
HETATM   36  C   UNL     1      18.499  52.288  47.926  1.00  0.00     0.002 C 
HETATM   37  C   UNL     1      19.670  51.982  48.854  1.00  0.00     0.028 C 
HETATM   38  C   UNL     1      19.727  50.558  49.393  1.00  0.00     0.235 C 
ENDBRANCH  30  31
ENDBRANCH   5  30
TORSDOF 8
ENDMDL
MODEL 3
REMARK VINA RESULT:      -9.5      3.450      8.431
REMARK  8 active torsions:
REMARK  status: ('A' for Active; 'I' for Inactive)
REMARK    1  A    between atoms: O_2  and  C_3 
REMARK    2  A    between atoms: C_10  and  C_11 
REMARK    3  A    between atoms: N_12  and  N_13 
REMARK       I    between atoms: N_13  and  C_14 
REMARK    4  A    between atoms: C_14  and  C_15 
REMARK    5  A    between atoms: N_16  and  C_17 
REMARK    6  A    between atoms: C_21  and  N_22 
REMARK    7  A    between atoms: C_25  and  C_26 
REMARK    8  A    between atoms: C_26  and  N_27 
ROOT
HETATM    1  C   UNL     1      25.195  45.758  51.493  1.00  0.00     0.154 A 
HETATM    2  N   UNL     1      24.390  44.618  51.385  1.00  0.00    -0.184 N 
HETATM    3  N   UNL     1      24.288  44.045  52.622  1.00  0.00    -0.058 NA
HETATM    4  N   UNL     1      25.034  44.707  53.483  1.00  0.00    -0.132 NA
HETATM    5  C   UNL     1      25.617  45.742  52.819  1.00  0.00     0.118 A 
ENDROOT
BRANCH   1   6
HETATM    6  C   UNL     1      25.644  46.704  50.496  1.00  0.00     0.271 C 
HETATM    7  N   UNL     1      25.021  47.950  50.452  1.00  0.00    -0.145 NA
HETATM    8  H   UNL     1      24.065  47.957  50.807  1.00  0.00     0.158 HD
HETATM    9  O   UNL     1      26.635  46.434  49.820  1.00  0.00    -0.271 OA
BRANCH   7  10
HETATM   10  N   UNL     1      25.079  48.665  49.293  1.00  0.00    -0.205 NA
HETATM   11  C   UNL     1      24.030  49.193  48.725  1.00  0.00     0.147 C 
BRANCH  11  12
HETATM   12  C   UNL     1      22.575  49.158  49.022  1.00  0.00     0.019 A 
HETATM   13  C   UNL     1      21.904  47.925  48.891  1.00  0.00     0.101 A 
HETATM   14  C   UNL     1      20.513  47.850  49.074  1.00  0.00     0.069 A 
HETATM   15 CL   UNL     1      19.645  46.375  48.846  1.00  0.00    -0.081 Cl
HETATM   16  C   UNL     1      19.789  48.985  49.431  1.00  0.00     0.050 A 
HETATM   17  C   UNL     1      20.460  50.189  49.609  1.00  0.00     0.036 A 
HETATM   18 CL   UNL     1      19.579  51.608  50.030  1.00  0.00    -0.084 Cl
HETATM   19  C   UNL     1      21.842  50.277  49.421  1.00  0.00     0.039 A 
BRANCH  13  20
HETATM   20  O   UNL     1      22.608  46.804  48.524  1.00  0.00    -0.353 OA
HETATM   21  C   UNL     1      22.237  46.354  47.215  1.00  0.00     0.210 C 
ENDBRANCH  13  20
ENDBRANCH  11  12
ENDBRANCH   7  10
ENDBRANCH   1   6
BRANCH   2  22
HETATM   22  C   UNL     1      23.776  44.019  50.259  1.00  0.00     0.230 A 
HETATM   23  N   UNL     1      22.459  43.838  50.226  1.00  0.00    -0.081 NA
HETATM   24  O   UNL     1      22.227  43.249  48.983  1.00  0.00    -0.103 OA
HETATM   25  N   UNL     1      23.414  43.071  48.285  1.00  0.00    -0.083 NA
HETATM   26  C   UNL     1      24.373  43.554  49.072  1.00  0.00     0.201 A 
BRANCH  26  27
HETATM   27  N   UNL     1      25.675  43.582  48.746  1.00  0.00    -0.379 N 
HETATM   28  H   UNL     1      26.021  42.994  47.993  1.00  0.00     0.158 HD
HETATM   29  H   UNL     1      26.393  44.021  49.316  1.00  0.00     0.158 HD
ENDBRANCH  26  27
ENDBRANCH   2  22
BRANCH   5  30
HETATM   30  C   UNL     1      26.569  46.619  53.569  1.00  0.00     0.298 C 
BRANCH  30  31
HETATM   31  N   UNL     1      27.502  45.797  54.465  1.00  0.00    -0.066 N 
HETATM   32  H   UNL     1      26.864  45.373  55.157  1.00  0.00     0.280 HD
HETATM   33  C   UNL     1      28.124  44.664  53.684  1.00  0.00     0.235 C 
HETATM   34  C   UNL     1      28.853  43.673  54.584  1.00  0.00     0.028 C 
HETATM   35  C   UNL     1      30.192  44.199  55.085  1.00  0.00     0.002 C 
HETATM   36  C   UNL     1      30.119  45.043  56.352  1.00  0.00     0.002 C 
HETATM   37  C   UNL     1      28.933  45.991  56.491  1.00  0.00     0.028 C 
HETATM   38  C   UNL     1      28.482  46.673  55.206  1.00  0.00     0.235 C 
ENDBRANCH  30  31
ENDBRANCH   5  30
TORSDOF 8
ENDMDL
MODEL 4
REMARK VINA RESULT:      -9.4      4.425      9.534
REMARK  8 active torsions:
REMARK  status: ('A' for Active; 'I' for Inactive)
REMARK    1  A    between atoms: O_2  and  C_3 
REMARK    2  A    between atoms: C_10  and  C_11 
REMARK    3  A    between atoms: N_12  and  N_13 
REMARK       I    between atoms: N_13  and  C_14 
REMARK    4  A    between atoms: C_14  and  C_15 
REMARK    5  A    between atoms: N_16  and  C_17 
REMARK    6  A    between atoms: C_21  and  N_22 
REMARK    7  A    between atoms: C_25  and  C_26 
REMARK    8  A    between atoms: C_26  and  N_27 
ROOT
HETATM    1  C   UNL     1      24.083  46.867  49.520  1.00  0.00     0.154 A 
HETATM    2  N   UNL     1      24.624  48.157  49.481  1.00  0.00    -0.184 N 
HETATM    3  N   UNL     1      25.714  48.191  50.306  1.00  0.00    -0.058 NA
HETATM    4  N   UNL     1      25.848  47.031  50.915  1.00  0.00    -0.132 NA
HETATM    5  C   UNL     1      24.855  46.211  50.474  1.00  0.00     0.118 A 
ENDROOT
BRANCH   1   6
HETATM    6  C   UNL     1      22.923  46.301  48.867  1.00  0.00     0.271 C 
HETATM    7  N   UNL     1      21.744  47.044  48.871  1.00  0.00    -0.145 NA
HETATM    8  H   UNL     1      21.657  47.693  49.654  1.00  0.00     0.158 HD
HETATM    9  O   UNL     1      23.050  45.260  48.224  1.00  0.00    -0.271 OA
BRANCH   7  10
HETATM   10  N   UNL     1      20.562  46.388  48.692  1.00  0.00    -0.205 NA
HETATM   11  C   UNL     1      19.495  46.959  48.207  1.00  0.00     0.147 C 
BRANCH  11  12
HETATM   12  C   UNL     1      19.168  48.351  47.802  1.00  0.00     0.019 A 
HETATM   13  C   UNL     1      19.247  49.359  48.784  1.00  0.00     0.101 A 
HETATM   14  C   UNL     1      18.866  50.677  48.481  1.00  0.00     0.069 A 
HETATM   15 CL   UNL     1      18.874  51.923  49.678  1.00  0.00    -0.081 Cl
HETATM   16  C   UNL     1      18.448  51.010  47.195  1.00  0.00     0.050 A 
HETATM   17  C   UNL     1      18.419  50.024  46.216  1.00  0.00     0.036 A 
HETATM   18 CL   UNL     1      17.885  50.412  44.625  1.00  0.00    -0.084 Cl
HETATM   19  C   UNL     1      18.787  48.709  46.508  1.00  0.00     0.039 A 
BRANCH  13  20
HETATM   20  O   UNL     1      19.643  49.036  50.059  1.00  0.00    -0.353 OA
HETATM   21  C   UNL     1      18.519  48.780  50.911  1.00  0.00     0.210 C 
ENDBRANCH  13  20
ENDBRANCH  11  12
ENDBRANCH   7  10
ENDBRANCH   1   6
BRANCH   2  22
HETATM   22  C   UNL     1      24.196  49.323  48.803  1.00  0.00     0.230 A 
HETATM   23  N   UNL     1      24.826  49.735  47.706  1.00  0.00    -0.081 NA
HETATM   24  O   UNL     1      24.126  50.879  47.321  1.00  0.00    -0.103 OA
HETATM   25  N   UNL     1      23.088  51.150  48.201  1.00  0.00    -0.083 NA
HETATM   26  C   UNL     1      23.126  50.182  49.115  1.00  0.00     0.201 A 
BRANCH  26  27
HETATM   27  N   UNL     1      22.265  50.077  50.140  1.00  0.00    -0.379 N 
HETATM   28  H   UNL     1      21.382  49.592  50.011  1.00  0.00     0.158 HD
HETATM   29  H   UNL     1      22.346  50.604  51.006  1.00  0.00     0.158 HD
ENDBRANCH  26  27
ENDBRANCH   2  22
BRANCH   5  30
HETATM   30  C   UNL     1      24.751  44.841  51.065  1.00  0.00     0.298 C 
BRANCH  30  31
HETATM   31  N   UNL     1      25.918  44.550  52.015  1.00  0.00    -0.066 N 
HETATM   32  H   UNL     1      26.430  45.445  52.054  1.00  0.00     0.280 HD
HETATM   33  C   UNL     1      25.410  44.269  53.409  1.00  0.00     0.235 C 
HETATM   34  C   UNL     1      26.534  44.227  54.437  1.00  0.00     0.028 C 
HETATM   35  C   UNL     1      27.356  42.945  54.368  1.00  0.00     0.002 C 
HETATM   36  C   UNL     1      28.500  42.967  53.361  1.00  0.00     0.002 C 
HETATM   37  C   UNL     1      28.247  43.673  52.033  1.00  0.00     0.028 C 
HETATM   38  C   UNL     1      26.849  43.502  51.454  1.00  0.00     0.235 C 
ENDBRANCH  30  31
ENDBRANCH   5  30
TORSDOF 8
ENDMDL
MODEL 5
REMARK VINA RESULT:      -9.4      4.306      9.581
REMARK  8 active torsions:
REMARK  status: ('A' for Active; 'I' for Inactive)
REMARK    1  A    between atoms: O_2  and  C_3 
REMARK    2  A    between atoms: C_10  and  C_11 
REMARK    3  A    between atoms: N_12  and  N_13 
REMARK       I    between atoms: N_13  and  C_14 
REMARK    4  A    between atoms: C_14  and  C_15 
REMARK    5  A    between atoms: N_16  and  C_17 
REMARK    6  A    between atoms: C_21  and  N_22 
REMARK    7  A    between atoms: C_25  and  C_26 
REMARK    8  A    between atoms: C_26  and  N_27 
ROOT
HETATM    1  C   UNL     1      24.740  46.375  50.036  1.00  0.00     0.154 A 
HETATM    2  N   UNL     1      25.249  47.666  49.860  1.00  0.00    -0.184 N 
HETATM    3  N   UNL     1      26.075  47.950  50.911  1.00  0.00    -0.058 NA
HETATM    4  N   UNL     1      26.060  46.952  51.771  1.00  0.00    -0.132 NA
HETATM    5  C   UNL     1      25.237  45.988  51.276  1.00  0.00     0.118 A 
ENDROOT
BRANCH   1   6
HETATM    6  C   UNL     1      23.809  45.602  49.243  1.00  0.00     0.271 C 
HETATM    7  N   UNL     1      22.489  46.043  49.170  1.00  0.00    -0.145 NA
HETATM    8  H   UNL     1      22.184  46.593  49.973  1.00  0.00     0.158 HD
HETATM    9  O   UNL     1      24.236  44.671  48.561  1.00  0.00    -0.271 OA
BRANCH   7  10
HETATM   10  N   UNL     1      21.520  45.143  48.842  1.00  0.00    -0.205 NA
HETATM   11  C   UNL     1      20.292  45.483  48.568  1.00  0.00     0.147 C 
BRANCH  11  12
HETATM   12  C   UNL     1      19.555  46.773  48.586  1.00  0.00     0.019 A 
HETATM   13  C   UNL     1      18.169  46.746  48.331  1.00  0.00     0.101 A 
HETATM   14  C   UNL     1      17.437  47.942  48.250  1.00  0.00     0.069 A 
HETATM   15 CL   UNL     1      15.754  47.953  47.861  1.00  0.00    -0.081 Cl
HETATM   16  C   UNL     1      18.065  49.166  48.466  1.00  0.00     0.050 A 
HETATM   17  C   UNL     1      19.422  49.187  48.767  1.00  0.00     0.036 A 
HETATM   18 CL   UNL     1      20.221  50.693  49.017  1.00  0.00    -0.084 Cl
HETATM   19  C   UNL     1      20.161  48.005  48.841  1.00  0.00     0.039 A 
BRANCH  13  20
HETATM   20  O   UNL     1      17.545  45.543  48.101  1.00  0.00    -0.353 OA
HETATM   21  C   UNL     1      17.534  45.214  46.707  1.00  0.00     0.210 C 
ENDBRANCH  13  20
ENDBRANCH  11  12
ENDBRANCH   7  10
ENDBRANCH   1   6
BRANCH   2  22
HETATM   22  C   UNL     1      24.999  48.633  48.857  1.00  0.00     0.230 A 
HETATM   23  N   UNL     1      23.773  48.791  48.362  1.00  0.00    -0.081 NA
HETATM   24  O   UNL     1      23.912  49.819  47.430  1.00  0.00    -0.103 OA
HETATM   25  N   UNL     1      25.226  50.261  47.365  1.00  0.00    -0.083 NA
HETATM   26  C   UNL     1      25.898  49.532  48.253  1.00  0.00     0.201 A 
BRANCH  26  27
HETATM   27  N   UNL     1      27.210  49.669  48.506  1.00  0.00    -0.379 N 
HETATM   28  H   UNL     1      27.820  48.857  48.470  1.00  0.00     0.158 HD
HETATM   29  H   UNL     1      27.626  50.503  48.911  1.00  0.00     0.158 HD
ENDBRANCH  26  27
ENDBRANCH   2  22
BRANCH   5  30
HETATM   30  C   UNL     1      25.002  44.764  52.103  1.00  0.00     0.298 C 
BRANCH  30  31
HETATM   31  N   UNL     1      26.289  43.951  52.281  1.00  0.00    -0.066 N 
HETATM   32  H   UNL     1      27.024  44.574  51.911  1.00  0.00     0.280 HD
HETATM   33  C   UNL     1      26.583  43.739  53.746  1.00  0.00     0.235 C 
HETATM   34  C   UNL     1      27.975  43.163  53.980  1.00  0.00     0.028 C 
HETATM   35  C   UNL     1      28.069  41.680  53.641  1.00  0.00     0.002 C 
HETATM   36  C   UNL     1      28.366  41.370  52.179  1.00  0.00     0.002 C 
HETATM   37  C   UNL     1      27.701  42.255  51.130  1.00  0.00     0.028 C 
HETATM   38  C   UNL     1      26.277  42.693  51.446  1.00  0.00     0.235 C 
ENDBRANCH  30  31
ENDBRANCH   5  30
TORSDOF 8
ENDMDL
MODEL 6
REMARK VINA RESULT:      -9.1      3.446      8.240
REMARK  8 active torsions:
REMARK  status: ('A' for Active; 'I' for Inactive)
REMARK    1  A    between atoms: O_2  and  C_3 
REMARK    2  A    between atoms: C_10  and  C_11 
REMARK    3  A    between atoms: N_12  and  N_13 
REMARK       I    between atoms: N_13  and  C_14 
REMARK    4  A    between atoms: C_14  and  C_15 
REMARK    5  A    between atoms: N_16  and  C_17 
REMARK    6  A    between atoms: C_21  and  N_22 
REMARK    7  A    between atoms: C_25  and  C_26 
REMARK    8  A    between atoms: C_26  and  N_27 
ROOT
HETATM    1  C   UNL     1      25.174  46.008  51.550  1.00  0.00     0.154 A 
HETATM    2  N   UNL     1      25.487  45.782  52.895  1.00  0.00    -0.184 N 
HETATM    3  N   UNL     1      25.043  44.535  53.237  1.00  0.00    -0.058 NA
HETATM    4  N   UNL     1      24.408  43.994  52.218  1.00  0.00    -0.132 NA
HETATM    5  C   UNL     1      24.452  44.876  51.183  1.00  0.00     0.118 A 
ENDROOT
BRANCH   1   6
HETATM    6  C   UNL     1      25.389  47.160  50.703  1.00  0.00     0.271 C 
HETATM    7  N   UNL     1      24.355  48.087  50.588  1.00  0.00    -0.145 NA
HETATM    8  H   UNL     1      23.424  47.703  50.747  1.00  0.00     0.158 HD
HETATM    9  O   UNL     1      26.507  47.349  50.225  1.00  0.00    -0.271 OA
BRANCH   7  10
HETATM   10  N   UNL     1      24.331  48.900  49.494  1.00  0.00    -0.205 NA
HETATM   11  C   UNL     1      23.298  49.004  48.704  1.00  0.00     0.147 C 
BRANCH  11  12
HETATM   12  C   UNL     1      21.979  48.322  48.642  1.00  0.00     0.019 A 
HETATM   13  C   UNL     1      20.867  48.984  49.200  1.00  0.00     0.101 A 
HETATM   14  C   UNL     1      19.613  48.351  49.247  1.00  0.00     0.069 A 
HETATM   15 CL   UNL     1      18.246  49.098  49.992  1.00  0.00    -0.081 Cl
HETATM   16  C   UNL     1      19.448  47.080  48.704  1.00  0.00     0.050 A 
HETATM   17  C   UNL     1      20.534  46.450  48.110  1.00  0.00     0.036 A 
HETATM   18 CL   UNL     1      20.354  44.869  47.450  1.00  0.00    -0.084 Cl
HETATM   19  C   UNL     1      21.787  47.066  48.064  1.00  0.00     0.039 A 
BRANCH  13  20
HETATM   20  O   UNL     1      21.026  50.232  49.752  1.00  0.00    -0.353 OA
HETATM   21  C   UNL     1      20.680  51.267  48.824  1.00  0.00     0.210 C 
ENDBRANCH  13  20
ENDBRANCH  11  12
ENDBRANCH   7  10
ENDBRANCH   1   6
BRANCH   2  22
HETATM   22  C   UNL     1      26.098  46.620  53.859  1.00  0.00     0.230 A 
HETATM   23  N   UNL     1      25.590  47.820  54.127  1.00  0.00    -0.081 NA
HETATM   24  O   UNL     1      26.432  48.333  55.114  1.00  0.00    -0.103 OA
HETATM   25  N   UNL     1      27.447  47.438  55.420  1.00  0.00    -0.083 NA
HETATM   26  C   UNL     1      27.237  46.374  54.648  1.00  0.00     0.201 A 
BRANCH  26  27
HETATM   27  N   UNL     1      28.001  45.270  54.658  1.00  0.00    -0.379 N 
HETATM   28  H   UNL     1      27.917  44.603  55.420  1.00  0.00     0.158 HD
HETATM   29  H   UNL     1      28.799  45.126  54.045  1.00  0.00     0.158 HD
ENDBRANCH  26  27
ENDBRANCH   2  22
BRANCH   5  30
HETATM   30  C   UNL     1      23.743  44.519  49.915  1.00  0.00     0.298 C 
BRANCH  30  31
HETATM   31  N   UNL     1      23.987  43.055  49.529  1.00  0.00    -0.066 N 
HETATM   32  H   UNL     1      23.718  42.532  50.377  1.00  0.00     0.280 HD
HETATM   33  C   UNL     1      23.043  42.633  48.430  1.00  0.00     0.235 C 
HETATM   34  C   UNL     1      23.070  41.128  48.190  1.00  0.00     0.028 C 
HETATM   35  C   UNL     1      24.314  40.668  47.439  1.00  0.00     0.002 C 
HETATM   36  C   UNL     1      25.528  40.384  48.316  1.00  0.00     0.002 C 
HETATM   37  C   UNL     1      25.767  41.316  49.499  1.00  0.00     0.028 C 
HETATM   38  C   UNL     1      25.447  42.785  49.255  1.00  0.00     0.235 C 
ENDBRANCH  30  31
ENDBRANCH   5  30
TORSDOF 8
ENDMDL
MODEL 7
REMARK VINA RESULT:      -8.7      4.457      9.630
REMARK  8 active torsions:
REMARK  status: ('A' for Active; 'I' for Inactive)
REMARK    1  A    between atoms: O_2  and  C_3 
REMARK    2  A    between atoms: C_10  and  C_11 
REMARK    3  A    between atoms: N_12  and  N_13 
REMARK       I    between atoms: N_13  and  C_14 
REMARK    4  A    between atoms: C_14  and  C_15 
REMARK    5  A    between atoms: N_16  and  C_17 
REMARK    6  A    between atoms: C_21  and  N_22 
REMARK    7  A    between atoms: C_25  and  C_26 
REMARK    8  A    between atoms: C_26  and  N_27 
ROOT
HETATM    1  C   UNL     1      24.498  46.682  49.816  1.00  0.00     0.154 A 
HETATM    2  N   UNL     1      25.145  47.920  49.737  1.00  0.00    -0.184 N 
HETATM    3  N   UNL     1      26.048  48.000  50.759  1.00  0.00    -0.058 NA
HETATM    4  N   UNL     1      25.959  46.927  51.517  1.00  0.00    -0.132 NA
HETATM    5  C   UNL     1      25.007  46.115  50.981  1.00  0.00     0.118 A 
ENDROOT
BRANCH   1   6
HETATM    6  C   UNL     1      23.447  46.103  49.009  1.00  0.00     0.271 C 
HETATM    7  N   UNL     1      22.189  46.703  49.046  1.00  0.00    -0.145 NA
HETATM    8  H   UNL     1      21.988  47.208  49.910  1.00  0.00     0.158 HD
HETATM    9  O   UNL     1      23.727  45.196  48.227  1.00  0.00    -0.271 OA
BRANCH   7  10
HETATM   10  N   UNL     1      21.104  45.959  48.692  1.00  0.00    -0.205 NA
HETATM   11  C   UNL     1      19.998  46.480  48.239  1.00  0.00     0.147 C 
BRANCH  11  12
HETATM   12  C   UNL     1      19.524  47.875  48.042  1.00  0.00     0.019 A 
HETATM   13  C   UNL     1      19.266  48.305  46.725  1.00  0.00     0.101 A 
HETATM   14  C   UNL     1      18.901  49.638  46.471  1.00  0.00     0.069 A 
HETATM   15 CL   UNL     1      18.653  50.221  44.864  1.00  0.00    -0.081 Cl
HETATM   16  C   UNL     1      18.745  50.536  47.523  1.00  0.00     0.050 A 
HETATM   17  C   UNL     1      18.951  50.096  48.825  1.00  0.00     0.036 A 
HETATM   18 CL   UNL     1      18.784  51.198  50.139  1.00  0.00    -0.084 Cl
HETATM   19  C   UNL     1      19.324  48.776  49.089  1.00  0.00     0.039 A 
BRANCH  13  20
HETATM   20  O   UNL     1      19.433  47.429  45.680  1.00  0.00    -0.353 OA
HETATM   21  C   UNL     1      18.187  46.847  45.276  1.00  0.00     0.210 C 
ENDBRANCH  13  20
ENDBRANCH  11  12
ENDBRANCH   7  10
ENDBRANCH   1   6
BRANCH   2  22
HETATM   22  C   UNL     1      24.960  49.008  48.850  1.00  0.00     0.230 A 
HETATM   23  N   UNL     1      25.956  49.418  48.068  1.00  0.00    -0.081 NA
HETATM   24  O   UNL     1      25.406  50.475  47.342  1.00  0.00    -0.103 OA
HETATM   25  N   UNL     1      24.085  50.697  47.706  1.00  0.00    -0.083 NA
HETATM   26  C   UNL     1      23.806  49.784  48.635  1.00  0.00     0.201 A 
BRANCH  26  27
HETATM   27  N   UNL     1      22.611  49.656  49.232  1.00  0.00    -0.379 N 
HETATM   28  H   UNL     1      22.127  50.480  49.578  1.00  0.00     0.158 HD
HETATM   29  H   UNL     1      22.219  48.767  49.532  1.00  0.00     0.158 HD
ENDBRANCH  26  27
ENDBRANCH   2  22
BRANCH   5  30
HETATM   30  C   UNL     1      24.671  44.846  51.697  1.00  0.00     0.298 C 
BRANCH  30  31
HETATM   31  N   UNL     1      25.378  43.641  51.065  1.00  0.00    -0.066 N 
HETATM   32  H   UNL     1      25.803  44.030  50.208  1.00  0.00     0.280 HD
HETATM   33  C   UNL     1      26.509  43.168  51.946  1.00  0.00     0.235 C 
HETATM   34  C   UNL     1      27.397  42.145  51.248  1.00  0.00     0.028 C 
HETATM   35  C   UNL     1      26.756  40.766  51.155  1.00  0.00     0.002 C 
HETATM   36  C   UNL     1      25.847  40.557  49.949  1.00  0.00     0.002 C 
HETATM   37  C   UNL     1      24.973  41.731  49.522  1.00  0.00     0.028 C 
HETATM   38  C   UNL     1      24.397  42.569  50.656  1.00  0.00     0.235 C 
ENDBRANCH  30  31
ENDBRANCH   5  30
TORSDOF 8
ENDMDL
MODEL 8
REMARK VINA RESULT:      -8.7      4.362      9.428
REMARK  8 active torsions:
REMARK  status: ('A' for Active; 'I' for Inactive)
REMARK    1  A    between atoms: O_2  and  C_3 
REMARK    2  A    between atoms: C_10  and  C_11 
REMARK    3  A    between atoms: N_12  and  N_13 
REMARK       I    between atoms: N_13  and  C_14 
REMARK    4  A    between atoms: C_14  and  C_15 
REMARK    5  A    between atoms: N_16  and  C_17 
REMARK    6  A    between atoms: C_21  and  N_22 
REMARK    7  A    between atoms: C_25  and  C_26 
REMARK    8  A    between atoms: C_26  and  N_27 
ROOT
HETATM    1  C   UNL     1      24.928  46.233  50.154  1.00  0.00     0.154 A 
HETATM    2  N   UNL     1      25.164  47.596  49.941  1.00  0.00    -0.184 N 
HETATM    3  N   UNL     1      26.009  48.044  50.917  1.00  0.00    -0.058 NA
HETATM    4  N   UNL     1      26.261  47.071  51.769  1.00  0.00    -0.132 NA
HETATM    5  C   UNL     1      25.598  45.962  51.343  1.00  0.00     0.118 A 
ENDROOT
BRANCH   1   6
HETATM    6  C   UNL     1      24.097  45.287  49.442  1.00  0.00     0.271 C 
HETATM    7  N   UNL     1      22.715  45.454  49.507  1.00  0.00    -0.145 NA
HETATM    8  H   UNL     1      22.387  45.933  50.347  1.00  0.00     0.158 HD
HETATM    9  O   UNL     1      24.632  44.460  48.704  1.00  0.00    -0.271 OA
BRANCH   7  10
HETATM   10  N   UNL     1      21.918  44.377  49.258  1.00  0.00    -0.205 NA
HETATM   11  C   UNL     1      20.924  44.403  48.415  1.00  0.00     0.147 C 
BRANCH  11  12
HETATM   12  C   UNL     1      20.308  45.472  47.586  1.00  0.00     0.019 A 
HETATM   13  C   UNL     1      20.470  45.398  46.188  1.00  0.00     0.101 A 
HETATM   14  C   UNL     1      19.984  46.426  45.361  1.00  0.00     0.069 A 
HETATM   15 CL   UNL     1      20.232  46.410  43.652  1.00  0.00    -0.081 Cl
HETATM   16  C   UNL     1      19.298  47.505  45.912  1.00  0.00     0.050 A 
HETATM   17  C   UNL     1      19.096  47.550  47.286  1.00  0.00     0.036 A 
HETATM   18 CL   UNL     1      18.268  48.887  47.988  1.00  0.00    -0.084 Cl
HETATM   19  C   UNL     1      19.582  46.538  48.118  1.00  0.00     0.039 A 
BRANCH  13  20
HETATM   20  O   UNL     1      21.159  44.345  45.638  1.00  0.00    -0.353 OA
HETATM   21  C   UNL     1      22.545  44.660  45.454  1.00  0.00     0.210 C 
ENDBRANCH  13  20
ENDBRANCH  11  12
ENDBRANCH   7  10
ENDBRANCH   1   6
BRANCH   2  22
HETATM   22  C   UNL     1      24.646  48.486  48.970  1.00  0.00     0.230 A 
HETATM   23  N   UNL     1      23.376  48.397  48.583  1.00  0.00    -0.081 NA
HETATM   24  O   UNL     1      23.232  49.424  47.649  1.00  0.00    -0.103 OA
HETATM   25  N   UNL     1      24.425  50.112  47.476  1.00  0.00    -0.083 NA
HETATM   26  C   UNL     1      25.299  49.537  48.299  1.00  0.00     0.201 A 
BRANCH  26  27
HETATM   27  N   UNL     1      26.575  49.929  48.440  1.00  0.00    -0.379 N 
HETATM   28  H   UNL     1      26.912  50.747  47.940  1.00  0.00     0.158 HD
HETATM   29  H   UNL     1      27.297  49.363  48.878  1.00  0.00     0.158 HD
ENDBRANCH  26  27
ENDBRANCH   2  22
BRANCH   5  30
HETATM   30  C   UNL     1      25.675  44.725  52.180  1.00  0.00     0.298 C 
BRANCH  30  31
HETATM   31  N   UNL     1      27.105  44.465  52.668  1.00  0.00    -0.066 N 
HETATM   32  H   UNL     1      27.646  45.243  52.260  1.00  0.00     0.280 HD
HETATM   33  C   UNL     1      27.186  44.607  54.169  1.00  0.00     0.235 C 
HETATM   34  C   UNL     1      28.624  44.612  54.672  1.00  0.00     0.028 C 
HETATM   35  C   UNL     1      29.261  43.227  54.666  1.00  0.00     0.002 C 
HETATM   36  C   UNL     1      29.899  42.817  53.344  1.00  0.00     0.002 C 
HETATM   37  C   UNL     1      29.178  43.228  52.065  1.00  0.00     0.028 C 
HETATM   38  C   UNL     1      27.657  43.171  52.120  1.00  0.00     0.235 C 
ENDBRANCH  30  31
ENDBRANCH   5  30
TORSDOF 8
ENDMDL
MODEL 9
REMARK VINA RESULT:      -8.7     11.395     13.809
REMARK  8 active torsions:
REMARK  status: ('A' for Active; 'I' for Inactive)
REMARK    1  A    between atoms: O_2  and  C_3 
REMARK    2  A    between atoms: C_10  and  C_11 
REMARK    3  A    between atoms: N_12  and  N_13 
REMARK       I    between atoms: N_13  and  C_14 
REMARK    4  A    between atoms: C_14  and  C_15 
REMARK    5  A    between atoms: N_16  and  C_17 
REMARK    6  A    between atoms: C_21  and  N_22 
REMARK    7  A    between atoms: C_25  and  C_26 
REMARK    8  A    between atoms: C_26  and  N_27 
ROOT
HETATM    1  C   UNL     1      25.948  48.571  39.009  1.00  0.00     0.154 A 
HETATM    2  N   UNL     1      24.635  48.506  39.486  1.00  0.00    -0.184 N 
HETATM    3  N   UNL     1      24.530  47.423  40.314  1.00  0.00    -0.058 NA
HETATM    4  N   UNL     1      25.670  46.763  40.329  1.00  0.00    -0.132 NA
HETATM    5  C   UNL     1      26.547  47.425  39.526  1.00  0.00     0.118 A 
ENDROOT
BRANCH   1   6
HETATM    6  C   UNL     1      26.584  49.490  38.092  1.00  0.00     0.271 C 
HETATM    7  N   UNL     1      27.551  50.356  38.600  1.00  0.00    -0.145 NA
HETATM    8  H   UNL     1      27.442  50.574  39.591  1.00  0.00     0.158 HD
HETATM    9  O   UNL     1      26.352  49.388  36.888  1.00  0.00    -0.271 OA
BRANCH   7  10
HETATM   10  N   UNL     1      27.825  51.500  37.911  1.00  0.00    -0.205 NA
HETATM   11  C   UNL     1      28.879  52.234  38.137  1.00  0.00     0.147 C 
BRANCH  11  12
HETATM   12  C   UNL     1      29.979  52.174  39.134  1.00  0.00     0.019 A 
HETATM   13  C   UNL     1      29.696  52.581  40.454  1.00  0.00     0.101 A 
HETATM   14  C   UNL     1      30.718  52.628  41.417  1.00  0.00     0.069 A 
HETATM   15 CL   UNL     1      30.428  53.195  43.022  1.00  0.00    -0.081 Cl
HETATM   16  C   UNL     1      32.012  52.230  41.089  1.00  0.00     0.050 A 
HETATM   17  C   UNL     1      32.276  51.781  39.801  1.00  0.00     0.036 A 
HETATM   18 CL   UNL     1      33.875  51.304  39.370  1.00  0.00    -0.084 Cl
HETATM   19  C   UNL     1      31.270  51.739  38.832  1.00  0.00     0.039 A 
BRANCH  13  20
HETATM   20  O   UNL     1      28.426  52.990  40.781  1.00  0.00    -0.353 OA
HETATM   21  C   UNL     1      27.696  51.956  41.452  1.00  0.00     0.210 C 
ENDBRANCH  13  20
ENDBRANCH  11  12
ENDBRANCH   7  10
ENDBRANCH   1   6
BRANCH   2  22
HETATM   22  C   UNL     1      23.505  49.311  39.205  1.00  0.00     0.230 A 
HETATM   23  N   UNL     1      23.580  50.288  38.305  1.00  0.00    -0.081 NA
HETATM   24  O   UNL     1      22.297  50.837  38.291  1.00  0.00    -0.103 OA
HETATM   25  N   UNL     1      21.466  50.190  39.194  1.00  0.00    -0.083 NA
HETATM   26  C   UNL     1      22.211  49.240  39.756  1.00  0.00     0.201 A 
BRANCH  26  27
HETATM   27  N   UNL     1      21.763  48.376  40.681  1.00  0.00    -0.379 N 
HETATM   28  H   UNL     1      22.274  48.256  41.551  1.00  0.00     0.158 HD
HETATM   29  H   UNL     1      21.037  47.687  40.509  1.00  0.00     0.158 HD
ENDBRANCH  26  27
ENDBRANCH   2  22
BRANCH   5  30
HETATM   30  C   UNL     1      27.908  46.839  39.327  1.00  0.00     0.298 C 
BRANCH  30  31
HETATM   31  N   UNL     1      28.991  47.696  39.993  1.00  0.00    -0.066 N 
HETATM   32  H   UNL     1      28.992  48.564  39.435  1.00  0.00     0.280 HD
HETATM   33  C   UNL     1      28.579  48.072  41.396  1.00  0.00     0.235 C 
HETATM   34  C   UNL     1      29.496  49.126  42.005  1.00  0.00     0.028 C 
HETATM   35  C   UNL     1      30.843  48.563  42.441  1.00  0.00     0.002 C 
HETATM   36  C   UNL     1      31.903  48.509  41.348  1.00  0.00     0.002 C 
HETATM   37  C   UNL     1      31.441  48.129  39.945  1.00  0.00     0.028 C 
HETATM   38  C   UNL     1      30.356  47.062  39.878  1.00  0.00     0.235 C 
ENDBRANCH  30  31
ENDBRANCH   5  30
TORSDOF 8
ENDMDL
MODEL 10
REMARK VINA RESULT:      -8.6      4.182      9.242
REMARK  8 active torsions:
REMARK  status: ('A' for Active; 'I' for Inactive)
REMARK    1  A    between atoms: O_2  and  C_3 
REMARK    2  A    between atoms: C_10  and  C_11 
REMARK    3  A    between atoms: N_12  and  N_13 
REMARK       I    between atoms: N_13  and  C_14 
REMARK    4  A    between atoms: C_14  and  C_15 
REMARK    5  A    between atoms: N_16  and  C_17 
REMARK    6  A    between atoms: C_21  and  N_22 
REMARK    7  A    between atoms: C_25  and  C_26 
REMARK    8  A    between atoms: C_26  and  N_27 
ROOT
HETATM    1  C   UNL     1      24.915  46.023  50.300  1.00  0.00     0.154 A 
HETATM    2  N   UNL     1      25.018  47.404  50.105  1.00  0.00    -0.184 N 
HETATM    3  N   UNL     1      25.763  47.928  51.124  1.00  0.00    -0.058 NA
HETATM    4  N   UNL     1      26.072  46.979  51.983  1.00  0.00    -0.132 NA
HETATM    5  C   UNL     1      25.550  45.811  51.521  1.00  0.00     0.118 A 
ENDROOT
BRANCH   1   6
HETATM    6  C   UNL     1      24.222  45.003  49.544  1.00  0.00     0.271 C 
HETATM    7  N   UNL     1      22.834  45.088  49.451  1.00  0.00    -0.145 NA
HETATM    8  H   UNL     1      22.389  45.576  50.229  1.00  0.00     0.158 HD
HETATM    9  O   UNL     1      24.881  44.183  48.905  1.00  0.00    -0.271 OA
BRANCH   7  10
HETATM   10  N   UNL     1      22.132  43.956  49.164  1.00  0.00    -0.205 NA
HETATM   11  C   UNL     1      21.779  43.621  47.954  1.00  0.00     0.147 C 
BRANCH  11  12
HETATM   12  C   UNL     1      21.906  44.280  46.628  1.00  0.00     0.019 A 
HETATM   13  C   UNL     1      20.852  45.111  46.201  1.00  0.00     0.101 A 
HETATM   14  C   UNL     1      20.877  45.690  44.920  1.00  0.00     0.069 A 
HETATM   15 CL   UNL     1      19.568  46.650  44.331  1.00  0.00    -0.081 Cl
HETATM   16  C   UNL     1      21.967  45.484  44.078  1.00  0.00     0.050 A 
HETATM   17  C   UNL     1      23.028  44.704  44.522  1.00  0.00     0.036 A 
HETATM   18 CL   UNL     1      24.376  44.421  43.486  1.00  0.00    -0.084 Cl
HETATM   19  C   UNL     1      23.010  44.117  45.789  1.00  0.00     0.039 A 
BRANCH  13  20
HETATM   20  O   UNL     1      19.766  45.306  47.019  1.00  0.00    -0.353 OA
HETATM   21  C   UNL     1      18.680  44.438  46.671  1.00  0.00     0.210 C 
ENDBRANCH  13  20
ENDBRANCH  11  12
ENDBRANCH   7  10
ENDBRANCH   1   6
BRANCH   2  22
HETATM   22  C   UNL     1      24.459  48.245  49.113  1.00  0.00     0.230 A 
HETATM   23  N   UNL     1      23.201  48.074  48.714  1.00  0.00    -0.081 NA
HETATM   24  O   UNL     1      23.007  49.074  47.761  1.00  0.00    -0.103 OA
HETATM   25  N   UNL     1      24.158  49.829  47.587  1.00  0.00    -0.083 NA
HETATM   26  C   UNL     1      25.056  49.321  48.429  1.00  0.00     0.201 A 
BRANCH  26  27
HETATM   27  N   UNL     1      26.305  49.790  48.576  1.00  0.00    -0.379 N 
HETATM   28  H   UNL     1      26.598  50.618  48.065  1.00  0.00     0.158 HD
HETATM   29  H   UNL     1      27.055  49.277  49.031  1.00  0.00     0.158 HD
ENDBRANCH  26  27
ENDBRANCH   2  22
BRANCH   5  30
HETATM   30  C   UNL     1      25.713  44.581  52.355  1.00  0.00     0.298 C 
BRANCH  30  31
HETATM   31  N   UNL     1      27.168  44.394  52.800  1.00  0.00    -0.066 N 
HETATM   32  H   UNL     1      27.664  45.177  52.347  1.00  0.00     0.280 HD
HETATM   33  C   UNL     1      27.295  44.592  54.292  1.00  0.00     0.235 C 
HETATM   34  C   UNL     1      28.748  44.669  54.743  1.00  0.00     0.028 C 
HETATM   35  C   UNL     1      29.439  43.311  54.761  1.00  0.00     0.002 C 
HETATM   36  C   UNL     1      30.047  42.879  53.431  1.00  0.00     0.002 C 
HETATM   37  C   UNL     1      29.267  43.217  52.165  1.00  0.00     0.028 C 
HETATM   38  C   UNL     1      27.752  43.104  52.277  1.00  0.00     0.235 C 
ENDBRANCH  30  31
ENDBRANCH   5  30
TORSDOF 8
ENDMDL
