MODEL 1
REMARK VINA RESULT:     -10.5      0.000      0.000
REMARK  4 active torsions:
REMARK  status: ('A' for Active; 'I' for Inactive)
REMARK    1  A    between atoms: C_7  and  C_8 
REMARK       I    between atoms: C_8  and  N_9 
REMARK    2  A    between atoms: N_9  and  N_10 
REMARK       I    between atoms: N_10  and  C_11 
REMARK    3  A    between atoms: C_11  and  C_12 
REMARK    4  A    between atoms: C_12  and  C_13 
ROOT
HETATM    1  C   UNL     1      25.902  47.157  49.940  1.00  0.00     0.273 C 
HETATM    2  N   UNL     1      25.940  47.300  51.316  1.00  0.00    -0.263 N 
HETATM    3  O   UNL     1      26.234  46.113  49.382  1.00  0.00    -0.266 OA
HETATM    4  H   UNL     1      25.331  48.000  51.740  1.00  0.00     0.190 HD
ENDROOT
BRANCH   2   5
HETATM    5  N   UNL     1      26.121  46.132  52.092  1.00  0.00    -0.267 N 
HETATM    6  C   UNL     1      26.583  46.317  53.378  1.00  0.00     0.240 C 
HETATM    7  O   UNL     1      26.979  47.421  53.766  1.00  0.00    -0.272 OA
HETATM    8  H   UNL     1      25.487  45.361  51.871  1.00  0.00     0.190 HD
BRANCH   6   9
HETATM    9  C   UNL     1      26.662  45.100  54.281  1.00  0.00     0.144 C 
BRANCH   9  10
HETATM   10  C   UNL     1      28.027  44.469  54.470  1.00  0.00    -0.038 A 
HETATM   11  C   UNL     1      28.888  44.813  55.549  1.00  0.00    -0.019 A 
HETATM   12  C   UNL     1      30.159  44.187  55.631  1.00  0.00    -0.025 A 
HETATM   13  C   UNL     1      28.557  45.748  56.557  1.00  0.00     0.013 A 
HETATM   14  C   UNL     1      31.043  44.516  56.671  1.00  0.00     0.012 A 
HETATM   15  C   UNL     1      30.535  43.236  54.671  1.00  0.00     0.012 A 
HETATM   16  C   UNL     1      30.690  45.451  57.642  1.00  0.00     0.001 A 
HETATM   17  C   UNL     1      29.446  46.062  57.588  1.00  0.00     0.001 A 
HETATM   18  C   UNL     1      29.676  42.890  53.633  1.00  0.00     0.001 A 
HETATM   19  C   UNL     1      28.433  43.501  53.532  1.00  0.00     0.008 A 
ENDBRANCH   9  10
ENDBRANCH   6   9
ENDBRANCH   2   5
BRANCH   1  20
HETATM   20  C   UNL     1      25.377  48.321  49.225  1.00  0.00     0.068 A 
HETATM   21  C   UNL     1      26.087  49.427  48.763  1.00  0.00     0.022 A 
HETATM   22  C   UNL     1      27.537  49.760  48.781  1.00  0.00     0.069 C 
HETATM   23  N   UNL     1      25.185  50.284  48.176  1.00  0.00    -0.358 N 
HETATM   24  H   UNL     1      25.416  51.172  47.753  1.00  0.00     0.166 HD
HETATM   25  C   UNL     1      23.917  49.758  48.214  1.00  0.00     0.043 A 
HETATM   26  C   UNL     1      24.005  48.521  48.849  1.00  0.00     0.008 A 
HETATM   27  C   UNL     1      22.711  50.283  47.733  1.00  0.00     0.030 A 
HETATM   28  C   UNL     1      22.823  47.769  49.013  1.00  0.00     0.015 A 
HETATM   29  C   UNL     1      21.607  48.276  48.540  1.00  0.00     0.001 A 
HETATM   30  C   UNL     1      21.555  49.517  47.910  1.00  0.00     0.002 A 
ENDBRANCH   1  20
TORSDOF 4
ENDMDL
MODEL 2
REMARK VINA RESULT:     -10.5      1.717      2.358
REMARK  4 active torsions:
REMARK  status: ('A' for Active; 'I' for Inactive)
REMARK    1  A    between atoms: C_7  and  C_8 
REMARK       I    between atoms: C_8  and  N_9 
REMARK    2  A    between atoms: N_9  and  N_10 
REMARK       I    between atoms: N_10  and  C_11 
REMARK    3  A    between atoms: C_11  and  C_12 
REMARK    4  A    between atoms: C_12  and  C_13 
ROOT
HETATM    1  C   UNL     1      25.488  47.392  50.866  1.00  0.00     0.273 C 
HETATM    2  N   UNL     1      25.361  47.142  52.221  1.00  0.00    -0.263 N 
HETATM    3  O   UNL     1      26.500  47.899  50.387  1.00  0.00    -0.266 OA
HETATM    4  H   UNL     1      24.708  46.415  52.512  1.00  0.00     0.190 HD
ENDROOT
BRANCH   2   5
HETATM    5  N   UNL     1      26.524  47.242  53.019  1.00  0.00    -0.267 N 
HETATM    6  C   UNL     1      26.516  46.536  54.203  1.00  0.00     0.240 C 
HETATM    7  O   UNL     1      25.488  45.994  54.621  1.00  0.00    -0.272 OA
HETATM    8  H   UNL     1      27.394  47.384  52.502  1.00  0.00     0.190 HD
BRANCH   6   9
HETATM    9  C   UNL     1      27.795  46.514  55.019  1.00  0.00     0.144 C 
BRANCH   9  10
HETATM   10  C   UNL     1      28.678  45.289  54.884  1.00  0.00    -0.038 A 
HETATM   11  C   UNL     1      29.631  44.917  55.873  1.00  0.00    -0.019 A 
HETATM   12  C   UNL     1      30.430  43.766  55.648  1.00  0.00    -0.025 A 
HETATM   13  C   UNL     1      29.836  45.628  57.078  1.00  0.00     0.013 A 
HETATM   14  C   UNL     1      31.395  43.381  56.594  1.00  0.00     0.012 A 
HETATM   15  C   UNL     1      30.256  43.009  54.480  1.00  0.00     0.012 A 
HETATM   16  C   UNL     1      31.580  44.110  57.766  1.00  0.00     0.001 A 
HETATM   17  C   UNL     1      30.798  45.229  58.010  1.00  0.00     0.001 A 
HETATM   18  C   UNL     1      29.305  43.369  53.531  1.00  0.00     0.001 A 
HETATM   19  C   UNL     1      28.522  44.498  53.730  1.00  0.00     0.008 A 
ENDBRANCH   9  10
ENDBRANCH   6   9
ENDBRANCH   2   5
BRANCH   1  20
HETATM   20  C   UNL     1      24.353  46.944  50.059  1.00  0.00     0.068 A 
HETATM   21  C   UNL     1      23.900  45.639  49.877  1.00  0.00     0.022 A 
HETATM   22  C   UNL     1      24.344  44.341  50.450  1.00  0.00     0.069 C 
HETATM   23  N   UNL     1      22.826  45.688  49.018  1.00  0.00    -0.358 N 
HETATM   24  H   UNL     1      22.295  44.887  48.704  1.00  0.00     0.166 HD
HETATM   25  C   UNL     1      22.547  46.983  48.658  1.00  0.00     0.043 A 
HETATM   26  C   UNL     1      23.474  47.797  49.307  1.00  0.00     0.008 A 
HETATM   27  C   UNL     1      21.548  47.488  47.817  1.00  0.00     0.030 A 
HETATM   28  C   UNL     1      23.398  49.191  49.101  1.00  0.00     0.015 A 
HETATM   29  C   UNL     1      22.407  49.715  48.263  1.00  0.00     0.001 A 
HETATM   30  C   UNL     1      21.497  48.872  47.630  1.00  0.00     0.002 A 
ENDBRANCH   1  20
TORSDOF 4
ENDMDL
MODEL 3
REMARK VINA RESULT:     -10.4      0.779      2.231
REMARK  4 active torsions:
REMARK  status: ('A' for Active; 'I' for Inactive)
REMARK    1  A    between atoms: C_7  and  C_8 
REMARK       I    between atoms: C_8  and  N_9 
REMARK    2  A    between atoms: N_9  and  N_10 
REMARK       I    between atoms: N_10  and  C_11 
REMARK    3  A    between atoms: C_11  and  C_12 
REMARK    4  A    between atoms: C_12  and  C_13 
ROOT
HETATM    1  C   UNL     1      25.539  47.315  49.893  1.00  0.00     0.273 C 
HETATM    2  N   UNL     1      25.996  47.641  51.158  1.00  0.00    -0.263 N 
HETATM    3  O   UNL     1      25.573  46.164  49.462  1.00  0.00    -0.266 OA
HETATM    4  H   UNL     1      25.622  48.481  51.598  1.00  0.00     0.190 HD
ENDROOT
BRANCH   2   5
HETATM    5  N   UNL     1      26.266  46.579  52.052  1.00  0.00    -0.267 N 
HETATM    6  C   UNL     1      25.972  46.808  53.380  1.00  0.00     0.240 C 
HETATM    7  O   UNL     1      25.657  47.931  53.784  1.00  0.00    -0.272 OA
HETATM    8  H   UNL     1      26.180  45.643  51.652  1.00  0.00     0.190 HD
BRANCH   6   9
HETATM    9  C   UNL     1      26.124  45.646  54.345  1.00  0.00     0.144 C 
BRANCH   9  10
HETATM   10  C   UNL     1      27.515  45.372  54.879  1.00  0.00    -0.038 A 
HETATM   11  C   UNL     1      28.372  44.384  54.317  1.00  0.00    -0.019 A 
HETATM   12  C   UNL     1      29.649  44.180  54.899  1.00  0.00    -0.025 A 
HETATM   13  C   UNL     1      28.028  43.582  53.203  1.00  0.00     0.013 A 
HETATM   14  C   UNL     1      30.513  43.200  54.384  1.00  0.00     0.012 A 
HETATM   15  C   UNL     1      30.053  44.961  55.993  1.00  0.00     0.012 A 
HETATM   16  C   UNL     1      30.139  42.419  53.292  1.00  0.00     0.001 A 
HETATM   17  C   UNL     1      28.900  42.613  52.700  1.00  0.00     0.001 A 
HETATM   18  C   UNL     1      29.218  45.939  56.520  1.00  0.00     0.001 A 
HETATM   19  C   UNL     1      27.960  46.144  55.968  1.00  0.00     0.008 A 
ENDBRANCH   9  10
ENDBRANCH   6   9
ENDBRANCH   2   5
BRANCH   1  20
HETATM   20  C   UNL     1      24.961  48.435  49.151  1.00  0.00     0.068 A 
HETATM   21  C   UNL     1      25.624  49.544  48.629  1.00  0.00     0.022 A 
HETATM   22  C   UNL     1      27.063  49.919  48.594  1.00  0.00     0.069 C 
HETATM   23  N   UNL     1      24.681  50.352  48.037  1.00  0.00    -0.358 N 
HETATM   24  H   UNL     1      24.874  51.230  47.576  1.00  0.00     0.166 HD
HETATM   25  C   UNL     1      23.431  49.792  48.130  1.00  0.00     0.043 A 
HETATM   26  C   UNL     1      23.574  48.582  48.807  1.00  0.00     0.008 A 
HETATM   27  C   UNL     1      22.197  50.263  47.665  1.00  0.00     0.030 A 
HETATM   28  C   UNL     1      22.419  47.803  49.032  1.00  0.00     0.015 A 
HETATM   29  C   UNL     1      21.176  48.257  48.575  1.00  0.00     0.001 A 
HETATM   30  C   UNL     1      21.070  49.471  47.902  1.00  0.00     0.002 A 
ENDBRANCH   1  20
TORSDOF 4
ENDMDL
MODEL 4
REMARK VINA RESULT:     -10.3      1.448      2.198
REMARK  4 active torsions:
REMARK  status: ('A' for Active; 'I' for Inactive)
REMARK    1  A    between atoms: C_7  and  C_8 
REMARK       I    between atoms: C_8  and  N_9 
REMARK    2  A    between atoms: N_9  and  N_10 
REMARK       I    between atoms: N_10  and  C_11 
REMARK    3  A    between atoms: C_11  and  C_12 
REMARK    4  A    between atoms: C_12  and  C_13 
ROOT
HETATM    1  C   UNL     1      25.054  46.973  50.517  1.00  0.00     0.273 C 
HETATM    2  N   UNL     1      25.099  45.748  49.875  1.00  0.00    -0.263 N 
HETATM    3  O   UNL     1      25.017  47.068  51.743  1.00  0.00    -0.266 OA
HETATM    4  H   UNL     1      25.493  45.716  48.936  1.00  0.00     0.190 HD
ENDROOT
BRANCH   2   5
HETATM    5  N   UNL     1      25.365  44.604  50.663  1.00  0.00    -0.267 N 
HETATM    6  C   UNL     1      26.680  44.190  50.717  1.00  0.00     0.240 C 
HETATM    7  O   UNL     1      27.539  44.686  49.982  1.00  0.00    -0.272 OA
HETATM    8  H   UNL     1      24.744  44.474  51.464  1.00  0.00     0.190 HD
BRANCH   6   9
HETATM    9  C   UNL     1      27.021  43.048  51.656  1.00  0.00     0.144 C 
BRANCH   9  10
HETATM   10  C   UNL     1      28.145  43.282  52.645  1.00  0.00    -0.038 A 
HETATM   11  C   UNL     1      28.090  44.293  53.645  1.00  0.00    -0.019 A 
HETATM   12  C   UNL     1      29.201  44.453  54.512  1.00  0.00    -0.025 A 
HETATM   13  C   UNL     1      26.987  45.159  53.832  1.00  0.00     0.013 A 
HETATM   14  C   UNL     1      29.190  45.455  55.497  1.00  0.00     0.012 A 
HETATM   15  C   UNL     1      30.315  43.610  54.387  1.00  0.00     0.012 A 
HETATM   16  C   UNL     1      28.093  46.299  55.647  1.00  0.00     0.001 A 
HETATM   17  C   UNL     1      26.990  46.148  54.819  1.00  0.00     0.001 A 
HETATM   18  C   UNL     1      30.349  42.609  53.421  1.00  0.00     0.001 A 
HETATM   19  C   UNL     1      29.274  42.446  52.558  1.00  0.00     0.008 A 
ENDBRANCH   9  10
ENDBRANCH   6   9
ENDBRANCH   2   5
BRANCH   1  20
HETATM   20  C   UNL     1      25.120  48.128  49.622  1.00  0.00     0.068 A 
HETATM   21  C   UNL     1      26.260  48.732  49.094  1.00  0.00     0.022 A 
HETATM   22  C   UNL     1      27.705  48.397  49.200  1.00  0.00     0.069 C 
HETATM   23  N   UNL     1      25.848  49.799  48.329  1.00  0.00    -0.358 N 
HETATM   24  H   UNL     1      26.461  50.423  47.824  1.00  0.00     0.166 HD
HETATM   25  C   UNL     1      24.478  49.892  48.318  1.00  0.00     0.043 A 
HETATM   26  C   UNL     1      23.991  48.850  49.105  1.00  0.00     0.008 A 
HETATM   27  C   UNL     1      23.645  50.813  47.672  1.00  0.00     0.030 A 
HETATM   28  C   UNL     1      22.593  48.723  49.253  1.00  0.00     0.015 A 
HETATM   29  C   UNL     1      21.743  49.634  48.616  1.00  0.00     0.001 A 
HETATM   30  C   UNL     1      22.265  50.664  47.838  1.00  0.00     0.002 A 
ENDBRANCH   1  20
TORSDOF 4
ENDMDL
MODEL 5
REMARK VINA RESULT:     -10.3      1.639      9.383
REMARK  4 active torsions:
REMARK  status: ('A' for Active; 'I' for Inactive)
REMARK    1  A    between atoms: C_7  and  C_8 
REMARK       I    between atoms: C_8  and  N_9 
REMARK    2  A    between atoms: N_9  and  N_10 
REMARK       I    between atoms: N_10  and  C_11 
REMARK    3  A    between atoms: C_11  and  C_12 
REMARK    4  A    between atoms: C_12  and  C_13 
ROOT
HETATM    1  C   UNL     1      27.496  44.489  53.755  1.00  0.00     0.273 C 
HETATM    2  N   UNL     1      27.642  45.424  52.745  1.00  0.00    -0.263 N 
HETATM    3  O   UNL     1      26.425  43.925  53.973  1.00  0.00    -0.266 OA
HETATM    4  H   UNL     1      28.577  45.576  52.368  1.00  0.00     0.190 HD
ENDROOT
BRANCH   2   5
HETATM    5  N   UNL     1      26.600  45.533  51.795  1.00  0.00    -0.267 N 
HETATM    6  C   UNL     1      25.891  46.716  51.798  1.00  0.00     0.240 C 
HETATM    7  O   UNL     1      26.044  47.555  52.691  1.00  0.00    -0.272 OA
HETATM    8  H   UNL     1      26.748  45.015  50.927  1.00  0.00     0.190 HD
BRANCH   6   9
HETATM    9  C   UNL     1      24.855  46.919  50.708  1.00  0.00     0.144 C 
BRANCH   9  10
HETATM   10  C   UNL     1      25.096  48.052  49.730  1.00  0.00    -0.038 A 
HETATM   11  C   UNL     1      24.035  48.774  49.116  1.00  0.00    -0.019 A 
HETATM   12  C   UNL     1      24.358  49.803  48.195  1.00  0.00    -0.025 A 
HETATM   13  C   UNL     1      22.665  48.529  49.366  1.00  0.00     0.013 A 
HETATM   14  C   UNL     1      23.336  50.524  47.554  1.00  0.00     0.012 A 
HETATM   15  C   UNL     1      25.701  50.105  47.923  1.00  0.00     0.012 A 
HETATM   16  C   UNL     1      21.995  50.250  47.814  1.00  0.00     0.001 A 
HETATM   17  C   UNL     1      21.660  49.257  48.723  1.00  0.00     0.001 A 
HETATM   18  C   UNL     1      26.730  49.409  48.546  1.00  0.00     0.001 A 
HETATM   19  C   UNL     1      26.432  48.390  49.443  1.00  0.00     0.008 A 
ENDBRANCH   9  10
ENDBRANCH   6   9
ENDBRANCH   2   5
BRANCH   1  20
HETATM   20  C   UNL     1      28.728  44.187  54.483  1.00  0.00     0.068 A 
HETATM   21  C   UNL     1      29.720  43.273  54.136  1.00  0.00     0.022 A 
HETATM   22  C   UNL     1      29.891  42.389  52.952  1.00  0.00     0.069 C 
HETATM   23  N   UNL     1      30.676  43.302  55.124  1.00  0.00    -0.358 N 
HETATM   24  H   UNL     1      31.516  42.739  55.139  1.00  0.00     0.166 HD
HETATM   25  C   UNL     1      30.355  44.226  56.088  1.00  0.00     0.043 A 
HETATM   26  C   UNL     1      29.148  44.811  55.707  1.00  0.00     0.008 A 
HETATM   27  C   UNL     1      31.040  44.585  57.255  1.00  0.00     0.030 A 
HETATM   28  C   UNL     1      28.598  45.807  56.541  1.00  0.00     0.015 A 
HETATM   29  C   UNL     1      29.267  46.180  57.712  1.00  0.00     0.001 A 
HETATM   30  C   UNL     1      30.471  45.574  58.062  1.00  0.00     0.002 A 
ENDBRANCH   1  20
TORSDOF 4
ENDMDL
MODEL 6
REMARK VINA RESULT:     -10.0      1.977      3.195
REMARK  4 active torsions:
REMARK  status: ('A' for Active; 'I' for Inactive)
REMARK    1  A    between atoms: C_7  and  C_8 
REMARK       I    between atoms: C_8  and  N_9 
REMARK    2  A    between atoms: N_9  and  N_10 
REMARK       I    between atoms: N_10  and  C_11 
REMARK    3  A    between atoms: C_11  and  C_12 
REMARK    4  A    between atoms: C_12  and  C_13 
ROOT
HETATM    1  C   UNL     1      24.127  47.566  49.816  1.00  0.00     0.273 C 
HETATM    2  N   UNL     1      24.187  46.352  50.477  1.00  0.00    -0.263 N 
HETATM    3  O   UNL     1      25.020  48.406  49.910  1.00  0.00    -0.266 OA
HETATM    4  H   UNL     1      23.649  45.574  50.095  1.00  0.00     0.190 HD
ENDROOT
BRANCH   2   5
HETATM    5  N   UNL     1      25.421  45.982  51.061  1.00  0.00    -0.267 N 
HETATM    6  C   UNL     1      25.379  44.953  51.978  1.00  0.00     0.240 C 
HETATM    7  O   UNL     1      24.306  44.503  52.391  1.00  0.00    -0.272 OA
HETATM    8  H   UNL     1      26.240  46.119  50.467  1.00  0.00     0.190 HD
BRANCH   6   9
HETATM    9  C   UNL     1      26.700  44.443  52.525  1.00  0.00     0.144 C 
BRANCH   9  10
HETATM   10  C   UNL     1      27.299  45.197  53.695  1.00  0.00    -0.038 A 
HETATM   11  C   UNL     1      28.491  44.777  54.349  1.00  0.00    -0.019 A 
HETATM   12  C   UNL     1      28.964  45.534  55.452  1.00  0.00    -0.025 A 
HETATM   13  C   UNL     1      29.243  43.641  53.967  1.00  0.00     0.013 A 
HETATM   14  C   UNL     1      30.126  45.138  56.134  1.00  0.00     0.012 A 
HETATM   15  C   UNL     1      28.272  46.682  55.863  1.00  0.00     0.012 A 
HETATM   16  C   UNL     1      30.838  44.007  55.740  1.00  0.00     0.001 A 
HETATM   17  C   UNL     1      30.399  43.262  54.654  1.00  0.00     0.001 A 
HETATM   18  C   UNL     1      27.120  47.097  55.202  1.00  0.00     0.001 A 
HETATM   19  C   UNL     1      26.638  46.362  54.127  1.00  0.00     0.008 A 
ENDBRANCH   9  10
ENDBRANCH   6   9
ENDBRANCH   2   5
BRANCH   1  20
HETATM   20  C   UNL     1      22.955  47.730  48.956  1.00  0.00     0.068 A 
HETATM   21  C   UNL     1      22.376  46.781  48.116  1.00  0.00     0.022 A 
HETATM   22  C   UNL     1      22.689  45.349  47.864  1.00  0.00     0.069 C 
HETATM   23  N   UNL     1      21.314  47.382  47.481  1.00  0.00    -0.358 N 
HETATM   24  H   UNL     1      20.707  46.933  46.809  1.00  0.00     0.166 HD
HETATM   25  C   UNL     1      21.165  48.681  47.901  1.00  0.00     0.043 A 
HETATM   26  C   UNL     1      22.167  48.925  48.839  1.00  0.00     0.008 A 
HETATM   27  C   UNL     1      20.222  49.645  47.525  1.00  0.00     0.030 A 
HETATM   28  C   UNL     1      22.228  50.205  49.431  1.00  0.00     0.015 A 
HETATM   29  C   UNL     1      21.296  51.183  49.068  1.00  0.00     0.001 A 
HETATM   30  C   UNL     1      20.308  50.904  48.126  1.00  0.00     0.002 A 
ENDBRANCH   1  20
TORSDOF 4
ENDMDL
MODEL 7
REMARK VINA RESULT:      -9.9      1.529      2.744
REMARK  4 active torsions:
REMARK  status: ('A' for Active; 'I' for Inactive)
REMARK    1  A    between atoms: C_7  and  C_8 
REMARK       I    between atoms: C_8  and  N_9 
REMARK    2  A    between atoms: N_9  and  N_10 
REMARK       I    between atoms: N_10  and  C_11 
REMARK    3  A    between atoms: C_11  and  C_12 
REMARK    4  A    between atoms: C_12  and  C_13 
ROOT
HETATM    1  C   UNL     1      24.450  47.491  50.113  1.00  0.00     0.273 C 
HETATM    2  N   UNL     1      24.550  46.247  49.516  1.00  0.00    -0.263 N 
HETATM    3  O   UNL     1      24.685  47.664  51.307  1.00  0.00    -0.266 OA
HETATM    4  H   UNL     1      24.713  46.212  48.510  1.00  0.00     0.190 HD
ENDROOT
BRANCH   2   5
HETATM    5  N   UNL     1      25.181  45.215  50.249  1.00  0.00    -0.267 N 
HETATM    6  C   UNL     1      26.555  45.147  50.150  1.00  0.00     0.240 C 
HETATM    7  O   UNL     1      27.175  45.835  49.333  1.00  0.00    -0.272 OA
HETATM    8  H   UNL     1      24.706  44.942  51.111  1.00  0.00     0.190 HD
BRANCH   6   9
HETATM    9  C   UNL     1      27.275  44.138  51.025  1.00  0.00     0.144 C 
BRANCH   9  10
HETATM   10  C   UNL     1      27.532  44.535  52.465  1.00  0.00    -0.038 A 
HETATM   11  C   UNL     1      28.625  44.024  53.219  1.00  0.00    -0.019 A 
HETATM   12  C   UNL     1      28.771  44.434  54.569  1.00  0.00    -0.025 A 
HETATM   13  C   UNL     1      29.585  43.122  52.704  1.00  0.00     0.013 A 
HETATM   14  C   UNL     1      29.827  43.934  55.350  1.00  0.00     0.012 A 
HETATM   15  C   UNL     1      27.861  45.343  55.128  1.00  0.00     0.012 A 
HETATM   16  C   UNL     1      30.750  43.037  54.815  1.00  0.00     0.001 A 
HETATM   17  C   UNL     1      30.632  42.636  53.493  1.00  0.00     0.001 A 
HETATM   18  C   UNL     1      26.809  45.855  54.376  1.00  0.00     0.001 A 
HETATM   19  C   UNL     1      26.645  45.455  53.056  1.00  0.00     0.008 A 
ENDBRANCH   9  10
ENDBRANCH   6   9
ENDBRANCH   2   5
BRANCH   1  20
HETATM   20  C   UNL     1      24.110  48.578  49.194  1.00  0.00     0.068 A 
HETATM   21  C   UNL     1      24.982  49.457  48.555  1.00  0.00     0.022 A 
HETATM   22  C   UNL     1      26.466  49.552  48.538  1.00  0.00     0.069 C 
HETATM   23  N   UNL     1      24.221  50.329  47.811  1.00  0.00    -0.358 N 
HETATM   24  H   UNL     1      24.587  51.079  47.242  1.00  0.00     0.166 HD
HETATM   25  C   UNL     1      22.886  50.028  47.921  1.00  0.00     0.043 A 
HETATM   26  C   UNL     1      22.783  48.925  48.767  1.00  0.00     0.008 A 
HETATM   27  C   UNL     1      21.774  50.645  47.335  1.00  0.00     0.030 A 
HETATM   28  C   UNL     1      21.497  48.413  49.041  1.00  0.00     0.015 A 
HETATM   29  C   UNL     1      20.373  49.016  48.466  1.00  0.00     0.001 A 
HETATM   30  C   UNL     1      20.513  50.118  47.626  1.00  0.00     0.002 A 
ENDBRANCH   1  20
TORSDOF 4
ENDMDL
MODEL 8
REMARK VINA RESULT:      -9.8      1.672      2.986
REMARK  4 active torsions:
REMARK  status: ('A' for Active; 'I' for Inactive)
REMARK    1  A    between atoms: C_7  and  C_8 
REMARK       I    between atoms: C_8  and  N_9 
REMARK    2  A    between atoms: N_9  and  N_10 
REMARK       I    between atoms: N_10  and  C_11 
REMARK    3  A    between atoms: C_11  and  C_12 
REMARK    4  A    between atoms: C_12  and  C_13 
ROOT
HETATM    1  C   UNL     1      23.374  47.812  49.333  1.00  0.00     0.273 C 
HETATM    2  N   UNL     1      24.246  47.882  50.405  1.00  0.00    -0.263 N 
HETATM    3  O   UNL     1      23.020  46.740  48.847  1.00  0.00    -0.266 OA
HETATM    4  H   UNL     1      24.216  48.716  50.990  1.00  0.00     0.190 HD
ENDROOT
BRANCH   2   5
HETATM    5  N   UNL     1      24.525  46.684  51.103  1.00  0.00    -0.267 N 
HETATM    6  C   UNL     1      25.688  46.664  51.843  1.00  0.00     0.240 C 
HETATM    7  O   UNL     1      26.519  47.573  51.758  1.00  0.00    -0.272 OA
HETATM    8  H   UNL     1      23.703  46.158  51.408  1.00  0.00     0.190 HD
BRANCH   6   9
HETATM    9  C   UNL     1      25.951  45.446  52.709  1.00  0.00     0.144 C 
BRANCH   9  10
HETATM   10  C   UNL     1      26.996  45.587  53.798  1.00  0.00    -0.038 A 
HETATM   11  C   UNL     1      28.110  44.708  53.911  1.00  0.00    -0.019 A 
HETATM   12  C   UNL     1      29.024  44.903  54.978  1.00  0.00    -0.025 A 
HETATM   13  C   UNL     1      28.368  43.641  53.019  1.00  0.00     0.013 A 
HETATM   14  C   UNL     1      30.124  44.043  55.132  1.00  0.00     0.012 A 
HETATM   15  C   UNL     1      28.832  45.958  55.882  1.00  0.00     0.012 A 
HETATM   16  C   UNL     1      30.343  42.994  54.242  1.00  0.00     0.001 A 
HETATM   17  C   UNL     1      29.468  42.796  53.184  1.00  0.00     0.001 A 
HETATM   18  C   UNL     1      27.752  46.825  55.749  1.00  0.00     0.001 A 
HETATM   19  C   UNL     1      26.842  46.642  54.716  1.00  0.00     0.008 A 
ENDBRANCH   9  10
ENDBRANCH   6   9
ENDBRANCH   2   5
BRANCH   1  20
HETATM   20  C   UNL     1      22.866  49.107  48.880  1.00  0.00     0.068 A 
HETATM   21  C   UNL     1      23.575  50.124  48.243  1.00  0.00     0.022 A 
HETATM   22  C   UNL     1      24.985  50.216  47.778  1.00  0.00     0.069 C 
HETATM   23  N   UNL     1      22.704  51.166  48.028  1.00  0.00    -0.358 N 
HETATM   24  H   UNL     1      22.942  52.042  47.583  1.00  0.00     0.166 HD
HETATM   25  C   UNL     1      21.445  50.851  48.477  1.00  0.00     0.043 A 
HETATM   26  C   UNL     1      21.509  49.561  49.001  1.00  0.00     0.008 A 
HETATM   27  C   UNL     1      20.267  51.606  48.454  1.00  0.00     0.030 A 
HETATM   28  C   UNL     1      20.329  48.998  49.531  1.00  0.00     0.015 A 
HETATM   29  C   UNL     1      19.140  49.737  49.518  1.00  0.00     0.001 A 
HETATM   30  C   UNL     1      19.113  51.024  48.987  1.00  0.00     0.002 A 
ENDBRANCH   1  20
TORSDOF 4
ENDMDL
MODEL 9
REMARK VINA RESULT:      -9.8      1.574      2.136
REMARK  4 active torsions:
REMARK  status: ('A' for Active; 'I' for Inactive)
REMARK    1  A    between atoms: C_7  and  C_8 
REMARK       I    between atoms: C_8  and  N_9 
REMARK    2  A    between atoms: N_9  and  N_10 
REMARK       I    between atoms: N_10  and  C_11 
REMARK    3  A    between atoms: C_11  and  C_12 
REMARK    4  A    between atoms: C_12  and  C_13 
ROOT
HETATM    1  C   UNL     1      23.618  47.574  49.427  1.00  0.00     0.273 C 
HETATM    2  N   UNL     1      24.518  47.576  50.478  1.00  0.00    -0.263 N 
HETATM    3  O   UNL     1      23.163  46.533  48.958  1.00  0.00    -0.266 OA
HETATM    4  H   UNL     1      24.573  48.414  51.057  1.00  0.00     0.190 HD
ENDROOT
BRANCH   2   5
HETATM    5  N   UNL     1      24.709  46.363  51.181  1.00  0.00    -0.267 N 
HETATM    6  C   UNL     1      25.442  46.441  52.346  1.00  0.00     0.240 C 
HETATM    7  O   UNL     1      26.039  47.474  52.662  1.00  0.00    -0.272 OA
HETATM    8  H   UNL     1      23.955  45.681  51.082  1.00  0.00     0.190 HD
BRANCH   6   9
HETATM    9  C   UNL     1      25.554  45.186  53.192  1.00  0.00     0.144 C 
BRANCH   9  10
HETATM   10  C   UNL     1      26.857  44.416  53.113  1.00  0.00    -0.038 A 
HETATM   11  C   UNL     1      27.905  44.583  54.061  1.00  0.00    -0.019 A 
HETATM   12  C   UNL     1      29.099  43.836  53.893  1.00  0.00    -0.025 A 
HETATM   13  C   UNL     1      27.833  45.455  55.172  1.00  0.00     0.013 A 
HETATM   14  C   UNL     1      30.163  43.990  54.798  1.00  0.00     0.012 A 
HETATM   15  C   UNL     1      29.220  42.939  52.821  1.00  0.00     0.012 A 
HETATM   16  C   UNL     1      30.065  44.867  55.876  1.00  0.00     0.001 A 
HETATM   17  C   UNL     1      28.899  45.595  56.065  1.00  0.00     0.001 A 
HETATM   18  C   UNL     1      28.180  42.766  51.913  1.00  0.00     0.001 A 
HETATM   19  C   UNL     1      27.008  43.497  52.058  1.00  0.00     0.008 A 
ENDBRANCH   9  10
ENDBRANCH   6   9
ENDBRANCH   2   5
BRANCH   1  20
HETATM   20  C   UNL     1      23.213  48.905  48.975  1.00  0.00     0.068 A 
HETATM   21  C   UNL     1      24.017  49.894  48.411  1.00  0.00     0.022 A 
HETATM   22  C   UNL     1      25.458  49.918  48.043  1.00  0.00     0.069 C 
HETATM   23  N   UNL     1      23.220  50.988  48.166  1.00  0.00    -0.358 N 
HETATM   24  H   UNL     1      23.534  51.859  47.760  1.00  0.00     0.166 HD
HETATM   25  C   UNL     1      21.918  50.734  48.523  1.00  0.00     0.043 A 
HETATM   26  C   UNL     1      21.877  49.431  49.017  1.00  0.00     0.008 A 
HETATM   27  C   UNL     1      20.787  51.554  48.441  1.00  0.00     0.030 A 
HETATM   28  C   UNL     1      20.635  48.923  49.453  1.00  0.00     0.015 A 
HETATM   29  C   UNL     1      19.492  49.727  49.381  1.00  0.00     0.001 A 
HETATM   30  C   UNL     1      19.570  51.024  48.882  1.00  0.00     0.002 A 
ENDBRANCH   1  20
TORSDOF 4
ENDMDL
MODEL 10
REMARK VINA RESULT:      -9.6      1.726      9.473
REMARK  4 active torsions:
REMARK  status: ('A' for Active; 'I' for Inactive)
REMARK    1  A    between atoms: C_7  and  C_8 
REMARK       I    between atoms: C_8  and  N_9 
REMARK    2  A    between atoms: N_9  and  N_10 
REMARK       I    between atoms: N_10  and  C_11 
REMARK    3  A    between atoms: C_11  and  C_12 
REMARK    4  A    between atoms: C_12  and  C_13 
ROOT
HETATM    1  C   UNL     1      25.895  44.726  52.776  1.00  0.00     0.273 C 
HETATM    2  N   UNL     1      26.098  45.838  51.979  1.00  0.00    -0.263 N 
HETATM    3  O   UNL     1      24.776  44.399  53.169  1.00  0.00    -0.266 OA
HETATM    4  H   UNL     1      26.932  45.858  51.392  1.00  0.00     0.190 HD
ENDROOT
BRANCH   2   5
HETATM    5  N   UNL     1      24.961  46.451  51.404  1.00  0.00    -0.267 N 
HETATM    6  C   UNL     1      24.762  46.230  50.057  1.00  0.00     0.240 C 
HETATM    7  O   UNL     1      25.620  45.676  49.364  1.00  0.00    -0.272 OA
HETATM    8  H   UNL     1      24.167  46.573  52.036  1.00  0.00     0.190 HD
BRANCH   6   9
HETATM    9  C   UNL     1      23.482  46.761  49.438  1.00  0.00     0.144 C 
BRANCH   9  10
HETATM   10  C   UNL     1      23.471  48.219  49.023  1.00  0.00    -0.038 A 
HETATM   11  C   UNL     1      22.268  48.962  48.863  1.00  0.00    -0.019 A 
HETATM   12  C   UNL     1      22.356  50.316  48.448  1.00  0.00    -0.025 A 
HETATM   13  C   UNL     1      20.977  48.433  49.094  1.00  0.00     0.013 A 
HETATM   14  C   UNL     1      21.188  51.074  48.261  1.00  0.00     0.012 A 
HETATM   15  C   UNL     1      23.611  50.901  48.224  1.00  0.00     0.012 A 
HETATM   16  C   UNL     1      19.930  50.519  48.485  1.00  0.00     0.001 A 
HETATM   17  C   UNL     1      19.825  49.202  48.906  1.00  0.00     0.001 A 
HETATM   18  C   UNL     1      24.781  50.172  48.405  1.00  0.00     0.001 A 
HETATM   19  C   UNL     1      24.713  48.843  48.801  1.00  0.00     0.008 A 
ENDBRANCH   9  10
ENDBRANCH   6   9
ENDBRANCH   2   5
BRANCH   1  20
HETATM   20  C   UNL     1      27.103  43.949  53.051  1.00  0.00     0.068 A 
HETATM   21  C   UNL     1      27.508  42.761  52.444  1.00  0.00     0.022 A 
HETATM   22  C   UNL     1      26.923  41.957  51.338  1.00  0.00     0.069 C 
HETATM   23  N   UNL     1      28.688  42.374  53.035  1.00  0.00    -0.358 N 
HETATM   24  H   UNL     1      29.214  41.545  52.796  1.00  0.00     0.166 HD
HETATM   25  C   UNL     1      29.080  43.285  53.985  1.00  0.00     0.043 A 
HETATM   26  C   UNL     1      28.118  44.293  54.008  1.00  0.00     0.008 A 
HETATM   27  C   UNL     1      30.208  43.290  54.814  1.00  0.00     0.030 A 
HETATM   28  C   UNL     1      28.294  45.363  54.911  1.00  0.00     0.015 A 
HETATM   29  C   UNL     1      29.414  45.386  55.749  1.00  0.00     0.001 A 
HETATM   30  C   UNL     1      30.356  44.362  55.699  1.00  0.00     0.002 A 
ENDBRANCH   1  20
TORSDOF 4
ENDMDL
