MODEL 1
REMARK VINA RESULT:      -9.2      0.000      0.000
REMARK  5 active torsions:
REMARK  status: ('A' for Active; 'I' for Inactive)
REMARK    1  A    between atoms: C_2  and  C_3 
REMARK    2  A    between atoms: C_7  and  N_8 
REMARK    3  A    between atoms: N_8  and  C_9 
REMARK    4  A    between atoms: C_11  and  N_12 
REMARK    5  A    between atoms: C_14  and  N_15 
ROOT
HETATM    1  C   UNL     1      25.197  46.465  51.886  1.00  0.00     0.111 A 
HETATM    2  N   UNL     1      24.688  45.267  51.555  1.00  0.00    -0.206 NA
HETATM    3  C   UNL     1      25.135  44.195  52.211  1.00  0.00     0.202 A 
HETATM    4  N   UNL     1      26.092  44.207  53.133  1.00  0.00    -0.199 NA
HETATM    5  C   UNL     1      26.613  45.417  53.435  1.00  0.00     0.156 A 
HETATM    6  C   UNL     1      26.187  46.586  52.836  1.00  0.00     0.096 A 
ENDROOT
BRANCH   1   7
HETATM    7  N   UNL     1      24.780  47.627  51.219  1.00  0.00    -0.265 NA
HETATM    8  H   UNL     1      23.760  47.659  51.197  1.00  0.00     0.130 HD
BRANCH   7   9
HETATM    9  C   UNL     1      25.308  47.833  49.865  1.00  0.00     0.133 C 
HETATM   10  C   UNL     1      24.433  48.755  49.060  1.00  0.00     0.142 A 
HETATM   11  N   UNL     1      24.950  49.700  48.226  1.00  0.00    -0.253 N 
HETATM   12  N   UNL     1      23.117  48.790  48.982  1.00  0.00    -0.215 NA
HETATM   13  N   UNL     1      23.990  50.373  47.578  1.00  0.00    -0.155 NA
HETATM   14  C   UNL     1      26.350  50.027  48.073  1.00  0.00     0.153 C 
HETATM   15  C   UNL     1      22.886  49.786  48.061  1.00  0.00     0.151 A 
HETATM   16  C   UNL     1      27.243  48.909  48.605  1.00  0.00     0.024 C 
HETATM   17  C   UNL     1      26.741  48.408  49.963  1.00  0.00     0.029 C 
BRANCH  15  18
HETATM   18  C   UNL     1      21.512  50.169  47.614  1.00  0.00     0.051 C 
HETATM   19  C   UNL     1      20.945  51.308  48.461  1.00  0.00     0.018 C 
HETATM   20  C   UNL     1      20.571  48.964  47.635  1.00  0.00     0.018 C 
ENDBRANCH  15  18
ENDBRANCH   7   9
ENDBRANCH   1   7
BRANCH   3  21
HETATM   21  N   UNL     1      24.595  42.972  51.874  1.00  0.00    -0.271 NA
HETATM   22  H   UNL     1      24.975  42.250  52.470  1.00  0.00     0.127 HD
HETATM   23  H   UNL     1      23.589  43.042  51.812  1.00  0.00     0.127 HD
ENDBRANCH   3  21
BRANCH   5  24
HETATM   24  N   UNL     1      27.659  45.475  54.401  1.00  0.00    -0.227 N 
HETATM   25  N   UNL     1      27.763  46.486  55.308  1.00  0.00    -0.179 NA
HETATM   26  C   UNL     1      28.864  46.195  56.004  1.00  0.00     0.141 A 
HETATM   27  C   UNL     1      29.480  45.010  55.574  1.00  0.00     0.040 A 
HETATM   28  C   UNL     1      28.687  44.565  54.545  1.00  0.00     0.122 A 
ENDBRANCH   5  24
TORSDOF 5
ENDMDL
MODEL 2
REMARK VINA RESULT:      -9.1      2.258      7.633
REMARK  5 active torsions:
REMARK  status: ('A' for Active; 'I' for Inactive)
REMARK    1  A    between atoms: C_2  and  C_3 
REMARK    2  A    between atoms: C_7  and  N_8 
REMARK    3  A    between atoms: N_8  and  C_9 
REMARK    4  A    between atoms: C_11  and  N_12 
REMARK    5  A    between atoms: C_14  and  N_15 
ROOT
HETATM    1  C   UNL     1      25.653  45.298  51.817  1.00  0.00     0.111 A 
HETATM    2  N   UNL     1      26.102  44.246  51.113  1.00  0.00    -0.206 NA
HETATM    3  C   UNL     1      26.660  44.482  49.924  1.00  0.00     0.202 A 
HETATM    4  N   UNL     1      26.756  45.675  49.349  1.00  0.00    -0.199 NA
HETATM    5  C   UNL     1      26.275  46.720  50.058  1.00  0.00     0.156 A 
HETATM    6  C   UNL     1      25.715  46.578  51.312  1.00  0.00     0.096 A 
ENDROOT
BRANCH   1   7
HETATM    7  N   UNL     1      25.041  45.113  53.066  1.00  0.00    -0.265 NA
HETATM    8  H   UNL     1      24.065  45.407  53.014  1.00  0.00     0.130 HD
BRANCH   7   9
HETATM    9  C   UNL     1      25.686  45.756  54.217  1.00  0.00     0.133 C 
HETATM   10  C   UNL     1      27.091  45.258  54.419  1.00  0.00     0.142 A 
HETATM   11  N   UNL     1      28.112  46.090  54.770  1.00  0.00    -0.253 N 
HETATM   12  N   UNL     1      27.551  44.024  54.345  1.00  0.00    -0.215 NA
HETATM   13  N   UNL     1      29.262  45.425  54.939  1.00  0.00    -0.155 NA
HETATM   14  C   UNL     1      28.035  47.528  54.888  1.00  0.00     0.153 C 
HETATM   15  C   UNL     1      28.880  44.167  54.678  1.00  0.00     0.151 A 
HETATM   16  C   UNL     1      26.589  48.000  55.019  1.00  0.00     0.024 C 
HETATM   17  C   UNL     1      25.688  47.289  54.004  1.00  0.00     0.029 C 
BRANCH  15  18
HETATM   18  C   UNL     1      29.819  43.007  54.764  1.00  0.00     0.051 C 
HETATM   19  C   UNL     1      30.928  43.260  55.784  1.00  0.00     0.018 C 
HETATM   20  C   UNL     1      30.413  42.678  53.394  1.00  0.00     0.018 C 
ENDBRANCH  15  18
ENDBRANCH   7   9
ENDBRANCH   1   7
BRANCH   3  21
HETATM   21  N   UNL     1      27.131  43.396  49.217  1.00  0.00    -0.271 NA
HETATM   22  H   UNL     1      26.762  43.411  48.276  1.00  0.00     0.127 HD
HETATM   23  H   UNL     1      28.133  43.321  49.322  1.00  0.00     0.127 HD
ENDBRANCH   3  21
BRANCH   5  24
HETATM   24  N   UNL     1      26.336  48.017  49.470  1.00  0.00    -0.227 N 
HETATM   25  N   UNL     1      25.221  48.755  49.208  1.00  0.00    -0.179 NA
HETATM   26  C   UNL     1      25.689  49.872  48.648  1.00  0.00     0.141 A 
HETATM   27  C   UNL     1      27.088  49.883  48.543  1.00  0.00     0.040 A 
HETATM   28  C   UNL     1      27.481  48.681  49.079  1.00  0.00     0.122 A 
ENDBRANCH   5  24
TORSDOF 5
ENDMDL
MODEL 3
REMARK VINA RESULT:      -9.0      2.042      8.223
REMARK  5 active torsions:
REMARK  status: ('A' for Active; 'I' for Inactive)
REMARK    1  A    between atoms: C_2  and  C_3 
REMARK    2  A    between atoms: C_7  and  N_8 
REMARK    3  A    between atoms: N_8  and  C_9 
REMARK    4  A    between atoms: C_11  and  N_12 
REMARK    5  A    between atoms: C_14  and  N_15 
ROOT
HETATM    1  C   UNL     1      25.727  45.088  52.234  1.00  0.00     0.111 A 
HETATM    2  N   UNL     1      24.615  44.410  51.908  1.00  0.00    -0.206 NA
HETATM    3  C   UNL     1      23.907  44.835  50.860  1.00  0.00     0.202 A 
HETATM    4  N   UNL     1      24.181  45.919  50.142  1.00  0.00    -0.199 NA
HETATM    5  C   UNL     1      25.288  46.606  50.500  1.00  0.00     0.156 A 
HETATM    6  C   UNL     1      26.103  46.221  51.545  1.00  0.00     0.096 A 
ENDROOT
BRANCH   1   7
HETATM    7  N   UNL     1      26.503  44.700  53.336  1.00  0.00    -0.265 NA
HETATM    8  H   UNL     1      26.394  45.382  54.087  1.00  0.00     0.130 HD
BRANCH   7   9
HETATM    9  C   UNL     1      27.932  44.471  53.085  1.00  0.00     0.133 C 
HETATM   10  C   UNL     1      28.746  44.600  54.343  1.00  0.00     0.142 A 
HETATM   11  N   UNL     1      29.780  43.758  54.627  1.00  0.00    -0.253 N 
HETATM   12  N   UNL     1      28.652  45.500  55.303  1.00  0.00    -0.215 NA
HETATM   13  N   UNL     1      30.391  44.086  55.773  1.00  0.00    -0.155 NA
HETATM   14  C   UNL     1      30.168  42.598  53.858  1.00  0.00     0.153 C 
HETATM   15  C   UNL     1      29.678  45.156  56.154  1.00  0.00     0.151 A 
HETATM   16  C   UNL     1      29.592  42.648  52.445  1.00  0.00     0.024 C 
HETATM   17  C   UNL     1      28.118  43.064  52.470  1.00  0.00     0.029 C 
BRANCH  15  18
HETATM   18  C   UNL     1      29.991  45.930  57.394  1.00  0.00     0.051 C 
HETATM   19  C   UNL     1      30.901  45.139  58.332  1.00  0.00     0.018 C 
HETATM   20  C   UNL     1      28.711  46.353  58.116  1.00  0.00     0.018 C 
ENDBRANCH  15  18
ENDBRANCH   7   9
ENDBRANCH   1   7
BRANCH   3  21
HETATM   21  N   UNL     1      22.775  44.122  50.526  1.00  0.00    -0.271 NA
HETATM   22  H   UNL     1      23.005  43.145  50.406  1.00  0.00     0.127 HD
HETATM   23  H   UNL     1      22.022  44.348  51.161  1.00  0.00     0.127 HD
ENDBRANCH   3  21
BRANCH   5  24
HETATM   24  N   UNL     1      25.608  47.790  49.773  1.00  0.00    -0.227 N 
HETATM   25  N   UNL     1      24.656  48.657  49.329  1.00  0.00    -0.179 NA
HETATM   26  C   UNL     1      25.343  49.603  48.687  1.00  0.00     0.141 A 
HETATM   27  C   UNL     1      26.728  49.376  48.706  1.00  0.00     0.040 A 
HETATM   28  C   UNL     1      26.873  48.206  49.411  1.00  0.00     0.122 A 
ENDBRANCH   5  24
TORSDOF 5
ENDMDL
MODEL 4
REMARK VINA RESULT:      -8.6      1.498      2.249
REMARK  5 active torsions:
REMARK  status: ('A' for Active; 'I' for Inactive)
REMARK    1  A    between atoms: C_2  and  C_3 
REMARK    2  A    between atoms: C_7  and  N_8 
REMARK    3  A    between atoms: N_8  and  C_9 
REMARK    4  A    between atoms: C_11  and  N_12 
REMARK    5  A    between atoms: C_14  and  N_15 
ROOT
HETATM    1  C   UNL     1      25.395  46.708  52.069  1.00  0.00     0.111 A 
HETATM    2  N   UNL     1      25.390  47.521  53.138  1.00  0.00    -0.206 NA
HETATM    3  C   UNL     1      26.186  47.212  54.162  1.00  0.00     0.202 A 
HETATM    4  N   UNL     1      26.948  46.125  54.237  1.00  0.00    -0.199 NA
HETATM    5  C   UNL     1      26.921  45.304  53.165  1.00  0.00     0.156 A 
HETATM    6  C   UNL     1      26.157  45.561  52.044  1.00  0.00     0.096 A 
ENDROOT
BRANCH   1   7
HETATM    7  N   UNL     1      24.566  46.971  50.968  1.00  0.00    -0.265 NA
HETATM    8  H   UNL     1      24.003  46.145  50.761  1.00  0.00     0.130 HD
BRANCH   7   9
HETATM    9  C   UNL     1      25.228  47.433  49.742  1.00  0.00     0.133 C 
HETATM   10  C   UNL     1      24.426  48.494  49.040  1.00  0.00     0.142 A 
HETATM   11  N   UNL     1      25.010  49.581  48.462  1.00  0.00    -0.253 N 
HETATM   12  N   UNL     1      23.124  48.546  48.831  1.00  0.00    -0.215 NA
HETATM   13  N   UNL     1      24.111  50.368  47.857  1.00  0.00    -0.155 NA
HETATM   14  C   UNL     1      26.412  49.928  48.524  1.00  0.00     0.153 C 
HETATM   15  C   UNL     1      22.973  49.702  48.099  1.00  0.00     0.151 A 
HETATM   16  C   UNL     1      27.265  48.727  48.923  1.00  0.00     0.024 C 
HETATM   17  C   UNL     1      26.633  47.974  50.099  1.00  0.00     0.029 C 
BRANCH  15  18
HETATM   18  C   UNL     1      21.646  50.167  47.591  1.00  0.00     0.051 C 
HETATM   19  C   UNL     1      21.103  51.327  48.423  1.00  0.00     0.018 C 
HETATM   20  C   UNL     1      20.639  49.017  47.551  1.00  0.00     0.018 C 
ENDBRANCH  15  18
ENDBRANCH   7   9
ENDBRANCH   1   7
BRANCH   3  21
HETATM   21  N   UNL     1      26.184  48.062  55.249  1.00  0.00    -0.271 NA
HETATM   22  H   UNL     1      25.257  48.436  55.392  1.00  0.00     0.127 HD
HETATM   23  H   UNL     1      26.633  47.617  56.038  1.00  0.00     0.127 HD
ENDBRANCH   3  21
BRANCH   5  24
HETATM   24  N   UNL     1      27.704  44.114  53.211  1.00  0.00    -0.227 N 
HETATM   25  N   UNL     1      27.602  43.209  54.224  1.00  0.00    -0.179 NA
HETATM   26  C   UNL     1      28.498  42.269  53.919  1.00  0.00     0.141 A 
HETATM   27  C   UNL     1      29.180  42.536  52.723  1.00  0.00     0.040 A 
HETATM   28  C   UNL     1      28.652  43.726  52.286  1.00  0.00     0.122 A 
ENDBRANCH   5  24
TORSDOF 5
ENDMDL
MODEL 5
REMARK VINA RESULT:      -8.5      1.863      3.830
REMARK  5 active torsions:
REMARK  status: ('A' for Active; 'I' for Inactive)
REMARK    1  A    between atoms: C_2  and  C_3 
REMARK    2  A    between atoms: C_7  and  N_8 
REMARK    3  A    between atoms: N_8  and  C_9 
REMARK    4  A    between atoms: C_11  and  N_12 
REMARK    5  A    between atoms: C_14  and  N_15 
ROOT
HETATM    1  C   UNL     1      26.835  46.302  53.453  1.00  0.00     0.111 A 
HETATM    2  N   UNL     1      26.098  47.328  53.908  1.00  0.00    -0.206 NA
HETATM    3  C   UNL     1      26.407  47.840  55.101  1.00  0.00     0.202 A 
HETATM    4  N   UNL     1      27.355  47.376  55.909  1.00  0.00    -0.199 NA
HETATM    5  C   UNL     1      28.069  46.326  55.448  1.00  0.00     0.156 A 
HETATM    6  C   UNL     1      27.848  45.755  54.211  1.00  0.00     0.096 A 
ENDROOT
BRANCH   1   7
HETATM    7  N   UNL     1      26.548  45.710  52.214  1.00  0.00    -0.265 NA
HETATM    8  H   UNL     1      27.085  46.177  51.481  1.00  0.00     0.130 HD
BRANCH   7   9
HETATM    9  C   UNL     1      25.134  45.653  51.824  1.00  0.00     0.133 C 
HETATM   10  C   UNL     1      24.821  46.619  50.715  1.00  0.00     0.142 A 
HETATM   11  N   UNL     1      23.988  46.297  49.686  1.00  0.00    -0.253 N 
HETATM   12  N   UNL     1      25.222  47.867  50.565  1.00  0.00    -0.215 NA
HETATM   13  N   UNL     1      23.818  47.322  48.841  1.00  0.00    -0.155 NA
HETATM   14  C   UNL     1      23.390  45.002  49.449  1.00  0.00     0.153 C 
HETATM   15  C   UNL     1      24.582  48.264  49.413  1.00  0.00     0.151 A 
HETATM   16  C   UNL     1      23.418  44.137  50.706  1.00  0.00     0.024 C 
HETATM   17  C   UNL     1      24.788  44.209  51.388  1.00  0.00     0.029 C 
BRANCH  15  18
HETATM   18  C   UNL     1      24.708  49.644  48.855  1.00  0.00     0.051 C 
HETATM   19  C   UNL     1      23.548  49.977  47.918  1.00  0.00     0.018 C 
HETATM   20  C   UNL     1      26.047  49.828  48.139  1.00  0.00     0.018 C 
ENDBRANCH  15  18
ENDBRANCH   7   9
ENDBRANCH   1   7
BRANCH   3  21
HETATM   21  N   UNL     1      25.653  48.903  55.551  1.00  0.00    -0.271 NA
HETATM   22  H   UNL     1      25.107  49.285  54.792  1.00  0.00     0.127 HD
HETATM   23  H   UNL     1      25.160  48.646  56.395  1.00  0.00     0.127 HD
ENDBRANCH   3  21
BRANCH   5  24
HETATM   24  N   UNL     1      29.080  45.780  56.291  1.00  0.00    -0.227 N 
HETATM   25  N   UNL     1      29.190  46.107  57.609  1.00  0.00    -0.179 NA
HETATM   26  C   UNL     1      30.252  45.420  58.033  1.00  0.00     0.141 A 
HETATM   27  C   UNL     1      30.837  44.644  57.021  1.00  0.00     0.040 A 
HETATM   28  C   UNL     1      30.066  44.891  55.912  1.00  0.00     0.122 A 
ENDBRANCH   5  24
TORSDOF 5
ENDMDL
MODEL 6
REMARK VINA RESULT:      -8.4      4.247      7.708
REMARK  5 active torsions:
REMARK  status: ('A' for Active; 'I' for Inactive)
REMARK    1  A    between atoms: C_2  and  C_3 
REMARK    2  A    between atoms: C_7  and  N_8 
REMARK    3  A    between atoms: N_8  and  C_9 
REMARK    4  A    between atoms: C_11  and  N_12 
REMARK    5  A    between atoms: C_14  and  N_15 
ROOT
HETATM    1  C   UNL     1      25.905  44.499  51.018  1.00  0.00     0.111 A 
HETATM    2  N   UNL     1      24.591  44.220  51.020  1.00  0.00    -0.206 NA
HETATM    3  C   UNL     1      24.199  43.055  50.501  1.00  0.00     0.202 A 
HETATM    4  N   UNL     1      25.002  42.166  49.924  1.00  0.00    -0.199 NA
HETATM    5  C   UNL     1      26.317  42.475  49.906  1.00  0.00     0.156 A 
HETATM    6  C   UNL     1      26.820  43.638  50.452  1.00  0.00     0.096 A 
ENDROOT
BRANCH   1   7
HETATM    7  N   UNL     1      26.377  45.715  51.534  1.00  0.00    -0.265 NA
HETATM    8  H   UNL     1      27.361  45.831  51.287  1.00  0.00     0.130 HD
BRANCH   7   9
HETATM    9  C   UNL     1      26.205  45.929  52.976  1.00  0.00     0.133 C 
HETATM   10  C   UNL     1      27.379  45.409  53.761  1.00  0.00     0.142 A 
HETATM   11  N   UNL     1      27.890  46.081  54.830  1.00  0.00    -0.253 N 
HETATM   12  N   UNL     1      28.047  44.283  53.604  1.00  0.00    -0.215 NA
HETATM   13  N   UNL     1      28.900  45.413  55.403  1.00  0.00    -0.155 NA
HETATM   14  C   UNL     1      27.480  47.389  55.289  1.00  0.00     0.153 C 
HETATM   15  C   UNL     1      28.963  44.319  54.631  1.00  0.00     0.151 A 
HETATM   16  C   UNL     1      26.108  47.768  54.737  1.00  0.00     0.024 C 
HETATM   17  C   UNL     1      26.011  47.440  53.244  1.00  0.00     0.029 C 
BRANCH  15  18
HETATM   18  C   UNL     1      29.936  43.213  54.883  1.00  0.00     0.051 C 
HETATM   19  C   UNL     1      31.026  43.639  55.866  1.00  0.00     0.018 C 
HETATM   20  C   UNL     1      30.556  42.718  53.575  1.00  0.00     0.018 C 
ENDBRANCH  15  18
ENDBRANCH   7   9
ENDBRANCH   1   7
BRANCH   3  21
HETATM   21  N   UNL     1      22.850  42.772  50.521  1.00  0.00    -0.271 NA
HETATM   22  H   UNL     1      22.635  42.171  51.304  1.00  0.00     0.127 HD
HETATM   23  H   UNL     1      22.315  43.624  50.429  1.00  0.00     0.127 HD
ENDBRANCH   3  21
BRANCH   5  24
HETATM   24  N   UNL     1      27.212  41.562  49.276  1.00  0.00    -0.227 N 
HETATM   25  N   UNL     1      27.550  41.658  47.960  1.00  0.00    -0.179 NA
HETATM   26  C   UNL     1      28.372  40.627  47.754  1.00  0.00     0.141 A 
HETATM   27  C   UNL     1      28.585  39.862  48.911  1.00  0.00     0.040 A 
HETATM   28  C   UNL     1      27.831  40.484  49.876  1.00  0.00     0.122 A 
ENDBRANCH   5  24
TORSDOF 5
ENDMDL
MODEL 7
REMARK VINA RESULT:      -8.4      1.987      8.273
REMARK  5 active torsions:
REMARK  status: ('A' for Active; 'I' for Inactive)
REMARK    1  A    between atoms: C_2  and  C_3 
REMARK    2  A    between atoms: C_7  and  N_8 
REMARK    3  A    between atoms: N_8  and  C_9 
REMARK    4  A    between atoms: C_11  and  N_12 
REMARK    5  A    between atoms: C_14  and  N_15 
ROOT
HETATM    1  C   UNL     1      25.553  46.979  50.049  1.00  0.00     0.111 A 
HETATM    2  N   UNL     1      26.746  47.501  49.719  1.00  0.00    -0.206 NA
HETATM    3  C   UNL     1      26.764  48.694  49.122  1.00  0.00     0.202 A 
HETATM    4  N   UNL     1      25.687  49.388  48.771  1.00  0.00    -0.199 NA
HETATM    5  C   UNL     1      24.494  48.837  49.085  1.00  0.00     0.156 A 
HETATM    6  C   UNL     1      24.377  47.626  49.736  1.00  0.00     0.096 A 
ENDROOT
BRANCH   1   7
HETATM    7  N   UNL     1      25.469  45.721  50.662  1.00  0.00    -0.265 NA
HETATM    8  H   UNL     1      25.497  45.834  51.677  1.00  0.00     0.130 HD
BRANCH   7   9
HETATM    9  C   UNL     1      26.463  44.721  50.253  1.00  0.00     0.133 C 
HETATM   10  C   UNL     1      27.125  44.074  51.438  1.00  0.00     0.142 A 
HETATM   11  N   UNL     1      27.407  42.742  51.473  1.00  0.00    -0.253 N 
HETATM   12  N   UNL     1      27.561  44.633  52.550  1.00  0.00    -0.215 NA
HETATM   13  N   UNL     1      28.037  42.394  52.603  1.00  0.00    -0.155 NA
HETATM   14  C   UNL     1      27.033  41.766  50.475  1.00  0.00     0.153 C 
HETATM   15  C   UNL     1      28.119  43.575  53.233  1.00  0.00     0.151 A 
HETATM   16  C   UNL     1      26.675  42.434  49.150  1.00  0.00     0.024 C 
HETATM   17  C   UNL     1      25.771  43.649  49.377  1.00  0.00     0.029 C 
BRANCH  15  18
HETATM   18  C   UNL     1      28.784  43.733  54.561  1.00  0.00     0.051 C 
HETATM   19  C   UNL     1      28.807  45.195  55.006  1.00  0.00     0.018 C 
HETATM   20  C   UNL     1      30.201  43.156  54.539  1.00  0.00     0.018 C 
ENDBRANCH  15  18
ENDBRANCH   7   9
ENDBRANCH   1   7
BRANCH   3  21
HETATM   21  N   UNL     1      27.995  49.227  48.802  1.00  0.00    -0.271 NA
HETATM   22  H   UNL     1      28.057  50.178  49.136  1.00  0.00     0.127 HD
HETATM   23  H   UNL     1      28.730  48.590  49.074  1.00  0.00     0.127 HD
ENDBRANCH   3  21
BRANCH   5  24
HETATM   24  N   UNL     1      23.311  49.536  48.705  1.00  0.00    -0.227 N 
HETATM   25  N   UNL     1      22.573  49.188  47.614  1.00  0.00    -0.179 NA
HETATM   26  C   UNL     1      21.581  50.080  47.588  1.00  0.00     0.141 A 
HETATM   27  C   UNL     1      21.650  51.001  48.644  1.00  0.00     0.040 A 
HETATM   28  C   UNL     1      22.769  50.630  49.349  1.00  0.00     0.122 A 
ENDBRANCH   5  24
TORSDOF 5
ENDMDL
MODEL 8
REMARK VINA RESULT:      -8.1      3.872      6.383
REMARK  5 active torsions:
REMARK  status: ('A' for Active; 'I' for Inactive)
REMARK    1  A    between atoms: C_2  and  C_3 
REMARK    2  A    between atoms: C_7  and  N_8 
REMARK    3  A    between atoms: N_8  and  C_9 
REMARK    4  A    between atoms: C_11  and  N_12 
REMARK    5  A    between atoms: C_14  and  N_15 
ROOT
HETATM    1  C   UNL     1      26.269  45.889  54.141  1.00  0.00     0.111 A 
HETATM    2  N   UNL     1      25.782  47.098  54.467  1.00  0.00    -0.206 NA
HETATM    3  C   UNL     1      26.449  47.818  55.370  1.00  0.00     0.202 A 
HETATM    4  N   UNL     1      27.533  47.411  56.022  1.00  0.00    -0.199 NA
HETATM    5  C   UNL     1      27.994  46.182  55.703  1.00  0.00     0.156 A 
HETATM    6  C   UNL     1      27.393  45.380  54.754  1.00  0.00     0.096 A 
ENDROOT
BRANCH   1   7
HETATM    7  N   UNL     1      25.602  45.078  53.211  1.00  0.00    -0.265 NA
HETATM    8  H   UNL     1      25.728  44.096  53.463  1.00  0.00     0.130 HD
BRANCH   7   9
HETATM    9  C   UNL     1      25.954  45.270  51.799  1.00  0.00     0.133 C 
HETATM   10  C   UNL     1      26.433  43.994  51.164  1.00  0.00     0.142 A 
HETATM   11  N   UNL     1      26.081  43.638  49.896  1.00  0.00    -0.253 N 
HETATM   12  N   UNL     1      27.248  43.080  51.654  1.00  0.00    -0.215 NA
HETATM   13  N   UNL     1      26.658  42.489  49.522  1.00  0.00    -0.155 NA
HETATM   14  C   UNL     1      25.149  44.340  49.043  1.00  0.00     0.153 C 
HETATM   15  C   UNL     1      27.366  42.181  50.618  1.00  0.00     0.151 A 
HETATM   16  C   UNL     1      24.925  45.772  49.522  1.00  0.00     0.024 C 
HETATM   17  C   UNL     1      24.720  45.815  51.040  1.00  0.00     0.029 C 
BRANCH  15  18
HETATM   18  C   UNL     1      28.236  40.968  50.698  1.00  0.00     0.051 C 
HETATM   19  C   UNL     1      27.560  39.752  50.065  1.00  0.00     0.018 C 
HETATM   20  C   UNL     1      28.633  40.670  52.144  1.00  0.00     0.018 C 
ENDBRANCH  15  18
ENDBRANCH   7   9
ENDBRANCH   1   7
BRANCH   3  21
HETATM   21  N   UNL     1      25.948  49.064  55.686  1.00  0.00    -0.271 NA
HETATM   22  H   UNL     1      25.099  48.968  56.224  1.00  0.00     0.127 HD
HETATM   23  H   UNL     1      26.680  49.644  56.072  1.00  0.00     0.127 HD
ENDBRANCH   3  21
BRANCH   5  24
HETATM   24  N   UNL     1      29.141  45.695  56.395  1.00  0.00    -0.227 N 
HETATM   25  N   UNL     1      30.028  44.831  55.826  1.00  0.00    -0.179 NA
HETATM   26  C   UNL     1      30.927  44.601  56.784  1.00  0.00     0.141 A 
HETATM   27  C   UNL     1      30.651  45.302  57.968  1.00  0.00     0.040 A 
HETATM   28  C   UNL     1      29.500  45.999  57.693  1.00  0.00     0.122 A 
ENDBRANCH   5  24
TORSDOF 5
ENDMDL
MODEL 9
REMARK VINA RESULT:      -8.0      2.396      7.803
REMARK  5 active torsions:
REMARK  status: ('A' for Active; 'I' for Inactive)
REMARK    1  A    between atoms: C_2  and  C_3 
REMARK    2  A    between atoms: C_7  and  N_8 
REMARK    3  A    between atoms: N_8  and  C_9 
REMARK    4  A    between atoms: C_11  and  N_12 
REMARK    5  A    between atoms: C_14  and  N_15 
ROOT
HETATM    1  C   UNL     1      24.732  45.175  51.295  1.00  0.00     0.111 A 
HETATM    2  N   UNL     1      25.042  45.479  52.565  1.00  0.00    -0.206 NA
HETATM    3  C   UNL     1      25.455  46.720  52.829  1.00  0.00     0.202 A 
HETATM    4  N   UNL     1      25.642  47.672  51.921  1.00  0.00    -0.199 NA
HETATM    5  C   UNL     1      25.351  47.342  50.643  1.00  0.00     0.156 A 
HETATM    6  C   UNL     1      24.882  46.096  50.280  1.00  0.00     0.096 A 
ENDROOT
BRANCH   1   7
HETATM    7  N   UNL     1      24.308  43.883  50.952  1.00  0.00    -0.265 NA
HETATM    8  H   UNL     1      23.984  43.397  51.790  1.00  0.00     0.130 HD
BRANCH   7   9
HETATM    9  C   UNL     1      25.278  43.040  50.242  1.00  0.00     0.133 C 
HETATM   10  C   UNL     1      26.335  42.504  51.167  1.00  0.00     0.142 A 
HETATM   11  N   UNL     1      26.804  41.228  51.071  1.00  0.00    -0.253 N 
HETATM   12  N   UNL     1      26.984  43.127  52.132  1.00  0.00    -0.215 NA
HETATM   13  N   UNL     1      27.772  40.983  51.964  1.00  0.00    -0.155 NA
HETATM   14  C   UNL     1      26.305  40.203  50.182  1.00  0.00     0.153 C 
HETATM   15  C   UNL     1      27.858  42.166  52.589  1.00  0.00     0.151 A 
HETATM   16  C   UNL     1      25.494  40.805  49.038  1.00  0.00     0.024 C 
HETATM   17  C   UNL     1      24.527  41.873  49.556  1.00  0.00     0.029 C 
BRANCH  15  18
HETATM   18  C   UNL     1      28.844  42.427  53.681  1.00  0.00     0.051 C 
HETATM   19  C   UNL     1      28.409  43.599  54.560  1.00  0.00     0.018 C 
HETATM   20  C   UNL     1      30.243  42.672  53.113  1.00  0.00     0.018 C 
ENDBRANCH  15  18
ENDBRANCH   7   9
ENDBRANCH   1   7
BRANCH   3  21
HETATM   21  N   UNL     1      25.757  47.025  54.140  1.00  0.00    -0.271 NA
HETATM   22  H   UNL     1      26.641  46.609  54.396  1.00  0.00     0.127 HD
HETATM   23  H   UNL     1      25.646  48.017  54.300  1.00  0.00     0.127 HD
ENDBRANCH   3  21
BRANCH   5  24
HETATM   24  N   UNL     1      25.559  48.325  49.632  1.00  0.00    -0.227 N 
HETATM   25  N   UNL     1      26.802  48.722  49.242  1.00  0.00    -0.179 NA
HETATM   26  C   UNL     1      26.576  49.652  48.312  1.00  0.00     0.141 A 
HETATM   27  C   UNL     1      25.209  49.868  48.082  1.00  0.00     0.040 A 
HETATM   28  C   UNL     1      24.576  49.003  48.940  1.00  0.00     0.122 A 
ENDBRANCH   5  24
TORSDOF 5
ENDMDL
MODEL 10
REMARK VINA RESULT:      -7.9      2.747      6.033
REMARK  5 active torsions:
REMARK  status: ('A' for Active; 'I' for Inactive)
REMARK    1  A    between atoms: C_2  and  C_3 
REMARK    2  A    between atoms: C_7  and  N_8 
REMARK    3  A    between atoms: N_8  and  C_9 
REMARK    4  A    between atoms: C_11  and  N_12 
REMARK    5  A    between atoms: C_14  and  N_15 
ROOT
HETATM    1  C   UNL     1      22.425  47.833  47.986  1.00  0.00     0.111 A 
HETATM    2  N   UNL     1      22.987  48.990  47.603  1.00  0.00    -0.206 NA
HETATM    3  C   UNL     1      24.090  49.391  48.239  1.00  0.00     0.202 A 
HETATM    4  N   UNL     1      24.648  48.763  49.268  1.00  0.00    -0.199 NA
HETATM    5  C   UNL     1      24.054  47.614  49.659  1.00  0.00     0.156 A 
HETATM    6  C   UNL     1      22.934  47.102  49.037  1.00  0.00     0.096 A 
ENDROOT
BRANCH   1   7
HETATM    7  N   UNL     1      21.255  47.368  47.367  1.00  0.00    -0.265 NA
HETATM    8  H   UNL     1      20.961  48.033  46.650  1.00  0.00     0.130 HD
BRANCH   7   9
HETATM    9  C   UNL     1      20.121  47.063  48.248  1.00  0.00     0.133 C 
HETATM   10  C   UNL     1      19.309  48.291  48.556  1.00  0.00     0.142 A 
HETATM   11  N   UNL     1      17.947  48.266  48.608  1.00  0.00    -0.253 N 
HETATM   12  N   UNL     1      19.725  49.507  48.852  1.00  0.00    -0.215 NA
HETATM   13  N   UNL     1      17.438  49.458  48.943  1.00  0.00    -0.155 NA
HETATM   14  C   UNL     1      17.104  47.138  48.282  1.00  0.00     0.153 C 
HETATM   15  C   UNL     1      18.553  50.188  49.090  1.00  0.00     0.151 A 
HETATM   16  C   UNL     1      17.892  45.830  48.300  1.00  0.00     0.024 C 
HETATM   17  C   UNL     1      19.232  45.990  47.575  1.00  0.00     0.029 C 
BRANCH  15  18
HETATM   18  C   UNL     1      18.524  51.625  49.502  1.00  0.00     0.051 C 
HETATM   19  C   UNL     1      17.107  52.080  49.847  1.00  0.00     0.018 C 
HETATM   20  C   UNL     1      19.128  52.520  48.420  1.00  0.00     0.018 C 
ENDBRANCH  15  18
ENDBRANCH   7   9
ENDBRANCH   1   7
BRANCH   3  21
HETATM   21  N   UNL     1      24.667  50.573  47.827  1.00  0.00    -0.271 NA
HETATM   22  H   UNL     1      25.434  50.815  48.440  1.00  0.00     0.127 HD
HETATM   23  H   UNL     1      24.858  50.540  46.835  1.00  0.00     0.127 HD
ENDBRANCH   3  21
BRANCH   5  24
HETATM   24  N   UNL     1      24.605  46.919  50.775  1.00  0.00    -0.227 N 
HETATM   25  N   UNL     1      25.256  47.558  51.787  1.00  0.00    -0.179 NA
HETATM   26  C   UNL     1      25.634  46.577  52.608  1.00  0.00     0.141 A 
HETATM   27  C   UNL     1      25.238  45.309  52.158  1.00  0.00     0.040 A 
HETATM   28  C   UNL     1      24.577  45.554  50.979  1.00  0.00     0.122 A 
ENDBRANCH   5  24
TORSDOF 5
ENDMDL
