MODEL 1
REMARK VINA RESULT:     -10.5      0.000      0.000
REMARK  7 active torsions:
REMARK  status: ('A' for Active; 'I' for Inactive)
REMARK    1  A    between atoms: C_7  and  C_8 
REMARK    2  A    between atoms: C_11  and  N_12 
REMARK       I    between atoms: N_12  and  C_13 
REMARK    3  A    between atoms: C_13  and  C_14 
REMARK    4  A    between atoms: C_14  and  N_15 
REMARK    5  A    between atoms: N_15  and  C_16 
REMARK    6  A    between atoms: C_17  and  O_18 
REMARK    7  A    between atoms: C_22  and  N_23 
REMARK       I    between atoms: N_23  and  C_24 
ROOT
HETATM    1  N   UNL     1      23.232  46.168  49.724  1.00  0.00    -0.326 N 
HETATM    2  C   UNL     1      22.962  45.589  48.500  1.00  0.00     0.239 C 
HETATM    3  O   UNL     1      23.632  44.702  47.972  1.00  0.00    -0.271 OA
HETATM    4  H   UNL     1      22.497  46.744  50.099  1.00  0.00     0.169 HD
ENDROOT
BRANCH   2   5
HETATM    5  C   UNL     1      21.734  46.200  47.770  1.00  0.00     0.148 C 
HETATM    6  C   UNL     1      21.040  45.206  46.846  1.00  0.00     0.036 C 
BRANCH   5   7
HETATM    7  N   UNL     1      21.960  47.519  47.125  1.00  0.00    -0.278 NA
HETATM    8  H   UNL     1      21.459  47.533  46.227  1.00  0.00     0.128 HD
BRANCH   7   9
HETATM    9  C   UNL     1      21.695  48.754  47.738  1.00  0.00     0.044 C 
HETATM   10  C   UNL     1      22.780  49.519  48.221  1.00  0.00     0.089 C 
HETATM   11  C   UNL     1      22.565  50.785  48.764  1.00  0.00     0.041 C 
HETATM   12  C   UNL     1      21.268  51.299  48.852  1.00  0.00     0.032 C 
HETATM   13  C   UNL     1      20.176  50.537  48.443  1.00  0.00     0.036 C 
HETATM   14  C   UNL     1      20.400  49.244  47.944  1.00  0.00     0.055 C 
BRANCH  10  15
HETATM   15  O   UNL     1      24.023  48.948  48.060  1.00  0.00    -0.354 OA
HETATM   16  C   UNL     1      25.127  49.831  48.231  1.00  0.00     0.210 C 
ENDBRANCH  10  15
BRANCH  13  17
HETATM   17  N   UNL     1      18.844  51.004  48.451  1.00  0.00    -0.327 N 
HETATM   18  C   UNL     1      17.931  50.909  49.489  1.00  0.00     0.218 C 
HETATM   19  C   UNL     1      16.649  51.647  49.195  1.00  0.00     0.117 C 
HETATM   20  O   UNL     1      18.101  50.361  50.571  1.00  0.00    -0.274 OA
HETATM   21  H   UNL     1      18.544  51.515  47.631  1.00  0.00     0.169 HD
ENDBRANCH  13  17
ENDBRANCH   7   9
ENDBRANCH   5   7
ENDBRANCH   2   5
BRANCH   1  22
HETATM   22  C   UNL     1      24.344  46.007  50.563  1.00  0.00     0.034 A 
HETATM   23  C   UNL     1      25.147  47.049  51.023  1.00  0.00     0.030 A 
HETATM   24  C   UNL     1      26.201  46.791  51.915  1.00  0.00     0.016 A 
HETATM   25  C   UNL     1      26.475  45.489  52.362  1.00  0.00    -0.000 A 
HETATM   26  C   UNL     1      25.665  44.451  51.878  1.00  0.00     0.016 A 
HETATM   27  C   UNL     1      24.617  44.705  50.991  1.00  0.00     0.030 A 
BRANCH  25  28
HETATM   28  C   UNL     1      27.546  45.145  53.321  1.00  0.00     0.109 A 
HETATM   29  N   UNL     1      27.866  45.913  54.345  1.00  0.00    -0.240 NA
HETATM   30  C   UNL     1      28.877  45.339  55.091  1.00  0.00     0.075 A 
HETATM   31  C   UNL     1      29.335  44.109  54.626  1.00  0.00     0.036 A 
HETATM   32  C   UNL     1      29.456  45.886  56.252  1.00  0.00     0.033 A 
HETATM   33  C   UNL     1      30.355  43.399  55.284  1.00  0.00     0.028 A 
HETATM   34  S   UNL     1      28.456  43.689  53.207  1.00  0.00    -0.067 SA
HETATM   35  C   UNL     1      30.920  43.953  56.444  1.00  0.00    -0.061 A 
HETATM   36  C   UNL     1      32.009  43.229  57.184  1.00  0.00     0.048 C 
HETATM   37  C   UNL     1      30.471  45.188  56.917  1.00  0.00     0.009 A 
ENDBRANCH  25  28
ENDBRANCH   1  22
TORSDOF 7
ENDMDL
MODEL 2
REMARK VINA RESULT:      -9.8      1.775      3.623
REMARK  7 active torsions:
REMARK  status: ('A' for Active; 'I' for Inactive)
REMARK    1  A    between atoms: C_7  and  C_8 
REMARK    2  A    between atoms: C_11  and  N_12 
REMARK       I    between atoms: N_12  and  C_13 
REMARK    3  A    between atoms: C_13  and  C_14 
REMARK    4  A    between atoms: C_14  and  N_15 
REMARK    5  A    between atoms: N_15  and  C_16 
REMARK    6  A    between atoms: C_17  and  O_18 
REMARK    7  A    between atoms: C_22  and  N_23 
REMARK       I    between atoms: N_23  and  C_24 
ROOT
HETATM    1  N   UNL     1      22.824  44.571  49.844  1.00  0.00    -0.326 N 
HETATM    2  C   UNL     1      22.819  44.728  48.472  1.00  0.00     0.239 C 
HETATM    3  O   UNL     1      23.789  44.554  47.735  1.00  0.00    -0.271 OA
HETATM    4  H   UNL     1      21.918  44.573  50.281  1.00  0.00     0.169 HD
ENDROOT
BRANCH   2   5
HETATM    5  C   UNL     1      21.462  45.222  47.898  1.00  0.00     0.148 C 
HETATM    6  C   UNL     1      21.431  45.229  46.375  1.00  0.00     0.036 C 
BRANCH   5   7
HETATM    7  N   UNL     1      20.934  46.479  48.488  1.00  0.00    -0.278 NA
HETATM    8  H   UNL     1      20.726  46.311  49.480  1.00  0.00     0.128 HD
BRANCH   7   9
HETATM    9  C   UNL     1      21.594  47.716  48.432  1.00  0.00     0.044 C 
HETATM   10  C   UNL     1      20.841  48.875  48.140  1.00  0.00     0.089 C 
HETATM   11  C   UNL     1      21.445  50.132  48.153  1.00  0.00     0.041 C 
HETATM   12  C   UNL     1      22.808  50.252  48.438  1.00  0.00     0.032 C 
HETATM   13  C   UNL     1      23.585  49.118  48.665  1.00  0.00     0.036 C 
HETATM   14  C   UNL     1      22.977  47.855  48.600  1.00  0.00     0.055 C 
BRANCH  10  15
HETATM   15  O   UNL     1      19.500  48.665  47.906  1.00  0.00    -0.354 OA
HETATM   16  C   UNL     1      19.055  48.972  46.588  1.00  0.00     0.210 C 
ENDBRANCH  10  15
BRANCH  13  17
HETATM   17  N   UNL     1      24.954  49.159  49.010  1.00  0.00    -0.327 N 
HETATM   18  C   UNL     1      25.991  49.678  48.254  1.00  0.00     0.218 C 
HETATM   19  C   UNL     1      27.301  49.683  49.003  1.00  0.00     0.117 C 
HETATM   20  O   UNL     1      25.915  50.154  47.128  1.00  0.00    -0.274 OA
HETATM   21  H   UNL     1      25.191  48.826  49.935  1.00  0.00     0.169 HD
ENDBRANCH  13  17
ENDBRANCH   7   9
ENDBRANCH   5   7
ENDBRANCH   2   5
BRANCH   1  22
HETATM   22  C   UNL     1      23.899  44.327  50.711  1.00  0.00     0.034 A 
HETATM   23  C   UNL     1      24.561  43.106  50.828  1.00  0.00     0.030 A 
HETATM   24  C   UNL     1      25.672  42.980  51.679  1.00  0.00     0.016 A 
HETATM   25  C   UNL     1      26.141  44.070  52.431  1.00  0.00    -0.000 A 
HETATM   26  C   UNL     1      25.453  45.287  52.310  1.00  0.00     0.016 A 
HETATM   27  C   UNL     1      24.350  45.414  51.466  1.00  0.00     0.030 A 
BRANCH  25  28
HETATM   28  C   UNL     1      27.318  44.021  53.323  1.00  0.00     0.109 A 
HETATM   29  N   UNL     1      27.678  45.031  54.092  1.00  0.00    -0.240 NA
HETATM   30  C   UNL     1      28.793  44.705  54.839  1.00  0.00     0.075 A 
HETATM   31  C   UNL     1      29.291  43.421  54.635  1.00  0.00     0.036 A 
HETATM   32  C   UNL     1      29.438  45.547  55.766  1.00  0.00     0.033 A 
HETATM   33  C   UNL     1      30.416  42.942  55.330  1.00  0.00     0.028 A 
HETATM   34  S   UNL     1      28.315  42.626  53.462  1.00  0.00    -0.067 SA
HETATM   35  C   UNL     1      31.047  43.790  56.254  1.00  0.00    -0.061 A 
HETATM   36  C   UNL     1      32.250  43.320  57.024  1.00  0.00     0.048 C 
HETATM   37  C   UNL     1      30.559  45.081  56.464  1.00  0.00     0.009 A 
ENDBRANCH  25  28
ENDBRANCH   1  22
TORSDOF 7
ENDMDL
MODEL 3
REMARK VINA RESULT:      -9.8      1.927      3.614
REMARK  7 active torsions:
REMARK  status: ('A' for Active; 'I' for Inactive)
REMARK    1  A    between atoms: C_7  and  C_8 
REMARK    2  A    between atoms: C_11  and  N_12 
REMARK       I    between atoms: N_12  and  C_13 
REMARK    3  A    between atoms: C_13  and  C_14 
REMARK    4  A    between atoms: C_14  and  N_15 
REMARK    5  A    between atoms: N_15  and  C_16 
REMARK    6  A    between atoms: C_17  and  O_18 
REMARK    7  A    between atoms: C_22  and  N_23 
REMARK       I    between atoms: N_23  and  C_24 
ROOT
HETATM    1  N   UNL     1      23.709  47.058  49.983  1.00  0.00    -0.326 N 
HETATM    2  C   UNL     1      23.733  48.280  49.341  1.00  0.00     0.239 C 
HETATM    3  O   UNL     1      24.690  49.053  49.324  1.00  0.00    -0.271 OA
HETATM    4  H   UNL     1      22.927  46.467  49.755  1.00  0.00     0.169 HD
ENDROOT
BRANCH   2   5
HETATM    5  C   UNL     1      22.389  48.662  48.661  1.00  0.00     0.148 C 
HETATM    6  C   UNL     1      22.407  50.062  48.060  1.00  0.00     0.036 C 
BRANCH   5   7
HETATM    7  N   UNL     1      21.165  48.398  49.461  1.00  0.00    -0.278 NA
HETATM    8  H   UNL     1      21.123  49.084  50.226  1.00  0.00     0.128 HD
BRANCH   7   9
HETATM    9  C   UNL     1      19.870  48.331  48.926  1.00  0.00     0.044 C 
HETATM   10  C   UNL     1      18.926  49.311  49.306  1.00  0.00     0.089 C 
HETATM   11  C   UNL     1      17.654  49.325  48.736  1.00  0.00     0.041 C 
HETATM   12  C   UNL     1      17.297  48.355  47.795  1.00  0.00     0.032 C 
HETATM   13  C   UNL     1      18.187  47.341  47.452  1.00  0.00     0.036 C 
HETATM   14  C   UNL     1      19.448  47.307  48.069  1.00  0.00     0.055 C 
BRANCH  10  15
HETATM   15  O   UNL     1      19.377  50.245  50.212  1.00  0.00    -0.354 OA
HETATM   16  C   UNL     1      19.044  51.597  49.912  1.00  0.00     0.210 C 
ENDBRANCH  10  15
BRANCH  13  17
HETATM   17  N   UNL     1      17.922  46.358  46.473  1.00  0.00    -0.327 N 
HETATM   18  C   UNL     1      17.983  44.983  46.631  1.00  0.00     0.218 C 
HETATM   19  C   UNL     1      17.493  44.243  45.413  1.00  0.00     0.117 C 
HETATM   20  O   UNL     1      18.326  44.373  47.637  1.00  0.00    -0.274 OA
HETATM   21  H   UNL     1      17.593  46.695  45.578  1.00  0.00     0.169 HD
ENDBRANCH  13  17
ENDBRANCH   7   9
ENDBRANCH   5   7
ENDBRANCH   2   5
BRANCH   1  22
HETATM   22  C   UNL     1      24.656  46.481  50.842  1.00  0.00     0.034 A 
HETATM   23  C   UNL     1      25.145  45.183  50.725  1.00  0.00     0.030 A 
HETATM   24  C   UNL     1      26.144  44.719  51.598  1.00  0.00     0.016 A 
HETATM   25  C   UNL     1      26.670  45.543  52.606  1.00  0.00    -0.000 A 
HETATM   26  C   UNL     1      26.155  46.844  52.717  1.00  0.00     0.016 A 
HETATM   27  C   UNL     1      25.163  47.305  51.851  1.00  0.00     0.030 A 
BRANCH  25  28
HETATM   28  C   UNL     1      27.740  45.137  53.540  1.00  0.00     0.109 A 
HETATM   29  N   UNL     1      28.055  45.831  54.617  1.00  0.00    -0.240 NA
HETATM   30  C   UNL     1      29.068  45.210  55.323  1.00  0.00     0.075 A 
HETATM   31  C   UNL     1      29.533  44.019  54.771  1.00  0.00     0.036 A 
HETATM   32  C   UNL     1      29.642  45.676  56.521  1.00  0.00     0.033 A 
HETATM   33  C   UNL     1      30.555  43.269  55.379  1.00  0.00     0.028 A 
HETATM   34  S   UNL     1      28.658  43.698  53.324  1.00  0.00    -0.067 SA
HETATM   35  C   UNL     1      31.115  43.742  56.577  1.00  0.00    -0.061 A 
HETATM   36  C   UNL     1      32.206  42.971  57.265  1.00  0.00     0.048 C 
HETATM   37  C   UNL     1      30.659  44.937  57.136  1.00  0.00     0.009 A 
ENDBRANCH  25  28
ENDBRANCH   1  22
TORSDOF 7
ENDMDL
MODEL 4
REMARK VINA RESULT:      -9.7      1.561      2.822
REMARK  7 active torsions:
REMARK  status: ('A' for Active; 'I' for Inactive)
REMARK    1  A    between atoms: C_7  and  C_8 
REMARK    2  A    between atoms: C_11  and  N_12 
REMARK       I    between atoms: N_12  and  C_13 
REMARK    3  A    between atoms: C_13  and  C_14 
REMARK    4  A    between atoms: C_14  and  N_15 
REMARK    5  A    between atoms: N_15  and  C_16 
REMARK    6  A    between atoms: C_17  and  O_18 
REMARK    7  A    between atoms: C_22  and  N_23 
REMARK       I    between atoms: N_23  and  C_24 
ROOT
HETATM    1  N   UNL     1      23.750  46.863  49.943  1.00  0.00    -0.326 N 
HETATM    2  C   UNL     1      23.735  48.099  49.327  1.00  0.00     0.239 C 
HETATM    3  O   UNL     1      24.659  48.911  49.345  1.00  0.00    -0.271 OA
HETATM    4  H   UNL     1      22.998  46.246  49.687  1.00  0.00     0.169 HD
ENDROOT
BRANCH   2   5
HETATM    5  C   UNL     1      22.389  48.440  48.630  1.00  0.00     0.148 C 
HETATM    6  C   UNL     1      22.389  49.821  47.986  1.00  0.00     0.036 C 
BRANCH   5   7
HETATM    7  N   UNL     1      21.165  48.181  49.431  1.00  0.00    -0.278 NA
HETATM    8  H   UNL     1      21.275  48.634  50.348  1.00  0.00     0.128 HD
BRANCH   7   9
HETATM    9  C   UNL     1      19.863  48.480  49.003  1.00  0.00     0.044 C 
HETATM   10  C   UNL     1      19.215  47.586  48.122  1.00  0.00     0.089 C 
HETATM   11  C   UNL     1      17.894  47.806  47.737  1.00  0.00     0.041 C 
HETATM   12  C   UNL     1      17.205  48.928  48.205  1.00  0.00     0.032 C 
HETATM   13  C   UNL     1      17.842  49.858  49.023  1.00  0.00     0.036 C 
HETATM   14  C   UNL     1      19.187  49.653  49.365  1.00  0.00     0.055 C 
BRANCH  10  15
HETATM   15  O   UNL     1      19.959  46.492  47.739  1.00  0.00    -0.354 OA
HETATM   16  C   UNL     1      19.417  45.226  48.105  1.00  0.00     0.210 C 
ENDBRANCH  10  15
BRANCH  13  17
HETATM   17  N   UNL     1      17.200  50.986  49.580  1.00  0.00    -0.327 N 
HETATM   18  C   UNL     1      17.512  52.318  49.360  1.00  0.00     0.218 C 
HETATM   19  C   UNL     1      16.521  53.254  50.006  1.00  0.00     0.117 C 
HETATM   20  O   UNL     1      18.432  52.756  48.679  1.00  0.00    -0.274 OA
HETATM   21  H   UNL     1      16.388  50.801  50.153  1.00  0.00     0.169 HD
ENDBRANCH  13  17
ENDBRANCH   7   9
ENDBRANCH   5   7
ENDBRANCH   2   5
BRANCH   1  22
HETATM   22  C   UNL     1      24.704  46.308  50.808  1.00  0.00     0.034 A 
HETATM   23  C   UNL     1      25.263  45.040  50.663  1.00  0.00     0.030 A 
HETATM   24  C   UNL     1      26.263  44.600  51.547  1.00  0.00     0.016 A 
HETATM   25  C   UNL     1      26.721  45.417  52.594  1.00  0.00    -0.000 A 
HETATM   26  C   UNL     1      26.137  46.685  52.732  1.00  0.00     0.016 A 
HETATM   27  C   UNL     1      25.144  47.124  51.855  1.00  0.00     0.030 A 
BRANCH  25  28
HETATM   28  C   UNL     1      27.787  45.036  53.543  1.00  0.00     0.109 A 
HETATM   29  N   UNL     1      28.097  45.757  54.603  1.00  0.00    -0.240 NA
HETATM   30  C   UNL     1      29.107  45.155  55.328  1.00  0.00     0.075 A 
HETATM   31  C   UNL     1      29.575  43.951  54.809  1.00  0.00     0.036 A 
HETATM   32  C   UNL     1      29.676  45.652  56.516  1.00  0.00     0.033 A 
HETATM   33  C   UNL     1      30.595  43.217  55.440  1.00  0.00     0.028 A 
HETATM   34  S   UNL     1      28.707  43.592  53.367  1.00  0.00    -0.067 SA
HETATM   35  C   UNL     1      31.150  43.721  56.628  1.00  0.00    -0.061 A 
HETATM   36  C   UNL     1      32.239  42.969  57.340  1.00  0.00     0.048 C 
HETATM   37  C   UNL     1      30.691  44.930  57.155  1.00  0.00     0.009 A 
ENDBRANCH  25  28
ENDBRANCH   1  22
TORSDOF 7
ENDMDL
MODEL 5
REMARK VINA RESULT:      -9.4      1.744      2.190
REMARK  7 active torsions:
REMARK  status: ('A' for Active; 'I' for Inactive)
REMARK    1  A    between atoms: C_7  and  C_8 
REMARK    2  A    between atoms: C_11  and  N_12 
REMARK       I    between atoms: N_12  and  C_13 
REMARK    3  A    between atoms: C_13  and  C_14 
REMARK    4  A    between atoms: C_14  and  N_15 
REMARK    5  A    between atoms: N_15  and  C_16 
REMARK    6  A    between atoms: C_17  and  O_18 
REMARK    7  A    between atoms: C_22  and  N_23 
REMARK       I    between atoms: N_23  and  C_24 
ROOT
HETATM    1  N   UNL     1      23.397  46.295  49.728  1.00  0.00    -0.326 N 
HETATM    2  C   UNL     1      23.130  47.336  48.860  1.00  0.00     0.239 C 
HETATM    3  O   UNL     1      23.894  48.270  48.618  1.00  0.00    -0.271 OA
HETATM    4  H   UNL     1      22.757  45.521  49.681  1.00  0.00     0.169 HD
ENDROOT
BRANCH   2   5
HETATM    5  C   UNL     1      21.714  47.280  48.225  1.00  0.00     0.148 C 
HETATM    6  C   UNL     1      21.397  45.925  47.604  1.00  0.00     0.036 C 
BRANCH   5   7
HETATM    7  N   UNL     1      21.363  48.415  47.333  1.00  0.00    -0.278 NA
HETATM    8  H   UNL     1      21.382  48.082  46.360  1.00  0.00     0.128 HD
BRANCH   7   9
HETATM    9  C   UNL     1      20.198  49.187  47.458  1.00  0.00     0.044 C 
HETATM   10  C   UNL     1      20.285  50.451  48.084  1.00  0.00     0.089 C 
HETATM   11  C   UNL     1      19.167  51.281  48.157  1.00  0.00     0.041 C 
HETATM   12  C   UNL     1      17.945  50.860  47.627  1.00  0.00     0.032 C 
HETATM   13  C   UNL     1      17.818  49.593  47.063  1.00  0.00     0.036 C 
HETATM   14  C   UNL     1      18.937  48.745  47.039  1.00  0.00     0.055 C 
BRANCH  10  15
HETATM   15  O   UNL     1      21.535  50.796  48.547  1.00  0.00    -0.354 OA
HETATM   16  C   UNL     1      21.672  50.842  49.963  1.00  0.00     0.210 C 
ENDBRANCH  10  15
BRANCH  13  17
HETATM   17  N   UNL     1      16.635  49.114  46.459  1.00  0.00    -0.327 N 
HETATM   18  C   UNL     1      15.475  48.708  47.099  1.00  0.00     0.218 C 
HETATM   19  C   UNL     1      14.363  48.397  46.129  1.00  0.00     0.117 C 
HETATM   20  O   UNL     1      15.285  48.645  48.308  1.00  0.00    -0.274 OA
HETATM   21  H   UNL     1      16.611  49.128  45.448  1.00  0.00     0.169 HD
ENDBRANCH  13  17
ENDBRANCH   7   9
ENDBRANCH   5   7
ENDBRANCH   2   5
BRANCH   1  22
HETATM   22  C   UNL     1      24.475  46.120  50.608  1.00  0.00     0.034 A 
HETATM   23  C   UNL     1      25.082  47.144  51.331  1.00  0.00     0.030 A 
HETATM   24  C   UNL     1      26.115  46.855  52.239  1.00  0.00     0.016 A 
HETATM   25  C   UNL     1      26.562  45.539  52.439  1.00  0.00    -0.000 A 
HETATM   26  C   UNL     1      25.948  44.523  51.692  1.00  0.00     0.016 A 
HETATM   27  C   UNL     1      24.922  44.808  50.790  1.00  0.00     0.030 A 
BRANCH  25  28
HETATM   28  C   UNL     1      27.621  45.156  53.397  1.00  0.00     0.109 A 
HETATM   29  N   UNL     1      27.904  45.862  54.475  1.00  0.00    -0.240 NA
HETATM   30  C   UNL     1      28.912  45.261  55.204  1.00  0.00     0.075 A 
HETATM   31  C   UNL     1      29.405  44.073  54.669  1.00  0.00     0.036 A 
HETATM   32  C   UNL     1      29.456  45.743  56.409  1.00  0.00     0.033 A 
HETATM   33  C   UNL     1      30.427  43.343  55.302  1.00  0.00     0.028 A 
HETATM   34  S   UNL     1      28.564  43.729  53.208  1.00  0.00    -0.067 SA
HETATM   35  C   UNL     1      30.957  43.832  56.507  1.00  0.00    -0.061 A 
HETATM   36  C   UNL     1      32.047  43.083  57.221  1.00  0.00     0.048 C 
HETATM   37  C   UNL     1      30.473  45.024  57.049  1.00  0.00     0.009 A 
ENDBRANCH  25  28
ENDBRANCH   1  22
TORSDOF 7
ENDMDL
MODEL 6
REMARK VINA RESULT:      -9.3      3.535     11.237
REMARK  7 active torsions:
REMARK  status: ('A' for Active; 'I' for Inactive)
REMARK    1  A    between atoms: C_7  and  C_8 
REMARK    2  A    between atoms: C_11  and  N_12 
REMARK       I    between atoms: N_12  and  C_13 
REMARK    3  A    between atoms: C_13  and  C_14 
REMARK    4  A    between atoms: C_14  and  N_15 
REMARK    5  A    between atoms: N_15  and  C_16 
REMARK    6  A    between atoms: C_17  and  O_18 
REMARK    7  A    between atoms: C_22  and  N_23 
REMARK       I    between atoms: N_23  and  C_24 
ROOT
HETATM    1  N   UNL     1      25.242  44.752  50.269  1.00  0.00    -0.326 N 
HETATM    2  C   UNL     1      25.088  43.628  51.057  1.00  0.00     0.239 C 
HETATM    3  O   UNL     1      24.015  43.079  51.306  1.00  0.00    -0.271 OA
HETATM    4  H   UNL     1      26.190  44.971  50.013  1.00  0.00     0.169 HD
ENDROOT
BRANCH   2   5
HETATM    5  C   UNL     1      26.411  43.114  51.688  1.00  0.00     0.148 C 
HETATM    6  C   UNL     1      26.815  41.737  51.175  1.00  0.00     0.036 C 
BRANCH   5   7
HETATM    7  N   UNL     1      26.505  43.225  53.166  1.00  0.00    -0.278 NA
HETATM    8  H   UNL     1      26.654  42.285  53.554  1.00  0.00     0.128 HD
BRANCH   7   9
HETATM    9  C   UNL     1      27.399  44.071  53.840  1.00  0.00     0.044 C 
HETATM   10  C   UNL     1      27.057  45.433  54.000  1.00  0.00     0.089 C 
HETATM   11  C   UNL     1      27.881  46.287  54.731  1.00  0.00     0.041 C 
HETATM   12  C   UNL     1      29.064  45.806  55.296  1.00  0.00     0.032 C 
HETATM   13  C   UNL     1      29.456  44.484  55.098  1.00  0.00     0.036 C 
HETATM   14  C   UNL     1      28.644  43.645  54.319  1.00  0.00     0.055 C 
BRANCH  10  15
HETATM   15  O   UNL     1      25.857  45.809  53.438  1.00  0.00    -0.354 OA
HETATM   16  C   UNL     1      25.647  47.214  53.331  1.00  0.00     0.210 C 
ENDBRANCH  10  15
BRANCH  13  17
HETATM   17  N   UNL     1      30.608  43.908  55.679  1.00  0.00    -0.327 N 
HETATM   18  C   UNL     1      31.074  44.094  56.970  1.00  0.00     0.218 C 
HETATM   19  C   UNL     1      32.251  43.207  57.288  1.00  0.00     0.117 C 
HETATM   20  O   UNL     1      30.598  44.830  57.826  1.00  0.00    -0.274 OA
HETATM   21  H   UNL     1      31.111  43.242  55.108  1.00  0.00     0.169 HD
ENDBRANCH  13  17
ENDBRANCH   7   9
ENDBRANCH   5   7
ENDBRANCH   2   5
BRANCH   1  22
HETATM   22  C   UNL     1      24.268  45.586  49.702  1.00  0.00     0.034 A 
HETATM   23  C   UNL     1      23.211  45.144  48.908  1.00  0.00     0.030 A 
HETATM   24  C   UNL     1      22.246  46.053  48.441  1.00  0.00     0.016 A 
HETATM   25  C   UNL     1      22.321  47.419  48.755  1.00  0.00    -0.000 A 
HETATM   26  C   UNL     1      23.399  47.847  49.544  1.00  0.00     0.016 A 
HETATM   27  C   UNL     1      24.358  46.946  50.008  1.00  0.00     0.030 A 
BRANCH  25  28
HETATM   28  C   UNL     1      21.329  48.428  48.326  1.00  0.00     0.109 A 
HETATM   29  N   UNL     1      21.238  49.624  48.876  1.00  0.00    -0.240 NA
HETATM   30  C   UNL     1      20.248  50.370  48.265  1.00  0.00     0.075 A 
HETATM   31  C   UNL     1      19.574  49.729  47.229  1.00  0.00     0.036 A 
HETATM   32  C   UNL     1      19.887  51.689  48.599  1.00  0.00     0.033 A 
HETATM   33  C   UNL     1      18.547  50.362  46.507  1.00  0.00     0.028 A 
HETATM   34  S   UNL     1      20.219  48.143  47.043  1.00  0.00    -0.067 SA
HETATM   35  C   UNL     1      18.201  51.680  46.847  1.00  0.00    -0.061 A 
HETATM   36  C   UNL     1      17.113  52.400  46.100  1.00  0.00     0.048 C 
HETATM   37  C   UNL     1      18.868  52.331  47.887  1.00  0.00     0.009 A 
ENDBRANCH  25  28
ENDBRANCH   1  22
TORSDOF 7
ENDMDL
MODEL 7
REMARK VINA RESULT:      -8.8      1.978      2.194
REMARK  7 active torsions:
REMARK  status: ('A' for Active; 'I' for Inactive)
REMARK    1  A    between atoms: C_7  and  C_8 
REMARK    2  A    between atoms: C_11  and  N_12 
REMARK       I    between atoms: N_12  and  C_13 
REMARK    3  A    between atoms: C_13  and  C_14 
REMARK    4  A    between atoms: C_14  and  N_15 
REMARK    5  A    between atoms: N_15  and  C_16 
REMARK    6  A    between atoms: C_17  and  O_18 
REMARK    7  A    between atoms: C_22  and  N_23 
REMARK       I    between atoms: N_23  and  C_24 
ROOT
HETATM    1  N   UNL     1      23.421  45.036  48.876  1.00  0.00    -0.326 N 
HETATM    2  C   UNL     1      22.934  44.140  47.944  1.00  0.00     0.239 C 
HETATM    3  O   UNL     1      23.331  42.985  47.797  1.00  0.00    -0.271 OA
HETATM    4  H   UNL     1      22.877  45.873  48.994  1.00  0.00     0.169 HD
ENDROOT
BRANCH   2   5
HETATM    5  C   UNL     1      21.845  44.733  47.009  1.00  0.00     0.148 C 
HETATM    6  C   UNL     1      21.517  43.823  45.831  1.00  0.00     0.036 C 
BRANCH   5   7
HETATM    7  N   UNL     1      22.047  46.147  46.601  1.00  0.00    -0.278 NA
HETATM    8  H   UNL     1      22.063  46.191  45.574  1.00  0.00     0.128 HD
BRANCH   7   9
HETATM    9  C   UNL     1      21.240  47.214  47.023  1.00  0.00     0.044 C 
HETATM   10  C   UNL     1      21.819  48.235  47.809  1.00  0.00     0.089 C 
HETATM   11  C   UNL     1      21.071  49.351  48.181  1.00  0.00     0.041 C 
HETATM   12  C   UNL     1      19.732  49.458  47.795  1.00  0.00     0.032 C 
HETATM   13  C   UNL     1      19.120  48.434  47.077  1.00  0.00     0.036 C 
HETATM   14  C   UNL     1      19.868  47.293  46.749  1.00  0.00     0.055 C 
BRANCH  10  15
HETATM   15  O   UNL     1      23.152  48.062  48.112  1.00  0.00    -0.354 OA
HETATM   16  C   UNL     1      23.602  48.730  49.286  1.00  0.00     0.210 C 
ENDBRANCH  10  15
BRANCH  13  17
HETATM   17  N   UNL     1      17.790  48.490  46.605  1.00  0.00    -0.327 N 
HETATM   18  C   UNL     1      17.360  48.946  45.370  1.00  0.00     0.218 C 
HETATM   19  C   UNL     1      15.884  48.721  45.156  1.00  0.00     0.117 C 
HETATM   20  O   UNL     1      18.053  49.428  44.481  1.00  0.00    -0.274 OA
HETATM   21  H   UNL     1      17.083  48.098  47.213  1.00  0.00     0.169 HD
ENDBRANCH  13  17
ENDBRANCH   7   9
ENDBRANCH   5   7
ENDBRANCH   2   5
BRANCH   1  22
HETATM   22  C   UNL     1      24.517  44.915  49.743  1.00  0.00     0.034 A 
HETATM   23  C   UNL     1      25.759  45.512  49.538  1.00  0.00     0.030 A 
HETATM   24  C   UNL     1      26.774  45.385  50.502  1.00  0.00     0.016 A 
HETATM   25  C   UNL     1      26.569  44.659  51.686  1.00  0.00    -0.000 A 
HETATM   26  C   UNL     1      25.316  44.055  51.868  1.00  0.00     0.016 A 
HETATM   27  C   UNL     1      24.306  44.179  50.913  1.00  0.00     0.030 A 
BRANCH  25  28
HETATM   28  C   UNL     1      27.576  44.508  52.756  1.00  0.00     0.109 A 
HETATM   29  N   UNL     1      27.752  45.403  53.709  1.00  0.00    -0.240 NA
HETATM   30  C   UNL     1      28.736  44.996  54.589  1.00  0.00     0.075 A 
HETATM   31  C   UNL     1      29.320  43.766  54.301  1.00  0.00     0.036 A 
HETATM   32  C   UNL     1      29.173  45.709  55.722  1.00  0.00     0.033 A 
HETATM   33  C   UNL     1      30.330  43.215  55.109  1.00  0.00     0.028 A 
HETATM   34  S   UNL     1      28.597  43.128  52.874  1.00  0.00    -0.067 SA
HETATM   35  C   UNL     1      30.753  43.934  56.240  1.00  0.00    -0.061 A 
HETATM   36  C   UNL     1      31.826  43.384  57.137  1.00  0.00     0.048 C 
HETATM   37  C   UNL     1      30.176  45.171  56.536  1.00  0.00     0.009 A 
ENDBRANCH  25  28
ENDBRANCH   1  22
TORSDOF 7
ENDMDL
MODEL 8
REMARK VINA RESULT:      -8.8      2.665      3.277
REMARK  7 active torsions:
REMARK  status: ('A' for Active; 'I' for Inactive)
REMARK    1  A    between atoms: C_7  and  C_8 
REMARK    2  A    between atoms: C_11  and  N_12 
REMARK       I    between atoms: N_12  and  C_13 
REMARK    3  A    between atoms: C_13  and  C_14 
REMARK    4  A    between atoms: C_14  and  N_15 
REMARK    5  A    between atoms: N_15  and  C_16 
REMARK    6  A    between atoms: C_17  and  O_18 
REMARK    7  A    between atoms: C_22  and  N_23 
REMARK       I    between atoms: N_23  and  C_24 
ROOT
HETATM    1  N   UNL     1      23.883  44.130  48.623  1.00  0.00    -0.326 N 
HETATM    2  C   UNL     1      22.871  43.208  48.444  1.00  0.00     0.239 C 
HETATM    3  O   UNL     1      22.507  42.383  49.281  1.00  0.00    -0.271 OA
HETATM    4  H   UNL     1      23.940  44.849  47.922  1.00  0.00     0.169 HD
ENDROOT
BRANCH   2   5
HETATM    5  C   UNL     1      22.232  43.240  47.028  1.00  0.00     0.148 C 
HETATM    6  C   UNL     1      23.100  43.961  46.003  1.00  0.00     0.036 C 
BRANCH   5   7
HETATM    7  N   UNL     1      20.810  43.665  46.973  1.00  0.00    -0.278 NA
HETATM    8  H   UNL     1      20.305  43.215  47.748  1.00  0.00     0.128 HD
BRANCH   7   9
HETATM    9  C   UNL     1      20.385  45.002  46.956  1.00  0.00     0.044 C 
HETATM   10  C   UNL     1      20.019  45.583  45.721  1.00  0.00     0.089 C 
HETATM   11  C   UNL     1      19.517  46.883  45.673  1.00  0.00     0.041 C 
HETATM   12  C   UNL     1      19.390  47.629  46.848  1.00  0.00     0.032 C 
HETATM   13  C   UNL     1      19.805  47.102  48.069  1.00  0.00     0.036 C 
HETATM   14  C   UNL     1      20.354  45.811  48.099  1.00  0.00     0.055 C 
BRANCH  10  15
HETATM   15  O   UNL     1      20.146  44.763  44.623  1.00  0.00    -0.354 OA
HETATM   16  C   UNL     1      19.719  45.327  43.387  1.00  0.00     0.210 C 
ENDBRANCH  10  15
BRANCH  13  17
HETATM   17  N   UNL     1      19.660  47.771  49.304  1.00  0.00    -0.327 N 
HETATM   18  C   UNL     1      18.477  48.147  49.918  1.00  0.00     0.218 C 
HETATM   19  C   UNL     1      18.699  48.710  51.299  1.00  0.00     0.117 C 
HETATM   20  O   UNL     1      17.342  48.011  49.474  1.00  0.00    -0.274 OA
HETATM   21  H   UNL     1      20.511  47.938  49.825  1.00  0.00     0.169 HD
ENDBRANCH  13  17
ENDBRANCH   7   9
ENDBRANCH   5   7
ENDBRANCH   2   5
BRANCH   1  22
HETATM   22  C   UNL     1      24.793  44.263  49.683  1.00  0.00     0.034 A 
HETATM   23  C   UNL     1      24.604  45.088  50.790  1.00  0.00     0.030 A 
HETATM   24  C   UNL     1      25.546  45.101  51.833  1.00  0.00     0.016 A 
HETATM   25  C   UNL     1      26.694  44.294  51.788  1.00  0.00    -0.000 A 
HETATM   26  C   UNL     1      26.873  43.480  50.659  1.00  0.00     0.016 A 
HETATM   27  C   UNL     1      25.939  43.466  49.622  1.00  0.00     0.030 A 
BRANCH  25  28
HETATM   28  C   UNL     1      27.711  44.232  52.858  1.00  0.00     0.109 A 
HETATM   29  N   UNL     1      27.797  45.131  53.820  1.00  0.00    -0.240 NA
HETATM   30  C   UNL     1      28.816  44.814  54.698  1.00  0.00     0.075 A 
HETATM   31  C   UNL     1      29.518  43.650  54.398  1.00  0.00     0.036 A 
HETATM   32  C   UNL     1      29.180  45.555  55.838  1.00  0.00     0.033 A 
HETATM   33  C   UNL     1      30.577  43.193  55.203  1.00  0.00     0.028 A 
HETATM   34  S   UNL     1      28.862  42.958  52.965  1.00  0.00    -0.067 SA
HETATM   35  C   UNL     1      30.927  43.939  56.341  1.00  0.00    -0.061 A 
HETATM   36  C   UNL     1      32.048  43.488  57.234  1.00  0.00     0.048 C 
HETATM   37  C   UNL     1      30.232  45.111  56.648  1.00  0.00     0.009 A 
ENDBRANCH  25  28
ENDBRANCH   1  22
TORSDOF 7
ENDMDL
MODEL 9
REMARK VINA RESULT:      -8.7      2.210      3.577
REMARK  7 active torsions:
REMARK  status: ('A' for Active; 'I' for Inactive)
REMARK    1  A    between atoms: C_7  and  C_8 
REMARK    2  A    between atoms: C_11  and  N_12 
REMARK       I    between atoms: N_12  and  C_13 
REMARK    3  A    between atoms: C_13  and  C_14 
REMARK    4  A    between atoms: C_14  and  N_15 
REMARK    5  A    between atoms: N_15  and  C_16 
REMARK    6  A    between atoms: C_17  and  O_18 
REMARK    7  A    between atoms: C_22  and  N_23 
REMARK       I    between atoms: N_23  and  C_24 
ROOT
HETATM    1  N   UNL     1      24.303  43.862  48.394  1.00  0.00    -0.326 N 
HETATM    2  C   UNL     1      22.974  43.485  48.378  1.00  0.00     0.239 C 
HETATM    3  O   UNL     1      22.342  43.074  49.350  1.00  0.00    -0.271 OA
HETATM    4  H   UNL     1      24.624  44.343  47.571  1.00  0.00     0.169 HD
ENDROOT
BRANCH   2   5
HETATM    5  C   UNL     1      22.315  43.558  46.973  1.00  0.00     0.148 C 
HETATM    6  C   UNL     1      23.099  42.794  45.912  1.00  0.00     0.036 C 
BRANCH   5   7
HETATM    7  N   UNL     1      21.911  44.914  46.521  1.00  0.00    -0.278 NA
HETATM    8  H   UNL     1      21.352  44.818  45.664  1.00  0.00     0.128 HD
BRANCH   7   9
HETATM    9  C   UNL     1      21.237  45.846  47.324  1.00  0.00     0.044 C 
HETATM   10  C   UNL     1      19.899  45.583  47.692  1.00  0.00     0.089 C 
HETATM   11  C   UNL     1      19.221  46.445  48.553  1.00  0.00     0.041 C 
HETATM   12  C   UNL     1      19.856  47.589  49.044  1.00  0.00     0.032 C 
HETATM   13  C   UNL     1      21.152  47.904  48.644  1.00  0.00     0.036 C 
HETATM   14  C   UNL     1      21.808  47.056  47.739  1.00  0.00     0.055 C 
BRANCH  10  15
HETATM   15  O   UNL     1      19.366  44.417  47.189  1.00  0.00    -0.354 OA
HETATM   16  C   UNL     1      18.242  44.580  46.330  1.00  0.00     0.210 C 
ENDBRANCH  10  15
BRANCH  13  17
HETATM   17  N   UNL     1      21.881  49.009  49.135  1.00  0.00    -0.327 N 
HETATM   18  C   UNL     1      22.656  49.892  48.402  1.00  0.00     0.218 C 
HETATM   19  C   UNL     1      23.169  51.038  49.237  1.00  0.00     0.117 C 
HETATM   20  O   UNL     1      22.888  49.844  47.199  1.00  0.00    -0.274 OA
HETATM   21  H   UNL     1      21.775  49.213  50.121  1.00  0.00     0.169 HD
ENDBRANCH  13  17
ENDBRANCH   7   9
ENDBRANCH   5   7
ENDBRANCH   2   5
BRANCH   1  22
HETATM   22  C   UNL     1      25.251  43.749  49.422  1.00  0.00     0.034 A 
HETATM   23  C   UNL     1      26.417  42.990  49.344  1.00  0.00     0.030 A 
HETATM   24  C   UNL     1      27.338  42.995  50.405  1.00  0.00     0.016 A 
HETATM   25  C   UNL     1      27.111  43.754  51.564  1.00  0.00    -0.000 A 
HETATM   26  C   UNL     1      25.925  44.501  51.629  1.00  0.00     0.016 A 
HETATM   27  C   UNL     1      25.009  44.498  50.577  1.00  0.00     0.030 A 
BRANCH  25  28
HETATM   28  C   UNL     1      28.046  43.832  52.705  1.00  0.00     0.109 A 
HETATM   29  N   UNL     1      28.030  44.819  53.581  1.00  0.00    -0.240 NA
HETATM   30  C   UNL     1      28.989  44.626  54.556  1.00  0.00     0.075 A 
HETATM   31  C   UNL     1      29.750  43.468  54.420  1.00  0.00     0.036 A 
HETATM   32  C   UNL     1      29.242  45.483  55.644  1.00  0.00     0.033 A 
HETATM   33  C   UNL     1      30.760  43.131  55.339  1.00  0.00     0.028 A 
HETATM   34  S   UNL     1      29.228  42.621  53.015  1.00  0.00    -0.067 SA
HETATM   35  C   UNL     1      30.998  43.992  56.422  1.00  0.00    -0.061 A 
HETATM   36  C   UNL     1      32.063  43.671  57.433  1.00  0.00     0.048 C 
HETATM   37  C   UNL     1      30.243  45.158  56.566  1.00  0.00     0.009 A 
ENDBRANCH  25  28
ENDBRANCH   1  22
TORSDOF 7
ENDMDL
MODEL 10
REMARK VINA RESULT:      -8.6      2.249      3.638
REMARK  7 active torsions:
REMARK  status: ('A' for Active; 'I' for Inactive)
REMARK    1  A    between atoms: C_7  and  C_8 
REMARK    2  A    between atoms: C_11  and  N_12 
REMARK       I    between atoms: N_12  and  C_13 
REMARK    3  A    between atoms: C_13  and  C_14 
REMARK    4  A    between atoms: C_14  and  N_15 
REMARK    5  A    between atoms: N_15  and  C_16 
REMARK    6  A    between atoms: C_17  and  O_18 
REMARK    7  A    between atoms: C_22  and  N_23 
REMARK       I    between atoms: N_23  and  C_24 
ROOT
HETATM    1  N   UNL     1      23.082  47.226  49.106  1.00  0.00    -0.326 N 
HETATM    2  C   UNL     1      23.154  48.473  48.519  1.00  0.00     0.239 C 
HETATM    3  O   UNL     1      24.129  49.222  48.563  1.00  0.00    -0.271 OA
HETATM    4  H   UNL     1      22.294  46.665  48.830  1.00  0.00     0.169 HD
ENDROOT
BRANCH   2   5
HETATM    5  C   UNL     1      21.841  48.917  47.817  1.00  0.00     0.148 C 
HETATM    6  C   UNL     1      21.631  50.426  47.852  1.00  0.00     0.036 C 
BRANCH   5   7
HETATM    7  N   UNL     1      20.620  48.160  48.198  1.00  0.00    -0.278 NA
HETATM    8  H   UNL     1      20.027  48.769  48.776  1.00  0.00     0.128 HD
BRANCH   7   9
HETATM    9  C   UNL     1      19.761  47.535  47.282  1.00  0.00     0.044 C 
HETATM   10  C   UNL     1      20.120  46.269  46.768  1.00  0.00     0.089 C 
HETATM   11  C   UNL     1      19.256  45.580  45.918  1.00  0.00     0.041 C 
HETATM   12  C   UNL     1      18.032  46.148  45.552  1.00  0.00     0.032 C 
HETATM   13  C   UNL     1      17.685  47.423  45.992  1.00  0.00     0.036 C 
HETATM   14  C   UNL     1      18.584  48.128  46.808  1.00  0.00     0.055 C 
BRANCH  10  15
HETATM   15  O   UNL     1      21.326  45.773  47.211  1.00  0.00    -0.354 OA
HETATM   16  C   UNL     1      21.312  44.410  47.623  1.00  0.00     0.210 C 
ENDBRANCH  10  15
BRANCH  13  17
HETATM   17  N   UNL     1      16.448  48.043  45.711  1.00  0.00    -0.327 N 
HETATM   18  C   UNL     1      15.406  48.270  46.595  1.00  0.00     0.218 C 
HETATM   19  C   UNL     1      14.298  49.088  45.980  1.00  0.00     0.117 C 
HETATM   20  O   UNL     1      15.352  47.930  47.771  1.00  0.00    -0.274 OA
HETATM   21  H   UNL     1      16.336  48.415  44.777  1.00  0.00     0.169 HD
ENDBRANCH  13  17
ENDBRANCH   7   9
ENDBRANCH   5   7
ENDBRANCH   2   5
BRANCH   1  22
HETATM   22  C   UNL     1      23.988  46.590  49.968  1.00  0.00     0.034 A 
HETATM   23  C   UNL     1      24.205  45.215  50.015  1.00  0.00     0.030 A 
HETATM   24  C   UNL     1      25.185  44.680  50.869  1.00  0.00     0.016 A 
HETATM   25  C   UNL     1      25.965  45.508  51.692  1.00  0.00    -0.000 A 
HETATM   26  C   UNL     1      25.723  46.889  51.640  1.00  0.00     0.016 A 
HETATM   27  C   UNL     1      24.750  47.422  50.793  1.00  0.00     0.030 A 
BRANCH  25  28
HETATM   28  C   UNL     1      27.032  45.023  52.591  1.00  0.00     0.109 A 
HETATM   29  N   UNL     1      27.878  44.068  52.251  1.00  0.00    -0.240 NA
HETATM   30  C   UNL     1      28.785  43.833  53.266  1.00  0.00     0.075 A 
HETATM   31  C   UNL     1      28.627  44.625  54.400  1.00  0.00     0.036 A 
HETATM   32  C   UNL     1      29.827  42.887  53.236  1.00  0.00     0.033 A 
HETATM   33  C   UNL     1      29.479  44.508  55.513  1.00  0.00     0.028 A 
HETATM   34  S   UNL     1      27.289  45.682  54.159  1.00  0.00    -0.067 SA
HETATM   35  C   UNL     1      30.517  43.563  55.468  1.00  0.00    -0.061 A 
HETATM   36  C   UNL     1      31.456  43.404  56.631  1.00  0.00     0.048 C 
HETATM   37  C   UNL     1      30.682  42.760  54.337  1.00  0.00     0.009 A 
ENDBRANCH  25  28
ENDBRANCH   1  22
TORSDOF 7
ENDMDL
