MODEL 1
REMARK VINA RESULT:      -8.4      0.000      0.000
REMARK  3 active torsions:
REMARK  status: ('A' for Active; 'I' for Inactive)
REMARK    1  A    between atoms: C_6  and  N_7 
REMARK       I    between atoms: N_7  and  C_8 
REMARK    2  A    between atoms: C_8  and  C_9 
REMARK    3  A    between atoms: C_9  and  C_10 
ROOT
HETATM    1  C   UNL     1      26.896  43.656  53.893  1.00  0.00     0.286 C 
HETATM    2  N   UNL     1      28.217  43.712  53.133  1.00  0.00    -0.056 N 
HETATM    3  H   UNL     1      28.324  44.710  52.848  1.00  0.00     0.278 HD
HETATM    4  H   UNL     1      29.012  43.511  53.750  1.00  0.00     0.278 HD
HETATM    5  C   UNL     1      28.266  42.875  51.886  1.00  0.00     0.209 C 
HETATM    6  C   UNL     1      27.050  43.212  50.985  1.00  0.00     0.115 C 
HETATM    7  N   UNL     1      25.783  43.225  51.714  1.00  0.00    -0.353 N 
HETATM    8  C   UNL     1      25.659  43.751  52.979  1.00  0.00     0.249 C 
HETATM    9  O   UNL     1      24.574  44.168  53.368  1.00  0.00    -0.271 OA
HETATM   10  C   UNL     1      28.359  41.393  52.255  1.00  0.00     0.035 C 
HETATM   11  C   UNL     1      28.313  40.513  51.010  1.00  0.00     0.002 C 
HETATM   12  C   UNL     1      27.066  40.796  50.178  1.00  0.00     0.002 C 
HETATM   13  C   UNL     1      26.977  42.269  49.780  1.00  0.00     0.027 C 
HETATM   14  H   UNL     1      24.931  43.352  51.169  1.00  0.00     0.163 HD
ENDROOT
BRANCH   1  15
HETATM   15  C   UNL     1      26.846  44.702  55.019  1.00  0.00     0.146 C 
BRANCH  15  16
HETATM   16  C   UNL     1      27.636  45.935  54.668  1.00  0.00     0.224 C 
HETATM   17  N   UNL     1      28.845  46.218  55.215  1.00  0.00    -0.327 N 
HETATM   18  H   UNL     1      29.208  47.101  54.865  1.00  0.00     0.169 HD
HETATM   19  O   UNL     1      27.194  46.685  53.784  1.00  0.00    -0.273 OA
BRANCH  17  20
HETATM   20  C   UNL     1      29.690  45.563  56.136  1.00  0.00     0.037 A 
HETATM   21  C   UNL     1      30.548  44.503  55.853  1.00  0.00     0.071 A 
HETATM   22  C   UNL     1      31.333  43.948  56.866  1.00  0.00     0.118 A 
HETATM   23  C   UNL     1      31.295  44.431  58.164  1.00  0.00     0.042 A 
HETATM   24  F   UNL     1      32.146  42.925  56.566  1.00  0.00    -0.206 F 
HETATM   25  C   UNL     1      30.454  45.495  58.461  1.00  0.00     0.005 A 
HETATM   26  C   UNL     1      29.659  46.054  57.454  1.00  0.00     0.029 A 
ENDBRANCH  17  20
ENDBRANCH  15  16
ENDBRANCH   1  15
TORSDOF 3
ENDMDL
MODEL 2
REMARK VINA RESULT:      -8.4      1.603      2.385
REMARK  3 active torsions:
REMARK  status: ('A' for Active; 'I' for Inactive)
REMARK    1  A    between atoms: C_6  and  N_7 
REMARK       I    between atoms: N_7  and  C_8 
REMARK    2  A    between atoms: C_8  and  C_9 
REMARK    3  A    between atoms: C_9  and  C_10 
ROOT
HETATM    1  C   UNL     1      27.789  42.907  52.683  1.00  0.00     0.286 C 
HETATM    2  N   UNL     1      26.547  42.167  52.197  1.00  0.00    -0.056 N 
HETATM    3  H   UNL     1      26.309  41.503  52.966  1.00  0.00     0.278 HD
HETATM    4  H   UNL     1      25.744  42.800  52.115  1.00  0.00     0.278 HD
HETATM    5  C   UNL     1      26.741  41.361  50.943  1.00  0.00     0.209 C 
HETATM    6  C   UNL     1      27.962  40.421  51.113  1.00  0.00     0.115 C 
HETATM    7  N   UNL     1      29.143  41.104  51.638  1.00  0.00    -0.353 N 
HETATM    8  C   UNL     1      29.071  42.053  52.632  1.00  0.00     0.249 C 
HETATM    9  O   UNL     1      30.038  42.258  53.356  1.00  0.00    -0.271 OA
HETATM   10  C   UNL     1      26.852  42.294  49.735  1.00  0.00     0.035 C 
HETATM   11  C   UNL     1      27.145  41.509  48.461  1.00  0.00     0.002 C 
HETATM   12  C   UNL     1      28.399  40.654  48.613  1.00  0.00     0.002 C 
HETATM   13  C   UNL     1      28.288  39.698  49.801  1.00  0.00     0.027 C 
HETATM   14  H   UNL     1      30.008  40.568  51.692  1.00  0.00     0.163 HD
ENDROOT
BRANCH   1  15
HETATM   15  C   UNL     1      27.574  43.518  54.077  1.00  0.00     0.146 C 
BRANCH  15  16
HETATM   16  C   UNL     1      27.698  45.019  54.052  1.00  0.00     0.224 C 
HETATM   17  N   UNL     1      28.493  45.708  54.909  1.00  0.00    -0.327 N 
HETATM   18  H   UNL     1      28.427  46.710  54.745  1.00  0.00     0.169 HD
HETATM   19  O   UNL     1      27.106  45.644  53.160  1.00  0.00    -0.273 OA
BRANCH  17  20
HETATM   20  C   UNL     1      29.375  45.344  55.948  1.00  0.00     0.037 A 
HETATM   21  C   UNL     1      30.405  44.410  55.860  1.00  0.00     0.071 A 
HETATM   22  C   UNL     1      31.209  44.146  56.972  1.00  0.00     0.118 A 
HETATM   23  C   UNL     1      31.019  44.801  58.179  1.00  0.00     0.042 A 
HETATM   24  F   UNL     1      32.189  43.239  56.861  1.00  0.00    -0.206 F 
HETATM   25  C   UNL     1      30.004  45.743  58.280  1.00  0.00     0.005 A 
HETATM   26  C   UNL     1      29.191  46.010  57.173  1.00  0.00     0.029 A 
ENDBRANCH  17  20
ENDBRANCH  15  16
ENDBRANCH   1  15
TORSDOF 3
ENDMDL
MODEL 3
REMARK VINA RESULT:      -8.2      2.417      3.374
REMARK  3 active torsions:
REMARK  status: ('A' for Active; 'I' for Inactive)
REMARK    1  A    between atoms: C_6  and  N_7 
REMARK       I    between atoms: N_7  and  C_8 
REMARK    2  A    between atoms: C_8  and  C_9 
REMARK    3  A    between atoms: C_9  and  C_10 
ROOT
HETATM    1  C   UNL     1      26.903  43.319  53.031  1.00  0.00     0.286 C 
HETATM    2  N   UNL     1      27.706  44.087  51.986  1.00  0.00    -0.056 N 
HETATM    3  H   UNL     1      28.349  44.698  52.534  1.00  0.00     0.278 HD
HETATM    4  H   UNL     1      28.309  43.460  51.444  1.00  0.00     0.278 HD
HETATM    5  C   UNL     1      26.890  44.976  51.089  1.00  0.00     0.209 C 
HETATM    6  C   UNL     1      25.997  45.905  51.949  1.00  0.00     0.115 C 
HETATM    7  N   UNL     1      25.268  45.191  52.997  1.00  0.00    -0.353 N 
HETATM    8  C   UNL     1      25.834  44.179  53.735  1.00  0.00     0.249 C 
HETATM    9  O   UNL     1      25.412  43.927  54.858  1.00  0.00    -0.271 OA
HETATM   10  C   UNL     1      26.103  44.126  50.089  1.00  0.00     0.035 C 
HETATM   11  C   UNL     1      25.192  44.995  49.228  1.00  0.00     0.002 C 
HETATM   12  C   UNL     1      24.259  45.841  50.087  1.00  0.00     0.002 C 
HETATM   13  C   UNL     1      25.036  46.715  51.071  1.00  0.00     0.027 C 
HETATM   14  H   UNL     1      24.594  45.725  53.544  1.00  0.00     0.163 HD
ENDROOT
BRANCH   1  15
HETATM   15  C   UNL     1      27.820  42.616  54.045  1.00  0.00     0.146 C 
BRANCH  15  16
HETATM   16  C   UNL     1      29.241  42.544  53.553  1.00  0.00     0.224 C 
HETATM   17  N   UNL     1      30.284  43.090  54.229  1.00  0.00    -0.327 N 
HETATM   18  H   UNL     1      31.158  42.951  53.727  1.00  0.00     0.169 HD
HETATM   19  O   UNL     1      29.476  41.893  52.525  1.00  0.00    -0.273 OA
BRANCH  17  20
HETATM   20  C   UNL     1      30.415  43.783  55.450  1.00  0.00     0.037 A 
HETATM   21  C   UNL     1      29.720  44.932  55.821  1.00  0.00     0.071 A 
HETATM   22  C   UNL     1      29.949  45.517  57.069  1.00  0.00     0.118 A 
HETATM   23  C   UNL     1      30.853  44.978  57.971  1.00  0.00     0.042 A 
HETATM   24  F   UNL     1      29.270  46.624  57.398  1.00  0.00    -0.206 F 
HETATM   25  C   UNL     1      31.546  43.826  57.622  1.00  0.00     0.005 A 
HETATM   26  C   UNL     1      31.328  43.237  56.371  1.00  0.00     0.029 A 
ENDBRANCH  17  20
ENDBRANCH  15  16
ENDBRANCH   1  15
TORSDOF 3
ENDMDL
MODEL 4
REMARK VINA RESULT:      -7.9      7.478      9.349
REMARK  3 active torsions:
REMARK  status: ('A' for Active; 'I' for Inactive)
REMARK    1  A    between atoms: C_6  and  N_7 
REMARK       I    between atoms: N_7  and  C_8 
REMARK    2  A    between atoms: C_8  and  C_9 
REMARK    3  A    between atoms: C_9  and  C_10 
ROOT
HETATM    1  C   UNL     1      21.911  48.788  48.946  1.00  0.00     0.286 C 
HETATM    2  N   UNL     1      21.923  49.990  49.885  1.00  0.00    -0.056 N 
HETATM    3  H   UNL     1      22.041  49.586  50.840  1.00  0.00     0.278 HD
HETATM    4  H   UNL     1      22.747  50.580  49.727  1.00  0.00     0.278 HD
HETATM    5  C   UNL     1      20.659  50.803  49.889  1.00  0.00     0.209 C 
HETATM    6  C   UNL     1      19.443  49.873  50.133  1.00  0.00     0.115 C 
HETATM    7  N   UNL     1      19.451  48.684  49.283  1.00  0.00    -0.353 N 
HETATM    8  C   UNL     1      20.599  47.981  49.001  1.00  0.00     0.249 C 
HETATM    9  O   UNL     1      20.535  46.793  48.705  1.00  0.00    -0.271 OA
HETATM   10  C   UNL     1      20.556  51.615  48.596  1.00  0.00     0.035 C 
HETATM   11  C   UNL     1      19.237  52.377  48.530  1.00  0.00     0.002 C 
HETATM   12  C   UNL     1      18.046  51.436  48.686  1.00  0.00     0.002 C 
HETATM   13  C   UNL     1      18.124  50.640  49.988  1.00  0.00     0.027 C 
HETATM   14  H   UNL     1      18.636  48.072  49.326  1.00  0.00     0.163 HD
ENDROOT
BRANCH   1  15
HETATM   15  C   UNL     1      23.137  47.887  49.163  1.00  0.00     0.146 C 
BRANCH  15  16
HETATM   16  C   UNL     1      24.423  48.664  49.064  1.00  0.00     0.224 C 
HETATM   17  N   UNL     1      25.593  48.225  49.592  1.00  0.00    -0.327 N 
HETATM   18  H   UNL     1      26.340  48.897  49.436  1.00  0.00     0.169 HD
HETATM   19  O   UNL     1      24.427  49.715  48.405  1.00  0.00    -0.273 OA
BRANCH  17  20
HETATM   20  C   UNL     1      25.988  47.062  50.286  1.00  0.00     0.037 A 
HETATM   21  C   UNL     1      26.542  45.916  49.720  1.00  0.00     0.071 A 
HETATM   22  C   UNL     1      26.891  44.833  50.530  1.00  0.00     0.118 A 
HETATM   23  C   UNL     1      26.711  44.864  51.904  1.00  0.00     0.042 A 
HETATM   24  F   UNL     1      27.416  43.741  49.958  1.00  0.00    -0.206 F 
HETATM   25  C   UNL     1      26.172  46.003  52.486  1.00  0.00     0.005 A 
HETATM   26  C   UNL     1      25.814  47.091  51.682  1.00  0.00     0.029 A 
ENDBRANCH  17  20
ENDBRANCH  15  16
ENDBRANCH   1  15
TORSDOF 3
ENDMDL
MODEL 5
REMARK VINA RESULT:      -7.8      2.762      4.144
REMARK  3 active torsions:
REMARK  status: ('A' for Active; 'I' for Inactive)
REMARK    1  A    between atoms: C_6  and  N_7 
REMARK       I    between atoms: N_7  and  C_8 
REMARK    2  A    between atoms: C_8  and  C_9 
REMARK    3  A    between atoms: C_9  and  C_10 
ROOT
HETATM    1  C   UNL     1      27.329  44.265  50.884  1.00  0.00     0.286 C 
HETATM    2  N   UNL     1      26.290  44.702  51.911  1.00  0.00    -0.056 N 
HETATM    3  H   UNL     1      25.972  43.820  52.368  1.00  0.00     0.278 HD
HETATM    4  H   UNL     1      26.716  45.265  52.656  1.00  0.00     0.278 HD
HETATM    5  C   UNL     1      25.078  45.380  51.337  1.00  0.00     0.209 C 
HETATM    6  C   UNL     1      24.468  44.495  50.219  1.00  0.00     0.115 C 
HETATM    7  N   UNL     1      25.463  44.016  49.261  1.00  0.00    -0.353 N 
HETATM    8  C   UNL     1      26.715  43.591  49.641  1.00  0.00     0.249 C 
HETATM    9  O   UNL     1      27.331  42.793  48.943  1.00  0.00    -0.271 OA
HETATM   10  C   UNL     1      25.441  46.791  50.869  1.00  0.00     0.035 C 
HETATM   11  C   UNL     1      24.252  47.467  50.194  1.00  0.00     0.002 C 
HETATM   12  C   UNL     1      23.717  46.625  49.040  1.00  0.00     0.002 C 
HETATM   13  C   UNL     1      23.325  45.222  49.502  1.00  0.00     0.027 C 
HETATM   14  H   UNL     1      25.122  43.502  48.450  1.00  0.00     0.163 HD
ENDROOT
BRANCH   1  15
HETATM   15  C   UNL     1      28.420  43.388  51.519  1.00  0.00     0.146 C 
BRANCH  15  16
HETATM   16  C   UNL     1      27.852  42.462  52.561  1.00  0.00     0.224 C 
HETATM   17  N   UNL     1      28.148  42.566  53.882  1.00  0.00    -0.327 N 
HETATM   18  H   UNL     1      27.681  41.840  54.420  1.00  0.00     0.169 HD
HETATM   19  O   UNL     1      27.019  41.615  52.205  1.00  0.00    -0.273 OA
BRANCH  17  20
HETATM   20  C   UNL     1      28.938  43.446  54.650  1.00  0.00     0.037 A 
HETATM   21  C   UNL     1      30.181  43.159  55.209  1.00  0.00     0.071 A 
HETATM   22  C   UNL     1      30.858  44.131  55.950  1.00  0.00     0.118 A 
HETATM   23  C   UNL     1      30.329  45.398  56.144  1.00  0.00     0.042 A 
HETATM   24  F   UNL     1      32.049  43.826  56.481  1.00  0.00    -0.206 F 
HETATM   25  C   UNL     1      29.096  45.705  55.583  1.00  0.00     0.005 A 
HETATM   26  C   UNL     1      28.408  44.735  54.844  1.00  0.00     0.029 A 
ENDBRANCH  17  20
ENDBRANCH  15  16
ENDBRANCH   1  15
TORSDOF 3
ENDMDL
MODEL 6
REMARK VINA RESULT:      -7.8     14.248     15.918
REMARK  3 active torsions:
REMARK  status: ('A' for Active; 'I' for Inactive)
REMARK    1  A    between atoms: C_6  and  N_7 
REMARK       I    between atoms: N_7  and  C_8 
REMARK    2  A    between atoms: C_8  and  C_9 
REMARK    3  A    between atoms: C_9  and  C_10 
ROOT
HETATM    1  C   UNL     1      31.571  48.638  40.670  1.00  0.00     0.286 C 
HETATM    2  N   UNL     1      31.623  50.096  40.225  1.00  0.00    -0.056 N 
HETATM    3  H   UNL     1      32.223  50.098  39.372  1.00  0.00     0.278 HD
HETATM    4  H   UNL     1      30.701  50.427  39.920  1.00  0.00     0.278 HD
HETATM    5  C   UNL     1      32.242  51.039  41.219  1.00  0.00     0.209 C 
HETATM    6  C   UNL     1      33.631  50.501  41.650  1.00  0.00     0.115 C 
HETATM    7  N   UNL     1      33.609  49.086  42.019  1.00  0.00    -0.353 N 
HETATM    8  C   UNL     1      32.878  48.150  41.326  1.00  0.00     0.249 C 
HETATM    9  O   UNL     1      33.217  46.972  41.340  1.00  0.00    -0.271 OA
HETATM   10  C   UNL     1      31.285  51.265  42.391  1.00  0.00     0.035 C 
HETATM   11  C   UNL     1      31.926  52.142  43.461  1.00  0.00     0.002 C 
HETATM   12  C   UNL     1      33.251  51.555  43.938  1.00  0.00     0.002 C 
HETATM   13  C   UNL     1      34.226  51.351  42.778  1.00  0.00     0.027 C 
HETATM   14  H   UNL     1      34.468  48.689  42.397  1.00  0.00     0.163 HD
ENDROOT
BRANCH   1  15
HETATM   15  C   UNL     1      31.136  47.712  39.523  1.00  0.00     0.146 C 
BRANCH  15  16
HETATM   16  C   UNL     1      29.803  47.069  39.801  1.00  0.00     0.224 C 
HETATM   17  N   UNL     1      28.672  47.784  40.024  1.00  0.00    -0.327 N 
HETATM   18  H   UNL     1      27.882  47.171  40.210  1.00  0.00     0.169 HD
HETATM   19  O   UNL     1      29.723  45.833  39.748  1.00  0.00    -0.273 OA
BRANCH  17  20
HETATM   20  C   UNL     1      28.361  49.160  40.046  1.00  0.00     0.037 A 
HETATM   21  C   UNL     1      28.280  50.001  38.939  1.00  0.00     0.071 A 
HETATM   22  C   UNL     1      27.960  51.351  39.106  1.00  0.00     0.118 A 
HETATM   23  C   UNL     1      27.705  51.889  40.358  1.00  0.00     0.042 A 
HETATM   24  F   UNL     1      27.894  52.139  38.024  1.00  0.00    -0.206 F 
HETATM   25  C   UNL     1      27.770  51.061  41.471  1.00  0.00     0.005 A 
HETATM   26  C   UNL     1      28.096  49.709  41.314  1.00  0.00     0.029 A 
ENDBRANCH  17  20
ENDBRANCH  15  16
ENDBRANCH   1  15
TORSDOF 3
ENDMDL
MODEL 7
REMARK VINA RESULT:      -7.6      3.880      6.878
REMARK  3 active torsions:
REMARK  status: ('A' for Active; 'I' for Inactive)
REMARK    1  A    between atoms: C_6  and  N_7 
REMARK       I    between atoms: N_7  and  C_8 
REMARK    2  A    between atoms: C_8  and  C_9 
REMARK    3  A    between atoms: C_9  and  C_10 
ROOT
HETATM    1  C   UNL     1      26.690  45.612  53.551  1.00  0.00     0.286 C 
HETATM    2  N   UNL     1      26.655  44.365  54.429  1.00  0.00    -0.056 N 
HETATM    3  H   UNL     1      25.946  44.572  55.165  1.00  0.00     0.278 HD
HETATM    4  H   UNL     1      26.295  43.555  53.913  1.00  0.00     0.278 HD
HETATM    5  C   UNL     1      27.950  44.043  55.122  1.00  0.00     0.209 C 
HETATM    6  C   UNL     1      28.455  45.292  55.888  1.00  0.00     0.115 C 
HETATM    7  N   UNL     1      28.434  46.509  55.078  1.00  0.00    -0.353 N 
HETATM    8  C   UNL     1      27.408  46.806  54.211  1.00  0.00     0.249 C 
HETATM    9  O   UNL     1      27.172  47.972  53.915  1.00  0.00    -0.271 OA
HETATM   10  C   UNL     1      28.961  43.497  54.111  1.00  0.00     0.035 C 
HETATM   11  C   UNL     1      30.315  43.251  54.768  1.00  0.00     0.002 C 
HETATM   12  C   UNL     1      30.840  44.513  55.445  1.00  0.00     0.002 C 
HETATM   13  C   UNL     1      29.849  45.052  56.477  1.00  0.00     0.027 C 
HETATM   14  H   UNL     1      28.835  47.351  55.489  1.00  0.00     0.163 HD
ENDROOT
BRANCH   1  15
HETATM   15  C   UNL     1      25.285  46.000  53.063  1.00  0.00     0.146 C 
BRANCH  15  16
HETATM   16  C   UNL     1      24.867  45.184  51.868  1.00  0.00     0.224 C 
HETATM   17  N   UNL     1      24.910  45.660  50.598  1.00  0.00    -0.327 N 
HETATM   18  H   UNL     1      24.572  44.967  49.935  1.00  0.00     0.169 HD
HETATM   19  O   UNL     1      24.542  44.001  52.047  1.00  0.00    -0.273 OA
BRANCH  17  20
HETATM   20  C   UNL     1      25.321  46.876  50.012  1.00  0.00     0.037 A 
HETATM   21  C   UNL     1      26.636  47.285  49.805  1.00  0.00     0.071 A 
HETATM   22  C   UNL     1      26.900  48.521  49.210  1.00  0.00     0.118 A 
HETATM   23  C   UNL     1      25.880  49.365  48.801  1.00  0.00     0.042 A 
HETATM   24  F   UNL     1      28.175  48.891  49.028  1.00  0.00    -0.206 F 
HETATM   25  C   UNL     1      24.562  48.967  48.989  1.00  0.00     0.005 A 
HETATM   26  C   UNL     1      24.288  47.734  49.590  1.00  0.00     0.029 A 
ENDBRANCH  17  20
ENDBRANCH  15  16
ENDBRANCH   1  15
TORSDOF 3
ENDMDL
MODEL 8
REMARK VINA RESULT:      -7.5     14.641     16.911
REMARK  3 active torsions:
REMARK  status: ('A' for Active; 'I' for Inactive)
REMARK    1  A    between atoms: C_6  and  N_7 
REMARK       I    between atoms: N_7  and  C_8 
REMARK    2  A    between atoms: C_8  and  C_9 
REMARK    3  A    between atoms: C_9  and  C_10 
ROOT
HETATM    1  C   UNL     1      33.337  50.256  41.901  1.00  0.00     0.286 C 
HETATM    2  N   UNL     1      34.702  49.600  41.718  1.00  0.00    -0.056 N 
HETATM    3  H   UNL     1      34.797  48.943  42.522  1.00  0.00     0.278 HD
HETATM    4  H   UNL     1      34.726  49.017  40.875  1.00  0.00     0.278 HD
HETATM    5  C   UNL     1      35.870  50.546  41.764  1.00  0.00     0.209 C 
HETATM    6  C   UNL     1      35.793  51.404  43.052  1.00  0.00     0.115 C 
HETATM    7  N   UNL     1      34.472  51.989  43.275  1.00  0.00    -0.353 N 
HETATM    8  C   UNL     1      33.306  51.299  43.035  1.00  0.00     0.249 C 
HETATM    9  O   UNL     1      32.280  51.598  43.637  1.00  0.00    -0.271 OA
HETATM   10  C   UNL     1      35.920  51.376  40.479  1.00  0.00     0.035 C 
HETATM   11  C   UNL     1      37.038  52.412  40.539  1.00  0.00     0.002 C 
HETATM   12  C   UNL     1      36.900  53.305  41.767  1.00  0.00     0.002 C 
HETATM   13  C   UNL     1      36.877  52.488  43.059  1.00  0.00     0.027 C 
HETATM   14  H   UNL     1      34.372  52.637  44.055  1.00  0.00     0.163 HD
ENDROOT
BRANCH   1  15
HETATM   15  C   UNL     1      32.224  49.209  42.067  1.00  0.00     0.146 C 
BRANCH  15  16
HETATM   16  C   UNL     1      32.275  48.166  40.982  1.00  0.00     0.224 C 
HETATM   17  N   UNL     1      31.697  48.337  39.766  1.00  0.00    -0.327 N 
HETATM   18  H   UNL     1      31.826  47.516  39.181  1.00  0.00     0.169 HD
HETATM   19  O   UNL     1      32.939  47.138  41.184  1.00  0.00    -0.273 OA
BRANCH  17  20
HETATM   20  C   UNL     1      30.981  49.386  39.152  1.00  0.00     0.037 A 
HETATM   21  C   UNL     1      29.594  49.498  39.074  1.00  0.00     0.071 A 
HETATM   22  C   UNL     1      29.014  50.596  38.435  1.00  0.00     0.118 A 
HETATM   23  C   UNL     1      29.786  51.602  37.874  1.00  0.00     0.042 A 
HETATM   24  F   UNL     1      27.679  50.675  38.369  1.00  0.00    -0.206 F 
HETATM   25  C   UNL     1      31.169  51.512  37.953  1.00  0.00     0.005 A 
HETATM   26  C   UNL     1      31.759  50.412  38.587  1.00  0.00     0.029 A 
ENDBRANCH  17  20
ENDBRANCH  15  16
ENDBRANCH   1  15
TORSDOF 3
ENDMDL
MODEL 9
REMARK VINA RESULT:      -7.4     13.891     15.441
REMARK  3 active torsions:
REMARK  status: ('A' for Active; 'I' for Inactive)
REMARK    1  A    between atoms: C_6  and  N_7 
REMARK       I    between atoms: N_7  and  C_8 
REMARK    2  A    between atoms: C_8  and  C_9 
REMARK    3  A    between atoms: C_9  and  C_10 
ROOT
HETATM    1  C   UNL     1      31.421  49.514  41.764  1.00  0.00     0.286 C 
HETATM    2  N   UNL     1      30.008  49.029  42.069  1.00  0.00    -0.056 N 
HETATM    3  H   UNL     1      30.107  48.420  42.911  1.00  0.00     0.278 HD
HETATM    4  H   UNL     1      29.400  49.805  42.355  1.00  0.00     0.278 HD
HETATM    5  C   UNL     1      29.373  48.205  40.984  1.00  0.00     0.209 C 
HETATM    6  C   UNL     1      30.324  47.047  40.587  1.00  0.00     0.115 C 
HETATM    7  N   UNL     1      31.698  47.488  40.352  1.00  0.00    -0.353 N 
HETATM    8  C   UNL     1      32.320  48.429  41.139  1.00  0.00     0.249 C 
HETATM    9  O   UNL     1      33.542  48.442  41.231  1.00  0.00    -0.271 OA
HETATM   10  C   UNL     1      28.981  49.103  39.809  1.00  0.00     0.035 C 
HETATM   11  C   UNL     1      28.422  48.280  38.653  1.00  0.00     0.002 C 
HETATM   12  C   UNL     1      29.405  47.199  38.216  1.00  0.00     0.002 C 
HETATM   13  C   UNL     1      29.782  46.279  39.377  1.00  0.00     0.027 C 
HETATM   14  H   UNL     1      32.358  46.795  40.002  1.00  0.00     0.163 HD
ENDROOT
BRANCH   1  15
HETATM   15  C   UNL     1      32.081  50.150  42.998  1.00  0.00     0.146 C 
BRANCH  15  16
HETATM   16  C   UNL     1      32.724  51.471  42.667  1.00  0.00     0.224 C 
HETATM   17  N   UNL     1      32.129  52.405  41.884  1.00  0.00    -0.327 N 
HETATM   18  H   UNL     1      32.729  53.218  41.764  1.00  0.00     0.169 HD
HETATM   19  O   UNL     1      33.812  51.745  43.195  1.00  0.00    -0.273 OA
BRANCH  17  20
HETATM   20  C   UNL     1      30.886  52.494  41.223  1.00  0.00     0.037 A 
HETATM   21  C   UNL     1      29.641  52.640  41.831  1.00  0.00     0.071 A 
HETATM   22  C   UNL     1      28.484  52.717  41.052  1.00  0.00     0.118 A 
HETATM   23  C   UNL     1      28.535  52.662  39.668  1.00  0.00     0.042 A 
HETATM   24  F   UNL     1      27.300  52.851  41.664  1.00  0.00    -0.206 F 
HETATM   25  C   UNL     1      29.769  52.529  39.044  1.00  0.00     0.005 A 
HETATM   26  C   UNL     1      30.932  52.445  39.818  1.00  0.00     0.029 A 
ENDBRANCH  17  20
ENDBRANCH  15  16
ENDBRANCH   1  15
TORSDOF 3
ENDMDL
MODEL 10
REMARK VINA RESULT:      -7.3     13.584     16.111
REMARK  3 active torsions:
REMARK  status: ('A' for Active; 'I' for Inactive)
REMARK    1  A    between atoms: C_6  and  N_7 
REMARK       I    between atoms: N_7  and  C_8 
REMARK    2  A    between atoms: C_8  and  C_9 
REMARK    3  A    between atoms: C_9  and  C_10 
ROOT
HETATM    1  C   UNL     1      38.467  46.292  64.695  1.00  0.00     0.286 C 
HETATM    2  N   UNL     1      37.604  47.418  64.134  1.00  0.00    -0.056 N 
HETATM    3  H   UNL     1      37.902  47.518  63.139  1.00  0.00     0.278 HD
HETATM    4  H   UNL     1      36.614  47.150  64.104  1.00  0.00     0.278 HD
HETATM    5  C   UNL     1      37.791  48.752  64.801  1.00  0.00     0.209 C 
HETATM    6  C   UNL     1      39.297  49.115  64.823  1.00  0.00     0.115 C 
HETATM    7  N   UNL     1      40.144  48.023  65.299  1.00  0.00    -0.353 N 
HETATM    8  C   UNL     1      39.928  46.710  64.951  1.00  0.00     0.249 C 
HETATM    9  O   UNL     1      40.858  45.911  64.959  1.00  0.00    -0.271 OA
HETATM   10  C   UNL     1      37.147  48.736  66.189  1.00  0.00     0.035 C 
HETATM   11  C   UNL     1      37.404  50.045  66.928  1.00  0.00     0.002 C 
HETATM   12  C   UNL     1      38.897  50.347  67.017  1.00  0.00     0.002 C 
HETATM   13  C   UNL     1      39.546  50.392  65.633  1.00  0.00     0.027 C 
HETATM   14  H   UNL     1      41.136  48.220  65.424  1.00  0.00     0.163 HD
ENDROOT
BRANCH   1  15
HETATM   15  C   UNL     1      38.386  45.029  63.823  1.00  0.00     0.146 C 
BRANCH  15  16
HETATM   16  C   UNL     1      37.036  44.370  63.923  1.00  0.00     0.224 C 
HETATM   17  N   UNL     1      36.869  43.023  63.909  1.00  0.00    -0.327 N 
HETATM   18  H   UNL     1      35.885  42.775  63.968  1.00  0.00     0.169 HD
HETATM   19  O   UNL     1      36.041  45.089  64.101  1.00  0.00    -0.273 OA
BRANCH  17  20
HETATM   20  C   UNL     1      37.746  41.920  63.839  1.00  0.00     0.037 A 
HETATM   21  C   UNL     1      38.020  41.023  64.869  1.00  0.00     0.071 A 
HETATM   22  C   UNL     1      38.913  39.969  64.661  1.00  0.00     0.118 A 
HETATM   23  C   UNL     1      39.539  39.776  63.440  1.00  0.00     0.042 A 
HETATM   24  F   UNL     1      39.162  39.124  65.671  1.00  0.00    -0.206 F 
HETATM   25  C   UNL     1      39.268  40.654  62.399  1.00  0.00     0.005 A 
HETATM   26  C   UNL     1      38.380  41.716  62.600  1.00  0.00     0.029 A 
ENDBRANCH  17  20
ENDBRANCH  15  16
ENDBRANCH   1  15
TORSDOF 3
ENDMDL
