MODEL 1
REMARK VINA RESULT:      -9.0      0.000      0.000
REMARK  2 active torsions:
REMARK  status: ('A' for Active; 'I' for Inactive)
REMARK    1  A    between atoms: C_9  and  O_10 
REMARK    2  A    between atoms: C_9  and  C_11 
ROOT
HETATM    1  C   UNL     1      27.618  49.179  49.105  1.00  0.00     0.048 C 
HETATM    2  C   UNL     1      26.587  48.160  49.499  1.00  0.00    -0.061 A 
HETATM    3  C   UNL     1      26.976  46.929  50.045  1.00  0.00     0.020 A 
HETATM    4  C   UNL     1      25.990  46.024  50.417  1.00  0.00     0.018 A 
HETATM    5  C   UNL     1      24.643  46.335  50.227  1.00  0.00     0.045 A 
HETATM    6  N   UNL     1      23.837  45.290  50.647  1.00  0.00    -0.323 N 
HETATM    7  C   UNL     1      24.595  44.227  51.143  1.00  0.00     0.266 A 
HETATM    8  O   UNL     1      24.118  43.180  51.555  1.00  0.00    -0.269 OA
HETATM    9  C   UNL     1      26.113  44.634  51.009  1.00  0.00     0.198 A 
HETATM   10  C   UNL     1      24.228  47.532  49.683  1.00  0.00     0.031 A 
HETATM   11  C   UNL     1      25.216  48.450  49.319  1.00  0.00     0.009 A 
HETATM   12  H   UNL     1      22.829  45.267  50.618  1.00  0.00     0.169 HD
ENDROOT
BRANCH   9  13
HETATM   13  O   UNL     1      26.804  43.783  50.106  1.00  0.00    -0.371 OA
HETATM   14  H   UNL     1      27.746  43.850  50.331  1.00  0.00     0.212 HD
ENDBRANCH   9  13
BRANCH   9  15
HETATM   15  C   UNL     1      26.796  44.804  52.344  1.00  0.00     0.018 A 
HETATM   16  C   UNL     1      27.979  44.124  52.810  1.00  0.00     0.002 A 
HETATM   17  C   UNL     1      28.269  44.599  54.091  1.00  0.00     0.043 A 
HETATM   18  C   UNL     1      28.839  43.149  52.259  1.00  0.00     0.014 A 
HETATM   19  C   UNL     1      29.363  44.150  54.842  1.00  0.00     0.030 A 
HETATM   20  N   UNL     1      27.306  45.525  54.405  1.00  0.00    -0.365 N 
HETATM   21  C   UNL     1      30.194  43.184  54.269  1.00  0.00     0.002 A 
HETATM   22  C   UNL     1      29.938  42.689  52.995  1.00  0.00     0.001 A 
HETATM   23  H   UNL     1      27.261  46.030  55.280  1.00  0.00     0.165 HD
HETATM   24  C   UNL     1      26.424  45.664  53.370  1.00  0.00     0.100 A 
ENDBRANCH   9  15
TORSDOF 2
ENDMDL
MODEL 2
REMARK VINA RESULT:      -8.5      1.280      2.286
REMARK  2 active torsions:
REMARK  status: ('A' for Active; 'I' for Inactive)
REMARK    1  A    between atoms: C_9  and  O_10 
REMARK    2  A    between atoms: C_9  and  C_11 
ROOT
HETATM    1  C   UNL     1      27.556  49.420  48.911  1.00  0.00     0.048 C 
HETATM    2  C   UNL     1      26.516  48.402  49.280  1.00  0.00    -0.061 A 
HETATM    3  C   UNL     1      26.888  47.091  49.614  1.00  0.00     0.020 A 
HETATM    4  C   UNL     1      25.896  46.187  49.971  1.00  0.00     0.018 A 
HETATM    5  C   UNL     1      24.557  46.579  49.975  1.00  0.00     0.045 A 
HETATM    6  N   UNL     1      23.741  45.521  50.342  1.00  0.00    -0.323 N 
HETATM    7  C   UNL     1      24.485  44.369  50.607  1.00  0.00     0.266 A 
HETATM    8  O   UNL     1      23.994  43.297  50.928  1.00  0.00    -0.269 OA
HETATM    9  C   UNL     1      26.001  44.725  50.358  1.00  0.00     0.198 A 
HETATM   10  C   UNL     1      24.156  47.855  49.643  1.00  0.00     0.031 A 
HETATM   11  C   UNL     1      25.152  48.771  49.294  1.00  0.00     0.009 A 
HETATM   12  H   UNL     1      22.736  45.546  50.423  1.00  0.00     0.169 HD
ENDROOT
BRANCH   9  13
HETATM   13  O   UNL     1      26.544  43.977  49.280  1.00  0.00    -0.371 OA
HETATM   14  H   UNL     1      25.832  43.400  48.960  1.00  0.00     0.212 HD
ENDBRANCH   9  13
BRANCH   9  15
HETATM   15  C   UNL     1      26.829  44.682  51.620  1.00  0.00     0.018 A 
HETATM   16  C   UNL     1      26.745  45.577  52.747  1.00  0.00     0.002 A 
HETATM   17  C   UNL     1      27.680  45.158  53.696  1.00  0.00     0.043 A 
HETATM   18  C   UNL     1      25.956  46.708  53.054  1.00  0.00     0.014 A 
HETATM   19  C   UNL     1      27.865  45.807  54.924  1.00  0.00     0.030 A 
HETATM   20  N   UNL     1      28.316  44.058  53.177  1.00  0.00    -0.365 N 
HETATM   21  C   UNL     1      27.069  46.923  55.197  1.00  0.00     0.002 A 
HETATM   22  C   UNL     1      26.126  47.369  54.276  1.00  0.00     0.001 A 
HETATM   23  H   UNL     1      29.050  43.547  53.648  1.00  0.00     0.165 HD
HETATM   24  C   UNL     1      27.813  43.757  51.942  1.00  0.00     0.100 A 
ENDBRANCH   9  15
TORSDOF 2
ENDMDL
MODEL 3
REMARK VINA RESULT:      -8.4      2.338      3.641
REMARK  2 active torsions:
REMARK  status: ('A' for Active; 'I' for Inactive)
REMARK    1  A    between atoms: C_9  and  O_10 
REMARK    2  A    between atoms: C_9  and  C_11 
ROOT
HETATM    1  C   UNL     1      25.853  46.221  49.572  1.00  0.00     0.048 C 
HETATM    2  C   UNL     1      26.111  44.934  50.301  1.00  0.00    -0.061 A 
HETATM    3  C   UNL     1      27.253  44.785  51.101  1.00  0.00     0.020 A 
HETATM    4  C   UNL     1      27.442  43.586  51.777  1.00  0.00     0.018 A 
HETATM    5  C   UNL     1      26.518  42.550  51.640  1.00  0.00     0.045 A 
HETATM    6  N   UNL     1      26.909  41.446  52.381  1.00  0.00    -0.323 N 
HETATM    7  C   UNL     1      28.109  41.683  53.055  1.00  0.00     0.266 A 
HETATM    8  O   UNL     1      28.673  40.858  53.758  1.00  0.00    -0.269 OA
HETATM    9  C   UNL     1      28.573  43.144  52.684  1.00  0.00     0.198 A 
HETATM   10  C   UNL     1      25.391  42.660  50.854  1.00  0.00     0.031 A 
HETATM   11  C   UNL     1      25.191  43.868  50.182  1.00  0.00     0.009 A 
HETATM   12  H   UNL     1      26.413  40.571  52.451  1.00  0.00     0.169 HD
ENDROOT
BRANCH   9  13
HETATM   13  O   UNL     1      29.797  43.137  51.964  1.00  0.00    -0.371 OA
HETATM   14  H   UNL     1      29.598  43.486  51.080  1.00  0.00     0.212 HD
ENDBRANCH   9  13
BRANCH   9  15
HETATM   15  C   UNL     1      28.556  44.083  53.866  1.00  0.00     0.018 A 
HETATM   16  C   UNL     1      29.492  44.120  54.962  1.00  0.00     0.002 A 
HETATM   17  C   UNL     1      29.109  45.155  55.817  1.00  0.00     0.043 A 
HETATM   18  C   UNL     1      30.639  43.370  55.307  1.00  0.00     0.014 A 
HETATM   19  C   UNL     1      29.806  45.473  56.990  1.00  0.00     0.030 A 
HETATM   20  N   UNL     1      27.984  45.728  55.278  1.00  0.00    -0.365 N 
HETATM   21  C   UNL     1      30.935  44.713  57.304  1.00  0.00     0.002 A 
HETATM   22  C   UNL     1      31.348  43.675  56.475  1.00  0.00     0.001 A 
HETATM   23  H   UNL     1      27.482  46.502  55.692  1.00  0.00     0.165 HD
HETATM   24  C   UNL     1      27.647  45.104  54.110  1.00  0.00     0.100 A 
ENDBRANCH   9  15
TORSDOF 2
ENDMDL
MODEL 4
REMARK VINA RESULT:      -8.3     11.413     13.385
REMARK  2 active torsions:
REMARK  status: ('A' for Active; 'I' for Inactive)
REMARK    1  A    between atoms: C_9  and  O_10 
REMARK    2  A    between atoms: C_9  and  C_11 
ROOT
HETATM    1  C   UNL     1      33.306  51.706  43.714  1.00  0.00     0.048 C 
HETATM    2  C   UNL     1      32.804  50.603  42.827  1.00  0.00    -0.061 A 
HETATM    3  C   UNL     1      31.428  50.352  42.711  1.00  0.00     0.020 A 
HETATM    4  C   UNL     1      31.005  49.337  41.862  1.00  0.00     0.018 A 
HETATM    5  C   UNL     1      31.938  48.575  41.160  1.00  0.00     0.045 A 
HETATM    6  N   UNL     1      31.303  47.611  40.393  1.00  0.00    -0.323 N 
HETATM    7  C   UNL     1      29.915  47.679  40.536  1.00  0.00     0.266 A 
HETATM    8  O   UNL     1      29.133  46.922  39.979  1.00  0.00    -0.269 OA
HETATM    9  C   UNL     1      29.606  48.841  41.556  1.00  0.00     0.198 A 
HETATM   10  C   UNL     1      33.297  48.787  41.260  1.00  0.00     0.031 A 
HETATM   11  C   UNL     1      33.727  49.815  42.103  1.00  0.00     0.009 A 
HETATM   12  H   UNL     1      31.753  46.936  39.794  1.00  0.00     0.169 HD
ENDROOT
BRANCH   9  13
HETATM   13  O   UNL     1      28.997  48.348  42.741  1.00  0.00    -0.371 OA
HETATM   14  H   UNL     1      28.694  49.125  43.237  1.00  0.00     0.212 HD
ENDBRANCH   9  13
BRANCH   9  15
HETATM   15  C   UNL     1      28.877  50.001  40.922  1.00  0.00     0.018 A 
HETATM   16  C   UNL     1      29.279  50.750  39.758  1.00  0.00     0.002 A 
HETATM   17  C   UNL     1      28.302  51.718  39.514  1.00  0.00     0.043 A 
HETATM   18  C   UNL     1      30.385  50.694  38.880  1.00  0.00     0.014 A 
HETATM   19  C   UNL     1      28.376  52.625  38.449  1.00  0.00     0.030 A 
HETATM   20  N   UNL     1      27.344  51.577  40.486  1.00  0.00    -0.365 N 
HETATM   21  C   UNL     1      29.483  52.544  37.600  1.00  0.00     0.002 A 
HETATM   22  C   UNL     1      30.475  51.592  37.811  1.00  0.00     0.001 A 
HETATM   23  H   UNL     1      26.517  52.153  40.561  1.00  0.00     0.165 HD
HETATM   24  C   UNL     1      27.669  50.551  41.329  1.00  0.00     0.100 A 
ENDBRANCH   9  15
TORSDOF 2
ENDMDL
MODEL 5
REMARK VINA RESULT:      -8.2      2.029      6.026
REMARK  2 active torsions:
REMARK  status: ('A' for Active; 'I' for Inactive)
REMARK    1  A    between atoms: C_9  and  O_10 
REMARK    2  A    between atoms: C_9  and  C_11 
ROOT
HETATM    1  C   UNL     1      26.274  48.238  55.388  1.00  0.00     0.048 C 
HETATM    2  C   UNL     1      26.489  47.149  54.377  1.00  0.00    -0.061 A 
HETATM    3  C   UNL     1      25.809  47.171  53.150  1.00  0.00     0.020 A 
HETATM    4  C   UNL     1      26.054  46.156  52.233  1.00  0.00     0.018 A 
HETATM    5  C   UNL     1      26.946  45.130  52.545  1.00  0.00     0.045 A 
HETATM    6  N   UNL     1      27.026  44.220  51.502  1.00  0.00    -0.323 N 
HETATM    7  C   UNL     1      26.198  44.588  50.439  1.00  0.00     0.266 A 
HETATM    8  O   UNL     1      26.075  43.938  49.412  1.00  0.00    -0.269 OA
HETATM    9  C   UNL     1      25.462  45.918  50.859  1.00  0.00     0.198 A 
HETATM   10  C   UNL     1      27.623  45.072  53.744  1.00  0.00     0.031 A 
HETATM   11  C   UNL     1      27.388  46.097  54.665  1.00  0.00     0.009 A 
HETATM   12  H   UNL     1      27.600  43.392  51.479  1.00  0.00     0.169 HD
ENDROOT
BRANCH   9  13
HETATM   13  O   UNL     1      24.059  45.728  50.963  1.00  0.00    -0.371 OA
HETATM   14  H   UNL     1      23.760  45.402  50.099  1.00  0.00     0.212 HD
ENDBRANCH   9  13
BRANCH   9  15
HETATM   15  C   UNL     1      25.865  47.103  50.016  1.00  0.00     0.018 A 
HETATM   16  C   UNL     1      25.000  48.127  49.482  1.00  0.00     0.002 A 
HETATM   17  C   UNL     1      25.795  49.036  48.781  1.00  0.00     0.043 A 
HETATM   18  C   UNL     1      23.610  48.370  49.534  1.00  0.00     0.014 A 
HETATM   19  C   UNL     1      25.275  50.163  48.133  1.00  0.00     0.030 A 
HETATM   20  N   UNL     1      27.091  48.592  48.871  1.00  0.00    -0.365 N 
HETATM   21  C   UNL     1      23.896  50.375  48.202  1.00  0.00     0.002 A 
HETATM   22  C   UNL     1      23.072  49.492  48.893  1.00  0.00     0.001 A 
HETATM   23  H   UNL     1      27.884  49.054  48.449  1.00  0.00     0.165 HD
HETATM   24  C   UNL     1      27.149  47.444  49.612  1.00  0.00     0.100 A 
ENDBRANCH   9  15
TORSDOF 2
ENDMDL
MODEL 6
REMARK VINA RESULT:      -7.9      1.901      5.674
REMARK  2 active torsions:
REMARK  status: ('A' for Active; 'I' for Inactive)
REMARK    1  A    between atoms: C_9  and  O_10 
REMARK    2  A    between atoms: C_9  and  C_11 
ROOT
HETATM    1  C   UNL     1      30.230  45.908  57.298  1.00  0.00     0.048 C 
HETATM    2  C   UNL     1      29.848  44.989  56.173  1.00  0.00    -0.061 A 
HETATM    3  C   UNL     1      28.520  44.922  55.727  1.00  0.00     0.020 A 
HETATM    4  C   UNL     1      28.215  44.076  54.668  1.00  0.00     0.018 A 
HETATM    5  C   UNL     1      29.213  43.298  54.080  1.00  0.00     0.045 A 
HETATM    6  N   UNL     1      28.688  42.519  53.062  1.00  0.00    -0.323 N 
HETATM    7  C   UNL     1      27.316  42.735  52.909  1.00  0.00     0.266 A 
HETATM    8  O   UNL     1      26.619  42.151  52.092  1.00  0.00    -0.269 OA
HETATM    9  C   UNL     1      26.886  43.792  53.997  1.00  0.00     0.198 A 
HETATM   10  C   UNL     1      30.525  43.333  54.501  1.00  0.00     0.031 A 
HETATM   11  C   UNL     1      30.839  44.191  55.558  1.00  0.00     0.009 A 
HETATM   12  H   UNL     1      29.201  41.873  52.483  1.00  0.00     0.169 HD
ENDROOT
BRANCH   9  13
HETATM   13  O   UNL     1      25.979  43.236  54.937  1.00  0.00    -0.371 OA
HETATM   14  H   UNL     1      25.682  42.390  54.565  1.00  0.00     0.212 HD
ENDBRANCH   9  13
BRANCH   9  15
HETATM   15  C   UNL     1      26.430  45.100  53.396  1.00  0.00     0.018 A 
HETATM   16  C   UNL     1      26.570  45.524  52.025  1.00  0.00     0.002 A 
HETATM   17  C   UNL     1      25.992  46.790  51.908  1.00  0.00     0.043 A 
HETATM   18  C   UNL     1      27.134  44.947  50.866  1.00  0.00     0.014 A 
HETATM   19  C   UNL     1      25.952  47.502  50.703  1.00  0.00     0.030 A 
HETATM   20  N   UNL     1      25.522  47.135  53.150  1.00  0.00    -0.365 N 
HETATM   21  C   UNL     1      26.518  46.904  49.574  1.00  0.00     0.002 A 
HETATM   22  C   UNL     1      27.102  45.644  49.652  1.00  0.00     0.001 A 
HETATM   23  H   UNL     1      25.058  48.008  53.365  1.00  0.00     0.165 HD
HETATM   24  C   UNL     1      25.768  46.133  54.047  1.00  0.00     0.100 A 
ENDBRANCH   9  15
TORSDOF 2
ENDMDL
MODEL 7
REMARK VINA RESULT:      -7.8      6.673      9.109
REMARK  2 active torsions:
REMARK  status: ('A' for Active; 'I' for Inactive)
REMARK    1  A    between atoms: C_9  and  O_10 
REMARK    2  A    between atoms: C_9  and  C_11 
ROOT
HETATM    1  C   UNL     1      18.250  50.783  44.519  1.00  0.00     0.048 C 
HETATM    2  C   UNL     1      18.223  50.819  46.020  1.00  0.00    -0.061 A 
HETATM    3  C   UNL     1      18.560  49.679  46.766  1.00  0.00     0.020 A 
HETATM    4  C   UNL     1      18.545  49.762  48.153  1.00  0.00     0.018 A 
HETATM    5  C   UNL     1      18.181  50.953  48.781  1.00  0.00     0.045 A 
HETATM    6  N   UNL     1      18.215  50.809  50.158  1.00  0.00    -0.323 N 
HETATM    7  C   UNL     1      18.607  49.520  50.527  1.00  0.00     0.266 A 
HETATM    8  O   UNL     1      18.694  49.136  51.684  1.00  0.00    -0.269 OA
HETATM    9  C   UNL     1      18.843  48.705  49.197  1.00  0.00     0.198 A 
HETATM   10  C   UNL     1      17.835  52.088  48.078  1.00  0.00     0.031 A 
HETATM   11  C   UNL     1      17.860  52.013  46.683  1.00  0.00     0.009 A 
HETATM   12  H   UNL     1      17.998  51.522  50.837  1.00  0.00     0.169 HD
ENDROOT
BRANCH   9  13
HETATM   13  O   UNL     1      17.923  47.630  49.073  1.00  0.00    -0.371 OA
HETATM   14  H   UNL     1      17.061  47.970  49.361  1.00  0.00     0.212 HD
ENDBRANCH   9  13
BRANCH   9  15
HETATM   15  C   UNL     1      20.286  48.311  48.998  1.00  0.00     0.018 A 
HETATM   16  C   UNL     1      21.417  49.193  48.853  1.00  0.00     0.002 A 
HETATM   17  C   UNL     1      22.560  48.403  48.710  1.00  0.00     0.043 A 
HETATM   18  C   UNL     1      21.580  50.596  48.833  1.00  0.00     0.014 A 
HETATM   19  C   UNL     1      23.844  48.940  48.549  1.00  0.00     0.030 A 
HETATM   20  N   UNL     1      22.153  47.093  48.759  1.00  0.00    -0.365 N 
HETATM   21  C   UNL     1      23.970  50.331  48.533  1.00  0.00     0.002 A 
HETATM   22  C   UNL     1      22.855  51.151  48.674  1.00  0.00     0.001 A 
HETATM   23  H   UNL     1      22.772  46.299  48.675  1.00  0.00     0.165 HD
HETATM   24  C   UNL     1      20.800  47.022  48.938  1.00  0.00     0.100 A 
ENDBRANCH   9  15
TORSDOF 2
ENDMDL
MODEL 8
REMARK VINA RESULT:      -7.7     12.535     13.951
REMARK  2 active torsions:
REMARK  status: ('A' for Active; 'I' for Inactive)
REMARK    1  A    between atoms: C_9  and  O_10 
REMARK    2  A    between atoms: C_9  and  C_11 
ROOT
HETATM    1  C   UNL     1      32.815  47.932  41.465  1.00  0.00     0.048 C 
HETATM    2  C   UNL     1      32.460  49.391  41.476  1.00  0.00    -0.061 A 
HETATM    3  C   UNL     1      31.494  49.896  40.593  1.00  0.00     0.020 A 
HETATM    4  C   UNL     1      31.179  51.248  40.652  1.00  0.00     0.018 A 
HETATM    5  C   UNL     1      31.832  52.082  41.560  1.00  0.00     0.045 A 
HETATM    6  N   UNL     1      31.380  53.386  41.436  1.00  0.00    -0.323 N 
HETATM    7  C   UNL     1      30.402  53.496  40.445  1.00  0.00     0.266 A 
HETATM    8  O   UNL     1      29.863  54.546  40.130  1.00  0.00    -0.269 OA
HETATM    9  C   UNL     1      30.203  52.060  39.824  1.00  0.00     0.198 A 
HETATM   10  C   UNL     1      32.793  51.620  42.434  1.00  0.00     0.031 A 
HETATM   11  C   UNL     1      33.105  50.259  42.387  1.00  0.00     0.009 A 
HETATM   12  H   UNL     1      31.692  54.177  41.978  1.00  0.00     0.169 HD
ENDROOT
BRANCH   9  13
HETATM   13  O   UNL     1      30.582  52.024  38.456  1.00  0.00    -0.371 OA
HETATM   14  H   UNL     1      31.535  51.838  38.440  1.00  0.00     0.212 HD
ENDBRANCH   9  13
BRANCH   9  15
HETATM   15  C   UNL     1      28.835  51.485  40.102  1.00  0.00     0.018 A 
HETATM   16  C   UNL     1      28.259  50.293  39.529  1.00  0.00     0.002 A 
HETATM   17  C   UNL     1      26.987  50.126  40.081  1.00  0.00     0.043 A 
HETATM   18  C   UNL     1      28.703  49.333  38.593  1.00  0.00     0.014 A 
HETATM   19  C   UNL     1      26.144  49.059  39.744  1.00  0.00     0.030 A 
HETATM   20  N   UNL     1      26.784  51.169  40.950  1.00  0.00    -0.365 N 
HETATM   21  C   UNL     1      26.612  48.128  38.814  1.00  0.00     0.002 A 
HETATM   22  C   UNL     1      27.874  48.261  38.245  1.00  0.00     0.001 A 
HETATM   23  H   UNL     1      25.940  51.308  41.489  1.00  0.00     0.165 HD
HETATM   24  C   UNL     1      27.881  51.984  40.979  1.00  0.00     0.100 A 
ENDBRANCH   9  15
TORSDOF 2
ENDMDL
MODEL 9
REMARK VINA RESULT:      -7.7     11.882     13.623
REMARK  2 active torsions:
REMARK  status: ('A' for Active; 'I' for Inactive)
REMARK    1  A    between atoms: C_9  and  O_10 
REMARK    2  A    between atoms: C_9  and  C_11 
ROOT
HETATM    1  C   UNL     1      36.174  53.003  44.188  1.00  0.00     0.048 C 
HETATM    2  C   UNL     1      35.628  51.932  43.288  1.00  0.00    -0.061 A 
HETATM    3  C   UNL     1      34.262  51.611  43.311  1.00  0.00     0.020 A 
HETATM    4  C   UNL     1      33.794  50.629  42.446  1.00  0.00     0.018 A 
HETATM    5  C   UNL     1      34.677  49.968  41.592  1.00  0.00     0.045 A 
HETATM    6  N   UNL     1      34.005  49.021  40.835  1.00  0.00    -0.323 N 
HETATM    7  C   UNL     1      32.642  48.999  41.137  1.00  0.00     0.266 A 
HETATM    8  O   UNL     1      31.839  48.236  40.621  1.00  0.00    -0.269 OA
HETATM    9  C   UNL     1      32.396  50.074  42.265  1.00  0.00     0.198 A 
HETATM   10  C   UNL     1      36.025  50.252  41.552  1.00  0.00     0.031 A 
HETATM   11  C   UNL     1      36.498  51.247  42.411  1.00  0.00     0.009 A 
HETATM   12  H   UNL     1      34.416  48.412  40.143  1.00  0.00     0.169 HD
ENDROOT
BRANCH   9  13
HETATM   13  O   UNL     1      31.954  49.472  43.473  1.00  0.00    -0.371 OA
HETATM   14  H   UNL     1      31.954  50.172  44.145  1.00  0.00     0.212 HD
ENDBRANCH   9  13
BRANCH   9  15
HETATM   15  C   UNL     1      31.541  51.228  41.800  1.00  0.00     0.018 A 
HETATM   16  C   UNL     1      30.114  51.226  41.593  1.00  0.00     0.002 A 
HETATM   17  C   UNL     1      29.741  52.507  41.181  1.00  0.00     0.043 A 
HETATM   18  C   UNL     1      29.098  50.253  41.723  1.00  0.00     0.014 A 
HETATM   19  C   UNL     1      28.416  52.860  40.893  1.00  0.00     0.030 A 
HETATM   20  N   UNL     1      30.885  53.263  41.129  1.00  0.00    -0.365 N 
HETATM   21  C   UNL     1      27.435  51.874  41.030  1.00  0.00     0.002 A 
HETATM   22  C   UNL     1      27.769  50.588  41.440  1.00  0.00     0.001 A 
HETATM   23  H   UNL     1      30.915  54.236  40.853  1.00  0.00     0.165 HD
HETATM   24  C   UNL     1      31.966  52.516  41.503  1.00  0.00     0.100 A 
ENDBRANCH   9  15
TORSDOF 2
ENDMDL
MODEL 10
REMARK VINA RESULT:      -7.7     11.954     13.327
REMARK  2 active torsions:
REMARK  status: ('A' for Active; 'I' for Inactive)
REMARK    1  A    between atoms: C_9  and  O_10 
REMARK    2  A    between atoms: C_9  and  C_11 
ROOT
HETATM    1  C   UNL     1      28.340  47.160  40.435  1.00  0.00     0.048 C 
HETATM    2  C   UNL     1      28.354  48.599  40.004  1.00  0.00    -0.061 A 
HETATM    3  C   UNL     1      28.995  49.570  40.787  1.00  0.00     0.020 A 
HETATM    4  C   UNL     1      29.005  50.886  40.341  1.00  0.00     0.018 A 
HETATM    5  C   UNL     1      28.368  51.227  39.147  1.00  0.00     0.045 A 
HETATM    6  N   UNL     1      28.483  52.586  38.904  1.00  0.00    -0.323 N 
HETATM    7  C   UNL     1      29.204  53.227  39.915  1.00  0.00     0.266 A 
HETATM    8  O   UNL     1      29.423  54.428  39.942  1.00  0.00    -0.269 OA
HETATM    9  C   UNL     1      29.597  52.128  40.976  1.00  0.00     0.198 A 
HETATM   10  C   UNL     1      27.720  50.299  38.360  1.00  0.00     0.031 A 
HETATM   11  C   UNL     1      27.719  48.972  38.799  1.00  0.00     0.009 A 
HETATM   12  H   UNL     1      28.112  53.081  38.108  1.00  0.00     0.169 HD
ENDROOT
BRANCH   9  13
HETATM   13  O   UNL     1      28.980  52.370  42.232  1.00  0.00    -0.371 OA
HETATM   14  H   UNL     1      28.051  52.109  42.137  1.00  0.00     0.212 HD
ENDBRANCH   9  13
BRANCH   9  15
HETATM   15  C   UNL     1      31.086  51.892  41.053  1.00  0.00     0.018 A 
HETATM   16  C   UNL     1      31.907  51.888  42.239  1.00  0.00     0.002 A 
HETATM   17  C   UNL     1      33.219  51.611  41.849  1.00  0.00     0.043 A 
HETATM   18  C   UNL     1      31.656  52.091  43.614  1.00  0.00     0.014 A 
HETATM   19  C   UNL     1      34.282  51.529  42.757  1.00  0.00     0.030 A 
HETATM   20  N   UNL     1      33.211  51.457  40.486  1.00  0.00    -0.365 N 
HETATM   21  C   UNL     1      34.002  51.734  44.110  1.00  0.00     0.002 A 
HETATM   22  C   UNL     1      32.707  52.012  44.535  1.00  0.00     0.001 A 
HETATM   23  H   UNL     1      34.029  51.254  39.928  1.00  0.00     0.165 HD
HETATM   24  C   UNL     1      31.944  51.614  39.997  1.00  0.00     0.100 A 
ENDBRANCH   9  15
TORSDOF 2
ENDMDL
