MODEL 1
REMARK VINA RESULT:      -8.8      0.000      0.000
REMARK  9 active torsions:
REMARK  status: ('A' for Active; 'I' for Inactive)
REMARK    1  A    between atoms: C_4  and  N_5 
REMARK    2  A    between atoms: C_6  and  S_7 
REMARK    3  A    between atoms: S_7  and  C_8 
REMARK    4  A    between atoms: C_8  and  C_9 
REMARK       I    between atoms: C_9  and  N_10 
REMARK    5  A    between atoms: N_10  and  C_11 
REMARK    6  A    between atoms: C_12  and  C_13 
REMARK       I    between atoms: C_13  and  N_14 
REMARK    7  A    between atoms: N_14  and  C_15 
REMARK    8  A    between atoms: C_26  and  C_27 
REMARK    9  A    between atoms: C_27  and  N_28 
ROOT
HETATM    1  S   UNL     1      25.976  47.529  50.543  1.00  0.00    -0.080 SA
ENDROOT
BRANCH   1   2
HETATM    2  C   UNL     1      26.132  46.911  52.149  1.00  0.00     0.196 C 
HETATM    3  N   UNL     1      26.316  45.584  52.504  1.00  0.00    -0.274 N 
HETATM    4  C   UNL     1      26.563  45.653  53.868  1.00  0.00     0.161 C 
HETATM    5  N   UNL     1      26.281  46.856  54.318  1.00  0.00    -0.132 NA
HETATM    6  N   UNL     1      26.000  47.636  53.238  1.00  0.00    -0.122 NA
BRANCH   3   7
HETATM    7  C   UNL     1      26.252  44.392  51.735  1.00  0.00     0.043 A 
HETATM    8  C   UNL     1      27.367  43.889  51.063  1.00  0.00     0.030 A 
HETATM    9  C   UNL     1      27.251  42.721  50.302  1.00  0.00     0.002 A 
HETATM   10  C   UNL     1      26.026  42.061  50.203  1.00  0.00     0.000 A 
HETATM   11  C   UNL     1      24.910  42.563  50.867  1.00  0.00     0.002 A 
HETATM   12  C   UNL     1      25.019  43.723  51.634  1.00  0.00     0.030 A 
ENDBRANCH   3   7
BRANCH   4  13
HETATM   13  C   UNL     1      27.261  44.613  54.665  1.00  0.00     0.315 C 
BRANCH  13  14
HETATM   14  N   UNL     1      28.763  44.745  54.534  1.00  0.00    -0.064 N 
HETATM   15  H   UNL     1      28.908  45.417  53.761  1.00  0.00     0.280 HD
HETATM   16  C   UNL     1      29.479  43.474  54.096  1.00  0.00     0.235 C 
HETATM   17  C   UNL     1      30.367  43.132  55.278  1.00  0.00     0.029 C 
HETATM   18  C   UNL     1      30.749  44.489  55.832  1.00  0.00     0.029 C 
HETATM   19  C   UNL     1      29.446  45.259  55.775  1.00  0.00     0.235 C 
ENDBRANCH  13  14
ENDBRANCH   4  13
ENDBRANCH   1   2
BRANCH   1  20
HETATM   20  C   UNL     1      24.242  47.173  50.165  1.00  0.00     0.185 C 
BRANCH  20  21
HETATM   21  C   UNL     1      23.597  48.260  49.314  1.00  0.00     0.231 C 
HETATM   22  N   UNL     1      22.227  48.358  49.497  1.00  0.00    -0.326 N 
HETATM   23  H   UNL     1      21.784  47.587  49.982  1.00  0.00     0.169 HD
HETATM   24  O   UNL     1      24.242  48.900  48.487  1.00  0.00    -0.272 OA
BRANCH  22  25
HETATM   25  C   UNL     1      21.356  49.231  48.812  1.00  0.00     0.050 A 
HETATM   26  C   UNL     1      20.445  48.880  47.806  1.00  0.00     0.058 A 
HETATM   27  C   UNL     1      19.579  49.851  47.270  1.00  0.00     0.019 A 
HETATM   28  C   UNL     1      19.632  51.172  47.713  1.00  0.00     0.001 A 
HETATM   29  C   UNL     1      20.576  51.540  48.665  1.00  0.00     0.002 A 
HETATM   30  C   UNL     1      21.439  50.580  49.200  1.00  0.00     0.030 A 
BRANCH  26  31
HETATM   31  C   UNL     1      20.462  47.593  47.071  1.00  0.00     0.254 C 
HETATM   32  N   UNL     1      19.209  47.084  46.805  1.00  0.00    -0.352 N 
HETATM   33  H   UNL     1      18.476  47.356  47.458  1.00  0.00     0.163 HD
HETATM   34  O   UNL     1      21.528  47.133  46.668  1.00  0.00    -0.268 OA
BRANCH  32  35
HETATM   35  C   UNL     1      18.963  45.951  45.975  1.00  0.00     0.084 A 
HETATM   36  C   UNL     1      18.008  44.854  46.351  1.00  0.00     0.027 A 
HETATM   37  C   UNL     1      17.642  45.819  45.264  1.00  0.00     0.027 A 
ENDBRANCH  32  35
ENDBRANCH  26  31
ENDBRANCH  22  25
ENDBRANCH  20  21
ENDBRANCH   1  20
TORSDOF 9
ENDMDL
MODEL 2
REMARK VINA RESULT:      -8.8      2.429      3.698
REMARK  9 active torsions:
REMARK  status: ('A' for Active; 'I' for Inactive)
REMARK    1  A    between atoms: C_4  and  N_5 
REMARK    2  A    between atoms: C_6  and  S_7 
REMARK    3  A    between atoms: S_7  and  C_8 
REMARK    4  A    between atoms: C_8  and  C_9 
REMARK       I    between atoms: C_9  and  N_10 
REMARK    5  A    between atoms: N_10  and  C_11 
REMARK    6  A    between atoms: C_12  and  C_13 
REMARK       I    between atoms: C_13  and  N_14 
REMARK    7  A    between atoms: N_14  and  C_15 
REMARK    8  A    between atoms: C_26  and  C_27 
REMARK    9  A    between atoms: C_27  and  N_28 
ROOT
HETATM    1  S   UNL     1      23.466  44.853  48.507  1.00  0.00    -0.080 SA
ENDROOT
BRANCH   1   2
HETATM    2  C   UNL     1      24.123  44.974  50.101  1.00  0.00     0.196 C 
HETATM    3  N   UNL     1      24.916  46.002  50.586  1.00  0.00    -0.274 N 
HETATM    4  C   UNL     1      25.011  45.713  51.941  1.00  0.00     0.161 C 
HETATM    5  N   UNL     1      24.559  44.501  52.178  1.00  0.00    -0.132 NA
HETATM    6  N   UNL     1      24.015  44.039  51.019  1.00  0.00    -0.122 NA
BRANCH   3   7
HETATM    7  C   UNL     1      25.540  47.093  49.929  1.00  0.00     0.043 A 
HETATM    8  C   UNL     1      26.918  47.131  49.710  1.00  0.00     0.030 A 
HETATM    9  C   UNL     1      27.492  48.236  49.074  1.00  0.00     0.002 A 
HETATM   10  C   UNL     1      26.696  49.306  48.665  1.00  0.00     0.000 A 
HETATM   11  C   UNL     1      25.322  49.276  48.886  1.00  0.00     0.002 A 
HETATM   12  C   UNL     1      24.741  48.174  49.513  1.00  0.00     0.030 A 
ENDBRANCH   3   7
BRANCH   4  13
HETATM   13  C   UNL     1      25.347  46.694  53.004  1.00  0.00     0.315 C 
BRANCH  13  14
HETATM   14  N   UNL     1      26.817  46.628  53.358  1.00  0.00    -0.064 N 
HETATM   15  H   UNL     1      27.315  46.894  52.493  1.00  0.00     0.280 HD
HETATM   16  C   UNL     1      27.328  45.234  53.700  1.00  0.00     0.235 C 
HETATM   17  C   UNL     1      27.753  45.348  55.152  1.00  0.00     0.029 C 
HETATM   18  C   UNL     1      28.255  46.773  55.257  1.00  0.00     0.029 C 
HETATM   19  C   UNL     1      27.222  47.557  54.473  1.00  0.00     0.235 C 
ENDBRANCH  13  14
ENDBRANCH   4  13
ENDBRANCH   1   2
BRANCH   1  20
HETATM   20  C   UNL     1      21.760  45.408  48.755  1.00  0.00     0.185 C 
BRANCH  20  21
HETATM   21  C   UNL     1      21.524  46.817  48.223  1.00  0.00     0.231 C 
HETATM   22  N   UNL     1      20.941  47.662  49.152  1.00  0.00    -0.326 N 
HETATM   23  H   UNL     1      20.542  47.220  49.972  1.00  0.00     0.169 HD
HETATM   24  O   UNL     1      21.750  47.109  47.052  1.00  0.00    -0.272 OA
BRANCH  22  25
HETATM   25  C   UNL     1      20.556  49.002  48.933  1.00  0.00     0.050 A 
HETATM   26  C   UNL     1      19.245  49.500  48.912  1.00  0.00     0.058 A 
HETATM   27  C   UNL     1      19.020  50.881  48.762  1.00  0.00     0.019 A 
HETATM   28  C   UNL     1      20.089  51.763  48.610  1.00  0.00     0.001 A 
HETATM   29  C   UNL     1      21.387  51.268  48.568  1.00  0.00     0.002 A 
HETATM   30  C   UNL     1      21.617  49.898  48.715  1.00  0.00     0.030 A 
BRANCH  26  31
HETATM   31  C   UNL     1      18.030  48.659  48.802  1.00  0.00     0.254 C 
HETATM   32  N   UNL     1      17.003  49.250  48.098  1.00  0.00    -0.352 N 
HETATM   33  H   UNL     1      16.991  50.269  48.109  1.00  0.00     0.163 HD
HETATM   34  O   UNL     1      18.043  47.506  49.227  1.00  0.00    -0.268 OA
BRANCH  32  35
HETATM   35  C   UNL     1      15.801  48.583  47.719  1.00  0.00     0.084 A 
HETATM   36  C   UNL     1      14.826  49.153  46.729  1.00  0.00     0.027 A 
HETATM   37  C   UNL     1      15.681  47.983  46.343  1.00  0.00     0.027 A 
ENDBRANCH  32  35
ENDBRANCH  26  31
ENDBRANCH  22  25
ENDBRANCH  20  21
ENDBRANCH   1  20
TORSDOF 9
ENDMDL
MODEL 3
REMARK VINA RESULT:      -8.7      2.559     10.560
REMARK  9 active torsions:
REMARK  status: ('A' for Active; 'I' for Inactive)
REMARK    1  A    between atoms: C_4  and  N_5 
REMARK    2  A    between atoms: C_6  and  S_7 
REMARK    3  A    between atoms: S_7  and  C_8 
REMARK    4  A    between atoms: C_8  and  C_9 
REMARK       I    between atoms: C_9  and  N_10 
REMARK    5  A    between atoms: N_10  and  C_11 
REMARK    6  A    between atoms: C_12  and  C_13 
REMARK       I    between atoms: C_13  and  N_14 
REMARK    7  A    between atoms: N_14  and  C_15 
REMARK    8  A    between atoms: C_26  and  C_27 
REMARK    9  A    between atoms: C_27  and  N_28 
ROOT
HETATM    1  S   UNL     1      25.779  47.035  50.874  1.00  0.00    -0.080 SA
ENDROOT
BRANCH   1   2
HETATM    2  C   UNL     1      24.446  46.369  49.999  1.00  0.00     0.196 C 
HETATM    3  N   UNL     1      23.564  47.066  49.189  1.00  0.00    -0.274 N 
HETATM    4  C   UNL     1      22.820  46.058  48.592  1.00  0.00     0.161 C 
HETATM    5  N   UNL     1      23.050  44.910  49.192  1.00  0.00    -0.132 NA
HETATM    6  N   UNL     1      24.061  45.114  50.081  1.00  0.00    -0.122 NA
BRANCH   3   7
HETATM    7  C   UNL     1      23.379  48.459  48.989  1.00  0.00     0.043 A 
HETATM    8  C   UNL     1      24.309  49.232  48.290  1.00  0.00     0.030 A 
HETATM    9  C   UNL     1      24.093  50.604  48.133  1.00  0.00     0.002 A 
HETATM   10  C   UNL     1      22.961  51.208  48.679  1.00  0.00     0.000 A 
HETATM   11  C   UNL     1      22.034  50.443  49.382  1.00  0.00     0.002 A 
HETATM   12  C   UNL     1      22.238  49.071  49.536  1.00  0.00     0.030 A 
ENDBRANCH   3   7
BRANCH   4  13
HETATM   13  C   UNL     1      22.061  46.191  47.323  1.00  0.00     0.315 C 
BRANCH  13  14
HETATM   14  N   UNL     1      20.627  45.739  47.498  1.00  0.00    -0.064 N 
HETATM   15  H   UNL     1      20.688  44.733  47.725  1.00  0.00     0.280 HD
HETATM   16  C   UNL     1      19.776  45.813  46.237  1.00  0.00     0.235 C 
HETATM   17  C   UNL     1      18.707  46.833  46.578  1.00  0.00     0.029 C 
HETATM   18  C   UNL     1      18.481  46.619  48.061  1.00  0.00     0.029 C 
HETATM   19  C   UNL     1      19.888  46.455  48.599  1.00  0.00     0.235 C 
ENDBRANCH  13  14
ENDBRANCH   4  13
ENDBRANCH   1   2
BRANCH   1  20
HETATM   20  C   UNL     1      25.325  46.677  52.590  1.00  0.00     0.185 C 
BRANCH  20  21
HETATM   21  C   UNL     1      25.720  45.267  53.014  1.00  0.00     0.231 C 
HETATM   22  N   UNL     1      26.912  44.840  52.452  1.00  0.00    -0.326 N 
HETATM   23  H   UNL     1      27.265  45.391  51.678  1.00  0.00     0.169 HD
HETATM   24  O   UNL     1      24.982  44.572  53.707  1.00  0.00    -0.272 OA
BRANCH  22  25
HETATM   25  C   UNL     1      27.501  43.569  52.616  1.00  0.00     0.050 A 
HETATM   26  C   UNL     1      28.367  43.178  53.648  1.00  0.00     0.058 A 
HETATM   27  C   UNL     1      28.813  41.846  53.725  1.00  0.00     0.019 A 
HETATM   28  C   UNL     1      28.421  40.909  52.770  1.00  0.00     0.001 A 
HETATM   29  C   UNL     1      27.614  41.305  51.710  1.00  0.00     0.002 A 
HETATM   30  C   UNL     1      27.170  42.626  51.627  1.00  0.00     0.030 A 
BRANCH  26  31
HETATM   31  C   UNL     1      29.059  44.117  54.563  1.00  0.00     0.254 C 
HETATM   32  N   UNL     1      30.132  43.562  55.225  1.00  0.00    -0.352 N 
HETATM   33  H   UNL     1      30.087  42.555  55.371  1.00  0.00     0.163 HD
HETATM   34  O   UNL     1      28.722  45.298  54.596  1.00  0.00    -0.268 OA
BRANCH  32  35
HETATM   35  C   UNL     1      31.049  44.302  56.029  1.00  0.00     0.084 A 
HETATM   36  C   UNL     1      30.813  44.589  57.484  1.00  0.00     0.027 A 
HETATM   37  C   UNL     1      31.859  43.593  57.082  1.00  0.00     0.027 A 
ENDBRANCH  32  35
ENDBRANCH  26  31
ENDBRANCH  22  25
ENDBRANCH  20  21
ENDBRANCH   1  20
TORSDOF 9
ENDMDL
MODEL 4
REMARK VINA RESULT:      -8.6      2.386     10.458
REMARK  9 active torsions:
REMARK  status: ('A' for Active; 'I' for Inactive)
REMARK    1  A    between atoms: C_4  and  N_5 
REMARK    2  A    between atoms: C_6  and  S_7 
REMARK    3  A    between atoms: S_7  and  C_8 
REMARK    4  A    between atoms: C_8  and  C_9 
REMARK       I    between atoms: C_9  and  N_10 
REMARK    5  A    between atoms: N_10  and  C_11 
REMARK    6  A    between atoms: C_12  and  C_13 
REMARK       I    between atoms: C_13  and  N_14 
REMARK    7  A    between atoms: N_14  and  C_15 
REMARK    8  A    between atoms: C_26  and  C_27 
REMARK    9  A    between atoms: C_27  and  N_28 
ROOT
HETATM    1  S   UNL     1      23.787  45.701  49.649  1.00  0.00    -0.080 SA
ENDROOT
BRANCH   1   2
HETATM    2  C   UNL     1      23.295  47.220  48.987  1.00  0.00     0.196 C 
HETATM    3  N   UNL     1      22.146  47.461  48.251  1.00  0.00    -0.274 N 
HETATM    4  C   UNL     1      22.135  48.844  48.128  1.00  0.00     0.161 C 
HETATM    5  N   UNL     1      23.292  49.340  48.507  1.00  0.00    -0.132 NA
HETATM    6  N   UNL     1      24.019  48.316  49.033  1.00  0.00    -0.122 NA
BRANCH   3   7
HETATM    7  C   UNL     1      21.187  46.574  47.697  1.00  0.00     0.043 A 
HETATM    8  C   UNL     1      21.227  46.191  46.354  1.00  0.00     0.030 A 
HETATM    9  C   UNL     1      20.249  45.330  45.848  1.00  0.00     0.002 A 
HETATM   10  C   UNL     1      19.227  44.859  46.672  1.00  0.00     0.000 A 
HETATM   11  C   UNL     1      19.179  45.243  48.009  1.00  0.00     0.002 A 
HETATM   12  C   UNL     1      20.155  46.096  48.525  1.00  0.00     0.030 A 
ENDBRANCH   3   7
BRANCH   4  13
HETATM   13  C   UNL     1      20.934  49.668  47.840  1.00  0.00     0.315 C 
BRANCH  13  14
HETATM   14  N   UNL     1      20.531  50.481  49.051  1.00  0.00    -0.064 N 
HETATM   15  H   UNL     1      21.414  50.671  49.554  1.00  0.00     0.280 HD
HETATM   16  C   UNL     1      19.654  49.741  50.053  1.00  0.00     0.235 C 
HETATM   17  C   UNL     1      18.349  50.514  50.035  1.00  0.00     0.029 C 
HETATM   18  C   UNL     1      18.792  51.941  49.786  1.00  0.00     0.029 C 
HETATM   19  C   UNL     1      19.855  51.786  48.718  1.00  0.00     0.235 C 
ENDBRANCH  13  14
ENDBRANCH   4  13
ENDBRANCH   1   2
BRANCH   1  20
HETATM   20  C   UNL     1      24.867  46.211  51.010  1.00  0.00     0.185 C 
BRANCH  20  21
HETATM   21  C   UNL     1      25.379  45.027  51.822  1.00  0.00     0.231 C 
HETATM   22  N   UNL     1      26.753  44.867  51.749  1.00  0.00    -0.326 N 
HETATM   23  H   UNL     1      27.227  45.386  51.020  1.00  0.00     0.169 HD
HETATM   24  O   UNL     1      24.610  44.257  52.392  1.00  0.00    -0.272 OA
BRANCH  22  25
HETATM   25  C   UNL     1      27.503  43.834  52.350  1.00  0.00     0.050 A 
HETATM   26  C   UNL     1      28.008  43.822  53.657  1.00  0.00     0.058 A 
HETATM   27  C   UNL     1      28.672  42.681  54.146  1.00  0.00     0.019 A 
HETATM   28  C   UNL     1      28.853  41.563  53.332  1.00  0.00     0.001 A 
HETATM   29  C   UNL     1      28.410  41.592  52.015  1.00  0.00     0.002 A 
HETATM   30  C   UNL     1      27.753  42.723  51.525  1.00  0.00     0.030 A 
BRANCH  26  31
HETATM   31  C   UNL     1      28.114  45.018  54.527  1.00  0.00     0.254 C 
HETATM   32  N   UNL     1      29.070  44.910  55.513  1.00  0.00    -0.352 N 
HETATM   33  H   UNL     1      29.278  43.961  55.823  1.00  0.00     0.163 HD
HETATM   34  O   UNL     1      27.455  46.023  54.267  1.00  0.00    -0.268 OA
BRANCH  32  35
HETATM   35  C   UNL     1      29.469  45.981  56.365  1.00  0.00     0.084 A 
HETATM   36  C   UNL     1      28.939  46.158  57.760  1.00  0.00     0.027 A 
HETATM   37  C   UNL     1      30.352  45.702  57.553  1.00  0.00     0.027 A 
ENDBRANCH  32  35
ENDBRANCH  26  31
ENDBRANCH  22  25
ENDBRANCH  20  21
ENDBRANCH   1  20
TORSDOF 9
ENDMDL
MODEL 5
REMARK VINA RESULT:      -8.6      3.207      9.830
REMARK  9 active torsions:
REMARK  status: ('A' for Active; 'I' for Inactive)
REMARK    1  A    between atoms: C_4  and  N_5 
REMARK    2  A    between atoms: C_6  and  S_7 
REMARK    3  A    between atoms: S_7  and  C_8 
REMARK    4  A    between atoms: C_8  and  C_9 
REMARK       I    between atoms: C_9  and  N_10 
REMARK    5  A    between atoms: N_10  and  C_11 
REMARK    6  A    between atoms: C_12  and  C_13 
REMARK       I    between atoms: C_13  and  N_14 
REMARK    7  A    between atoms: N_14  and  C_15 
REMARK    8  A    between atoms: C_26  and  C_27 
REMARK    9  A    between atoms: C_27  and  N_28 
ROOT
HETATM    1  S   UNL     1      23.850  44.046  48.279  1.00  0.00    -0.080 SA
ENDROOT
BRANCH   1   2
HETATM    2  C   UNL     1      22.843  45.426  48.541  1.00  0.00     0.196 C 
HETATM    3  N   UNL     1      23.222  46.615  49.144  1.00  0.00    -0.274 N 
HETATM    4  C   UNL     1      22.122  47.437  48.937  1.00  0.00     0.161 C 
HETATM    5  N   UNL     1      21.101  46.727  48.509  1.00  0.00    -0.132 NA
HETATM    6  N   UNL     1      21.557  45.465  48.274  1.00  0.00    -0.122 NA
BRANCH   3   7
HETATM    7  C   UNL     1      24.402  46.976  49.844  1.00  0.00     0.043 A 
HETATM    8  C   UNL     1      25.449  47.659  49.220  1.00  0.00     0.030 A 
HETATM    9  C   UNL     1      26.601  47.976  49.946  1.00  0.00     0.002 A 
HETATM   10  C   UNL     1      26.716  47.607  51.286  1.00  0.00     0.000 A 
HETATM   11  C   UNL     1      25.678  46.921  51.910  1.00  0.00     0.002 A 
HETATM   12  C   UNL     1      24.522  46.607  51.195  1.00  0.00     0.030 A 
ENDBRANCH   3   7
BRANCH   4  13
HETATM   13  C   UNL     1      22.144  48.921  48.965  1.00  0.00     0.315 C 
BRANCH  13  14
HETATM   14  N   UNL     1      20.752  49.489  48.792  1.00  0.00    -0.064 N 
HETATM   15  H   UNL     1      20.174  48.692  48.477  1.00  0.00     0.280 HD
HETATM   16  C   UNL     1      20.622  50.536  47.693  1.00  0.00     0.235 C 
HETATM   17  C   UNL     1      20.231  51.798  48.438  1.00  0.00     0.029 C 
HETATM   18  C   UNL     1      19.389  51.280  49.585  1.00  0.00     0.029 C 
HETATM   19  C   UNL     1      20.163  50.064  50.054  1.00  0.00     0.235 C 
ENDBRANCH  13  14
ENDBRANCH   4  13
ENDBRANCH   1   2
BRANCH   1  20
HETATM   20  C   UNL     1      24.103  43.434  49.964  1.00  0.00     0.185 C 
BRANCH  20  21
HETATM   21  C   UNL     1      25.573  43.437  50.369  1.00  0.00     0.231 C 
HETATM   22  N   UNL     1      25.802  42.846  51.601  1.00  0.00    -0.326 N 
HETATM   23  H   UNL     1      24.986  42.686  52.180  1.00  0.00     0.169 HD
HETATM   24  O   UNL     1      26.427  44.001  49.691  1.00  0.00    -0.272 OA
BRANCH  22  25
HETATM   25  C   UNL     1      27.046  42.748  52.259  1.00  0.00     0.050 A 
HETATM   26  C   UNL     1      28.059  41.816  51.992  1.00  0.00     0.058 A 
HETATM   27  C   UNL     1      29.285  41.894  52.678  1.00  0.00     0.019 A 
HETATM   28  C   UNL     1      29.498  42.878  53.643  1.00  0.00     0.001 A 
HETATM   29  C   UNL     1      28.475  43.766  53.956  1.00  0.00     0.002 A 
HETATM   30  C   UNL     1      27.256  43.692  53.279  1.00  0.00     0.030 A 
BRANCH  26  31
HETATM   31  C   UNL     1      27.874  40.581  51.194  1.00  0.00     0.254 C 
HETATM   32  N   UNL     1      29.025  39.841  51.035  1.00  0.00    -0.352 N 
HETATM   33  H   UNL     1      29.896  40.367  51.073  1.00  0.00     0.163 HD
HETATM   34  O   UNL     1      26.747  40.250  50.833  1.00  0.00    -0.268 OA
BRANCH  32  35
HETATM   35  C   UNL     1      29.069  38.541  50.450  1.00  0.00     0.084 A 
HETATM   36  C   UNL     1      30.220  38.057  49.616  1.00  0.00     0.027 A 
HETATM   37  C   UNL     1      30.019  37.508  50.996  1.00  0.00     0.027 A 
ENDBRANCH  32  35
ENDBRANCH  26  31
ENDBRANCH  22  25
ENDBRANCH  20  21
ENDBRANCH   1  20
TORSDOF 9
ENDMDL
MODEL 6
REMARK VINA RESULT:      -8.4      2.957     10.392
REMARK  9 active torsions:
REMARK  status: ('A' for Active; 'I' for Inactive)
REMARK    1  A    between atoms: C_4  and  N_5 
REMARK    2  A    between atoms: C_6  and  S_7 
REMARK    3  A    between atoms: S_7  and  C_8 
REMARK    4  A    between atoms: C_8  and  C_9 
REMARK       I    between atoms: C_9  and  N_10 
REMARK    5  A    between atoms: N_10  and  C_11 
REMARK    6  A    between atoms: C_12  and  C_13 
REMARK       I    between atoms: C_13  and  N_14 
REMARK    7  A    between atoms: N_14  and  C_15 
REMARK    8  A    between atoms: C_26  and  C_27 
REMARK    9  A    between atoms: C_27  and  N_28 
ROOT
HETATM    1  S   UNL     1      19.395  46.415  47.372  1.00  0.00    -0.080 SA
ENDROOT
BRANCH   1   2
HETATM    2  C   UNL     1      17.996  47.325  47.820  1.00  0.00     0.196 C 
HETATM    3  N   UNL     1      17.973  48.651  48.221  1.00  0.00    -0.274 N 
HETATM    4  C   UNL     1      16.616  48.940  48.280  1.00  0.00     0.161 C 
HETATM    5  N   UNL     1      15.914  47.831  48.195  1.00  0.00    -0.132 NA
HETATM    6  N   UNL     1      16.785  46.822  47.919  1.00  0.00    -0.122 NA
BRANCH   3   7
HETATM    7  C   UNL     1      19.023  49.550  48.543  1.00  0.00     0.043 A 
HETATM    8  C   UNL     1      19.872  50.072  47.564  1.00  0.00     0.030 A 
HETATM    9  C   UNL     1      20.905  50.940  47.931  1.00  0.00     0.002 A 
HETATM   10  C   UNL     1      21.100  51.279  49.270  1.00  0.00     0.000 A 
HETATM   11  C   UNL     1      20.260  50.757  50.250  1.00  0.00     0.002 A 
HETATM   12  C   UNL     1      19.222  49.897  49.891  1.00  0.00     0.030 A 
ENDBRANCH   3   7
BRANCH   4  13
HETATM   13  C   UNL     1      16.027  50.300  48.211  1.00  0.00     0.315 C 
BRANCH  13  14
HETATM   14  N   UNL     1      15.956  50.790  46.781  1.00  0.00    -0.064 N 
HETATM   15  H   UNL     1      15.000  51.168  46.673  1.00  0.00     0.280 HD
HETATM   16  C   UNL     1      16.074  49.697  45.726  1.00  0.00     0.235 C 
HETATM   17  C   UNL     1      17.354  50.040  44.989  1.00  0.00     0.029 C 
HETATM   18  C   UNL     1      17.385  51.554  45.029  1.00  0.00     0.029 C 
HETATM   19  C   UNL     1      16.958  51.865  46.449  1.00  0.00     0.235 C 
ENDBRANCH  13  14
ENDBRANCH   4  13
ENDBRANCH   1   2
BRANCH   1  20
HETATM   20  C   UNL     1      20.494  46.686  48.785  1.00  0.00     0.185 C 
BRANCH  20  21
HETATM   21  C   UNL     1      21.906  47.072  48.357  1.00  0.00     0.231 C 
HETATM   22  N   UNL     1      22.624  47.710  49.355  1.00  0.00    -0.326 N 
HETATM   23  H   UNL     1      22.090  48.044  50.149  1.00  0.00     0.169 HD
HETATM   24  O   UNL     1      22.299  46.904  47.206  1.00  0.00    -0.272 OA
BRANCH  22  25
HETATM   25  C   UNL     1      23.931  48.228  49.238  1.00  0.00     0.050 A 
HETATM   26  C   UNL     1      25.085  47.725  49.856  1.00  0.00     0.058 A 
HETATM   27  C   UNL     1      26.339  48.300  49.579  1.00  0.00     0.019 A 
HETATM   28  C   UNL     1      26.446  49.386  48.710  1.00  0.00     0.001 A 
HETATM   29  C   UNL     1      25.299  49.929  48.143  1.00  0.00     0.002 A 
HETATM   30  C   UNL     1      24.051  49.362  48.416  1.00  0.00     0.030 A 
BRANCH  26  31
HETATM   31  C   UNL     1      25.082  46.761  50.981  1.00  0.00     0.254 C 
HETATM   32  N   UNL     1      25.763  47.200  52.095  1.00  0.00    -0.352 N 
HETATM   33  H   UNL     1      26.515  47.865  51.919  1.00  0.00     0.163 HD
HETATM   34  O   UNL     1      24.419  45.729  50.901  1.00  0.00    -0.268 OA
BRANCH  32  35
HETATM   35  C   UNL     1      25.765  46.527  53.353  1.00  0.00     0.084 A 
HETATM   36  C   UNL     1      26.974  45.827  53.905  1.00  0.00     0.027 A 
HETATM   37  C   UNL     1      26.518  47.118  54.515  1.00  0.00     0.027 A 
ENDBRANCH  32  35
ENDBRANCH  26  31
ENDBRANCH  22  25
ENDBRANCH  20  21
ENDBRANCH   1  20
TORSDOF 9
ENDMDL
MODEL 7
REMARK VINA RESULT:      -8.4     12.295     14.870
REMARK  9 active torsions:
REMARK  status: ('A' for Active; 'I' for Inactive)
REMARK    1  A    between atoms: C_4  and  N_5 
REMARK    2  A    between atoms: C_6  and  S_7 
REMARK    3  A    between atoms: S_7  and  C_8 
REMARK    4  A    between atoms: C_8  and  C_9 
REMARK       I    between atoms: C_9  and  N_10 
REMARK    5  A    between atoms: N_10  and  C_11 
REMARK    6  A    between atoms: C_12  and  C_13 
REMARK       I    between atoms: C_13  and  N_14 
REMARK    7  A    between atoms: N_14  and  C_15 
REMARK    8  A    between atoms: C_26  and  C_27 
REMARK    9  A    between atoms: C_27  and  N_28 
ROOT
HETATM    1  S   UNL     1      29.579  52.156  38.360  1.00  0.00    -0.080 SA
ENDROOT
BRANCH   1   2
HETATM    2  C   UNL     1      28.290  51.027  38.591  1.00  0.00     0.196 C 
HETATM    3  N   UNL     1      28.322  49.899  39.396  1.00  0.00    -0.274 N 
HETATM    4  C   UNL     1      27.005  49.460  39.375  1.00  0.00     0.161 C 
HETATM    5  N   UNL     1      26.332  50.095  38.440  1.00  0.00    -0.132 NA
HETATM    6  N   UNL     1      27.146  51.066  37.944  1.00  0.00    -0.122 NA
BRANCH   3   7
HETATM    7  C   UNL     1      29.392  49.266  40.079  1.00  0.00     0.043 A 
HETATM    8  C   UNL     1      30.408  48.594  39.396  1.00  0.00     0.030 A 
HETATM    9  C   UNL     1      31.433  47.969  40.113  1.00  0.00     0.002 A 
HETATM   10  C   UNL     1      31.442  48.005  41.507  1.00  0.00     0.000 A 
HETATM   11  C   UNL     1      30.430  48.669  42.193  1.00  0.00     0.002 A 
HETATM   12  C   UNL     1      29.407  49.302  41.485  1.00  0.00     0.030 A 
ENDBRANCH   3   7
BRANCH   4  13
HETATM   13  C   UNL     1      26.378  48.584  40.396  1.00  0.00     0.315 C 
BRANCH  13  14
HETATM   14  N   UNL     1      26.426  47.133  39.970  1.00  0.00    -0.064 N 
HETATM   15  H   UNL     1      25.439  46.823  39.958  1.00  0.00     0.280 HD
HETATM   16  C   UNL     1      27.123  46.201  40.953  1.00  0.00     0.235 C 
HETATM   17  C   UNL     1      28.323  45.688  40.179  1.00  0.00     0.029 C 
HETATM   18  C   UNL     1      27.815  45.621  38.753  1.00  0.00     0.029 C 
HETATM   19  C   UNL     1      27.035  46.912  38.609  1.00  0.00     0.235 C 
ENDBRANCH  13  14
ENDBRANCH   4  13
ENDBRANCH   1   2
BRANCH   1  20
HETATM   20  C   UNL     1      29.328  53.307  39.735  1.00  0.00     0.185 C 
BRANCH  20  21
HETATM   21  C   UNL     1      30.553  53.414  40.635  1.00  0.00     0.231 C 
HETATM   22  N   UNL     1      30.936  52.201  41.184  1.00  0.00    -0.326 N 
HETATM   23  H   UNL     1      30.263  51.447  41.118  1.00  0.00     0.169 HD
HETATM   24  O   UNL     1      31.065  54.499  40.900  1.00  0.00    -0.272 OA
BRANCH  22  25
HETATM   25  C   UNL     1      31.996  51.997  42.093  1.00  0.00     0.050 A 
HETATM   26  C   UNL     1      33.347  51.813  41.769  1.00  0.00     0.058 A 
HETATM   27  C   UNL     1      34.307  51.702  42.793  1.00  0.00     0.019 A 
HETATM   28  C   UNL     1      33.925  51.750  44.133  1.00  0.00     0.001 A 
HETATM   29  C   UNL     1      32.579  51.869  44.460  1.00  0.00     0.002 A 
HETATM   30  C   UNL     1      31.623  51.978  43.448  1.00  0.00     0.030 A 
BRANCH  26  31
HETATM   31  C   UNL     1      33.849  51.488  40.413  1.00  0.00     0.254 C 
HETATM   32  N   UNL     1      35.184  51.777  40.227  1.00  0.00    -0.352 N 
HETATM   33  H   UNL     1      35.557  52.528  40.806  1.00  0.00     0.163 HD
HETATM   34  O   UNL     1      33.117  50.912  39.613  1.00  0.00    -0.268 OA
BRANCH  32  35
HETATM   35  C   UNL     1      35.931  51.407  39.070  1.00  0.00     0.084 A 
HETATM   36  C   UNL     1      37.083  52.216  38.546  1.00  0.00     0.027 A 
HETATM   37  C   UNL     1      37.342  50.903  39.222  1.00  0.00     0.027 A 
ENDBRANCH  32  35
ENDBRANCH  26  31
ENDBRANCH  22  25
ENDBRANCH  20  21
ENDBRANCH   1  20
TORSDOF 9
ENDMDL
MODEL 8
REMARK VINA RESULT:      -8.4      2.968     10.441
REMARK  9 active torsions:
REMARK  status: ('A' for Active; 'I' for Inactive)
REMARK    1  A    between atoms: C_4  and  N_5 
REMARK    2  A    between atoms: C_6  and  S_7 
REMARK    3  A    between atoms: S_7  and  C_8 
REMARK    4  A    between atoms: C_8  and  C_9 
REMARK       I    between atoms: C_9  and  N_10 
REMARK    5  A    between atoms: N_10  and  C_11 
REMARK    6  A    between atoms: C_12  and  C_13 
REMARK       I    between atoms: C_13  and  N_14 
REMARK    7  A    between atoms: N_14  and  C_15 
REMARK    8  A    between atoms: C_26  and  C_27 
REMARK    9  A    between atoms: C_27  and  N_28 
ROOT
HETATM    1  S   UNL     1      24.624  46.328  50.138  1.00  0.00    -0.080 SA
ENDROOT
BRANCH   1   2
HETATM    2  C   UNL     1      23.196  46.077  49.198  1.00  0.00     0.196 C 
HETATM    3  N   UNL     1      22.447  47.056  48.565  1.00  0.00    -0.274 N 
HETATM    4  C   UNL     1      21.540  46.322  47.813  1.00  0.00     0.161 C 
HETATM    5  N   UNL     1      21.568  45.059  48.178  1.00  0.00    -0.132 NA
HETATM    6  N   UNL     1      22.599  44.914  49.055  1.00  0.00    -0.122 NA
BRANCH   3   7
HETATM    7  C   UNL     1      22.506  48.472  48.637  1.00  0.00     0.043 A 
HETATM    8  C   UNL     1      23.497  49.202  47.977  1.00  0.00     0.030 A 
HETATM    9  C   UNL     1      23.526  50.596  48.092  1.00  0.00     0.002 A 
HETATM   10  C   UNL     1      22.578  51.260  48.870  1.00  0.00     0.000 A 
HETATM   11  C   UNL     1      21.592  50.536  49.534  1.00  0.00     0.002 A 
HETATM   12  C   UNL     1      21.551  49.146  49.418  1.00  0.00     0.030 A 
ENDBRANCH   3   7
BRANCH   4  13
HETATM   13  C   UNL     1      20.814  46.823  46.619  1.00  0.00     0.315 C 
BRANCH  13  14
HETATM   14  N   UNL     1      19.353  47.065  46.933  1.00  0.00    -0.064 N 
HETATM   15  H   UNL     1      18.834  46.430  46.303  1.00  0.00     0.280 HD
HETATM   16  C   UNL     1      18.851  48.462  46.593  1.00  0.00     0.235 C 
HETATM   17  C   UNL     1      18.461  49.046  47.938  1.00  0.00     0.029 C 
HETATM   18  C   UNL     1      17.961  47.841  48.710  1.00  0.00     0.029 C 
HETATM   19  C   UNL     1      18.975  46.770  48.362  1.00  0.00     0.235 C 
ENDBRANCH  13  14
ENDBRANCH   4  13
ENDBRANCH   1   2
BRANCH   1  20
HETATM   20  C   UNL     1      24.878  44.699  50.886  1.00  0.00     0.185 C 
BRANCH  20  21
HETATM   21  C   UNL     1      26.347  44.414  51.176  1.00  0.00     0.231 C 
HETATM   22  N   UNL     1      26.549  43.734  52.366  1.00  0.00    -0.326 N 
HETATM   23  H   UNL     1      25.760  43.699  53.001  1.00  0.00     0.169 HD
HETATM   24  O   UNL     1      27.242  44.844  50.452  1.00  0.00    -0.272 OA
BRANCH  22  25
HETATM   25  C   UNL     1      27.796  43.380  52.921  1.00  0.00     0.050 A 
HETATM   26  C   UNL     1      28.609  42.307  52.528  1.00  0.00     0.058 A 
HETATM   27  C   UNL     1      29.872  42.126  53.123  1.00  0.00     0.019 A 
HETATM   28  C   UNL     1      30.318  42.993  54.120  1.00  0.00     0.001 A 
HETATM   29  C   UNL     1      29.491  44.021  54.558  1.00  0.00     0.002 A 
HETATM   30  C   UNL     1      28.236  44.204  53.972  1.00  0.00     0.030 A 
BRANCH  26  31
HETATM   31  C   UNL     1      28.157  41.178  51.681  1.00  0.00     0.254 C 
HETATM   32  N   UNL     1      29.112  40.202  51.495  1.00  0.00    -0.352 N 
HETATM   33  H   UNL     1      30.080  40.515  51.556  1.00  0.00     0.163 HD
HETATM   34  O   UNL     1      26.989  41.126  51.304  1.00  0.00    -0.268 OA
BRANCH  32  35
HETATM   35  C   UNL     1      28.866  38.949  50.859  1.00  0.00     0.084 A 
HETATM   36  C   UNL     1      29.583  38.508  49.615  1.00  0.00     0.027 A 
HETATM   37  C   UNL     1      29.903  37.860  50.928  1.00  0.00     0.027 A 
ENDBRANCH  32  35
ENDBRANCH  26  31
ENDBRANCH  22  25
ENDBRANCH  20  21
ENDBRANCH   1  20
TORSDOF 9
ENDMDL
MODEL 9
REMARK VINA RESULT:      -8.3      2.692      9.918
REMARK  9 active torsions:
REMARK  status: ('A' for Active; 'I' for Inactive)
REMARK    1  A    between atoms: C_4  and  N_5 
REMARK    2  A    between atoms: C_6  and  S_7 
REMARK    3  A    between atoms: S_7  and  C_8 
REMARK    4  A    between atoms: C_8  and  C_9 
REMARK       I    between atoms: C_9  and  N_10 
REMARK    5  A    between atoms: N_10  and  C_11 
REMARK    6  A    between atoms: C_12  and  C_13 
REMARK       I    between atoms: C_13  and  N_14 
REMARK    7  A    between atoms: N_14  and  C_15 
REMARK    8  A    between atoms: C_26  and  C_27 
REMARK    9  A    between atoms: C_27  and  N_28 
ROOT
HETATM    1  S   UNL     1      24.357  45.386  49.318  1.00  0.00    -0.080 SA
ENDROOT
BRANCH   1   2
HETATM    2  C   UNL     1      23.496  46.884  49.277  1.00  0.00     0.196 C 
HETATM    3  N   UNL     1      22.256  47.102  48.699  1.00  0.00    -0.274 N 
HETATM    4  C   UNL     1      21.943  48.394  49.101  1.00  0.00     0.161 C 
HETATM    5  N   UNL     1      23.002  48.973  49.624  1.00  0.00    -0.132 NA
HETATM    6  N   UNL     1      23.975  48.025  49.720  1.00  0.00    -0.122 NA
BRANCH   3   7
HETATM    7  C   UNL     1      21.454  46.280  47.866  1.00  0.00     0.043 A 
HETATM    8  C   UNL     1      20.461  45.449  48.388  1.00  0.00     0.030 A 
HETATM    9  C   UNL     1      19.708  44.642  47.529  1.00  0.00     0.002 A 
HETATM   10  C   UNL     1      19.948  44.655  46.155  1.00  0.00     0.000 A 
HETATM   11  C   UNL     1      20.941  45.478  45.631  1.00  0.00     0.002 A 
HETATM   12  C   UNL     1      21.692  46.292  46.480  1.00  0.00     0.030 A 
ENDBRANCH   3   7
BRANCH   4  13
HETATM   13  C   UNL     1      20.575  48.966  49.157  1.00  0.00     0.315 C 
BRANCH  13  14
HETATM   14  N   UNL     1      20.616  50.478  49.128  1.00  0.00    -0.064 N 
HETATM   15  H   UNL     1      21.621  50.720  49.138  1.00  0.00     0.280 HD
HETATM   16  C   UNL     1      20.031  51.157  50.360  1.00  0.00     0.235 C 
HETATM   17  C   UNL     1      18.842  51.928  49.821  1.00  0.00     0.029 C 
HETATM   18  C   UNL     1      19.292  52.338  48.434  1.00  0.00     0.029 C 
HETATM   19  C   UNL     1      19.968  51.087  47.911  1.00  0.00     0.235 C 
ENDBRANCH  13  14
ENDBRANCH   4  13
ENDBRANCH   1   2
BRANCH   1  20
HETATM   20  C   UNL     1      24.768  45.231  51.074  1.00  0.00     0.185 C 
BRANCH  20  21
HETATM   21  C   UNL     1      26.214  44.803  51.298  1.00  0.00     0.231 C 
HETATM   22  N   UNL     1      26.400  44.099  52.476  1.00  0.00    -0.326 N 
HETATM   23  H   UNL     1      25.640  44.136  53.145  1.00  0.00     0.169 HD
HETATM   24  O   UNL     1      27.113  45.150  50.537  1.00  0.00    -0.272 OA
BRANCH  22  25
HETATM   25  C   UNL     1      27.630  43.621  52.975  1.00  0.00     0.050 A 
HETATM   26  C   UNL     1      28.363  42.533  52.481  1.00  0.00     0.058 A 
HETATM   27  C   UNL     1      29.621  42.224  53.033  1.00  0.00     0.019 A 
HETATM   28  C   UNL     1      30.139  42.977  54.086  1.00  0.00     0.001 A 
HETATM   29  C   UNL     1      29.388  44.017  54.621  1.00  0.00     0.002 A 
HETATM   30  C   UNL     1      28.140  44.328  54.079  1.00  0.00     0.030 A 
BRANCH  26  31
HETATM   31  C   UNL     1      27.824  41.507  51.557  1.00  0.00     0.254 C 
HETATM   32  N   UNL     1      28.789  40.703  50.990  1.00  0.00    -0.352 N 
HETATM   33  H   UNL     1      29.713  41.123  50.897  1.00  0.00     0.163 HD
HETATM   34  O   UNL     1      26.609  41.369  51.439  1.00  0.00    -0.268 OA
BRANCH  32  35
HETATM   35  C   UNL     1      28.510  39.549  50.201  1.00  0.00     0.084 A 
HETATM   36  C   UNL     1      27.541  39.558  49.053  1.00  0.00     0.027 A 
HETATM   37  C   UNL     1      29.014  39.473  48.784  1.00  0.00     0.027 A 
ENDBRANCH  32  35
ENDBRANCH  26  31
ENDBRANCH  22  25
ENDBRANCH  20  21
ENDBRANCH   1  20
TORSDOF 9
ENDMDL
MODEL 10
REMARK VINA RESULT:      -8.1      5.189      9.920
REMARK  9 active torsions:
REMARK  status: ('A' for Active; 'I' for Inactive)
REMARK    1  A    between atoms: C_4  and  N_5 
REMARK    2  A    between atoms: C_6  and  S_7 
REMARK    3  A    between atoms: S_7  and  C_8 
REMARK    4  A    between atoms: C_8  and  C_9 
REMARK       I    between atoms: C_9  and  N_10 
REMARK    5  A    between atoms: N_10  and  C_11 
REMARK    6  A    between atoms: C_12  and  C_13 
REMARK       I    between atoms: C_13  and  N_14 
REMARK    7  A    between atoms: N_14  and  C_15 
REMARK    8  A    between atoms: C_26  and  C_27 
REMARK    9  A    between atoms: C_27  and  N_28 
ROOT
HETATM    1  S   UNL     1      28.418  40.979  52.183  1.00  0.00    -0.080 SA
ENDROOT
BRANCH   1   2
HETATM    2  C   UNL     1      27.233  41.612  51.096  1.00  0.00     0.196 C 
HETATM    3  N   UNL     1      26.744  40.987  49.960  1.00  0.00    -0.274 N 
HETATM    4  C   UNL     1      25.704  41.818  49.566  1.00  0.00     0.161 C 
HETATM    5  N   UNL     1      25.755  42.951  50.231  1.00  0.00    -0.132 NA
HETATM    6  N   UNL     1      26.722  42.820  51.180  1.00  0.00    -0.122 NA
BRANCH   3   7
HETATM    7  C   UNL     1      27.162  39.810  49.285  1.00  0.00     0.043 A 
HETATM    8  C   UNL     1      26.785  38.538  49.721  1.00  0.00     0.030 A 
HETATM    9  C   UNL     1      27.237  37.407  49.035  1.00  0.00     0.002 A 
HETATM   10  C   UNL     1      28.070  37.540  47.924  1.00  0.00     0.000 A 
HETATM   11  C   UNL     1      28.454  38.806  47.490  1.00  0.00     0.002 A 
HETATM   12  C   UNL     1      28.001  39.940  48.164  1.00  0.00     0.030 A 
ENDBRANCH   3   7
BRANCH   4  13
HETATM   13  C   UNL     1      24.567  41.415  48.701  1.00  0.00     0.315 C 
BRANCH  13  14
HETATM   14  N   UNL     1      24.689  42.028  47.323  1.00  0.00    -0.064 N 
HETATM   15  H   UNL     1      25.476  42.694  47.393  1.00  0.00     0.280 HD
HETATM   16  C   UNL     1      23.493  42.867  46.890  1.00  0.00     0.235 C 
HETATM   17  C   UNL     1      22.942  42.123  45.689  1.00  0.00     0.029 C 
HETATM   18  C   UNL     1      24.181  41.535  45.044  1.00  0.00     0.029 C 
HETATM   19  C   UNL     1      24.976  41.030  46.230  1.00  0.00     0.235 C 
ENDBRANCH  13  14
ENDBRANCH   4  13
ENDBRANCH   1   2
BRANCH   1  20
HETATM   20  C   UNL     1      29.418  42.443  52.550  1.00  0.00     0.185 C 
BRANCH  20  21
HETATM   21  C   UNL     1      29.101  43.035  53.919  1.00  0.00     0.231 C 
HETATM   22  N   UNL     1      30.123  43.821  54.425  1.00  0.00    -0.326 N 
HETATM   23  H   UNL     1      31.021  43.741  53.962  1.00  0.00     0.169 HD
HETATM   24  O   UNL     1      28.073  42.744  54.524  1.00  0.00    -0.272 OA
BRANCH  22  25
HETATM   25  C   UNL     1      30.140  44.455  55.686  1.00  0.00     0.050 A 
HETATM   26  C   UNL     1      29.282  45.477  56.116  1.00  0.00     0.058 A 
HETATM   27  C   UNL     1      29.366  45.957  57.436  1.00  0.00     0.019 A 
HETATM   28  C   UNL     1      30.312  45.441  58.321  1.00  0.00     0.001 A 
HETATM   29  C   UNL     1      31.207  44.471  57.881  1.00  0.00     0.002 A 
HETATM   30  C   UNL     1      31.129  43.993  56.571  1.00  0.00     0.030 A 
BRANCH  26  31
HETATM   31  C   UNL     1      28.421  46.283  55.218  1.00  0.00     0.254 C 
HETATM   32  N   UNL     1      27.210  45.693  54.927  1.00  0.00    -0.352 N 
HETATM   33  H   UNL     1      27.196  44.675  54.965  1.00  0.00     0.163 HD
HETATM   34  O   UNL     1      28.769  47.415  54.891  1.00  0.00    -0.268 OA
BRANCH  32  35
HETATM   35  C   UNL     1      26.151  46.339  54.224  1.00  0.00     0.084 A 
HETATM   36  C   UNL     1      26.254  46.742  52.780  1.00  0.00     0.027 A 
HETATM   37  C   UNL     1      25.385  45.584  53.170  1.00  0.00     0.027 A 
ENDBRANCH  32  35
ENDBRANCH  26  31
ENDBRANCH  22  25
ENDBRANCH  20  21
ENDBRANCH   1  20
TORSDOF 9
ENDMDL
