MODEL 1
REMARK VINA RESULT:     -10.1      0.000      0.000
REMARK  3 active torsions:
REMARK  status: ('A' for Active; 'I' for Inactive)
REMARK    1  A    between atoms: C_4  and  N_5 
REMARK    2  A    between atoms: N_5  and  C_6 
REMARK    3  A    between atoms: C_13  and  C_14 
ROOT
HETATM    1  C   UNL     1      25.005  46.405  50.849  1.00  0.00     0.741 A 
HETATM    2  N   UNL     1      24.877  45.414  51.747  1.00  0.00    -0.066 NA
HETATM    3  C   UNL     1      25.565  45.498  52.907  1.00  0.00     0.069 A 
HETATM    4  C   UNL     1      26.373  46.570  53.200  1.00  0.00     0.053 A 
HETATM    5  C   UNL     1      27.105  46.661  54.470  1.00  0.00     0.163 C 
HETATM    6  O   UNL     1      27.759  47.667  54.727  1.00  0.00    -0.292 OA
HETATM    7  C   UNL     1      26.932  45.533  55.464  1.00  0.00     0.093 C 
HETATM    8  C   UNL     1      26.642  44.184  54.780  1.00  0.00     0.031 C 
HETATM    9  C   UNL     1      25.410  44.351  53.869  1.00  0.00     0.070 C 
HETATM   10  C   UNL     1      26.457  47.542  52.234  1.00  0.00     0.153 A 
HETATM   11  N   UNL     1      25.791  47.477  51.058  1.00  0.00    -0.073 NA
ENDROOT
BRANCH   1  12
HETATM   12  N   UNL     1      24.348  46.377  49.639  1.00  0.00    -0.015 N 
HETATM   13  H   UNL     1      24.686  45.679  49.004  1.00  0.00     0.203 HD
BRANCH  12  14
HETATM   14  C   UNL     1      23.344  47.165  49.119  1.00  0.00     0.742 A 
HETATM   15  N   UNL     1      22.534  46.554  48.238  1.00  0.00    -0.066 NA
HETATM   16  C   UNL     1      21.540  47.279  47.680  1.00  0.00     0.062 A 
HETATM   17  C   UNL     1      20.665  46.537  46.711  1.00  0.00     0.072 C 
HETATM   18  C   UNL     1      21.332  48.630  47.976  1.00  0.00     0.018 A 
HETATM   19  C   UNL     1      22.230  49.168  48.901  1.00  0.00     0.088 A 
HETATM   20  C   UNL     1      20.320  49.453  47.421  1.00  0.00     0.016 A 
HETATM   21  N   UNL     1      23.208  48.451  49.461  1.00  0.00    -0.062 NA
HETATM   22  C   UNL     1      22.101  50.505  49.255  1.00  0.00     0.033 A 
HETATM   23  C   UNL     1      21.106  51.321  48.709  1.00  0.00     0.002 A 
HETATM   24  C   UNL     1      20.211  50.792  47.789  1.00  0.00     0.001 A 
ENDBRANCH  12  14
ENDBRANCH   1  12
BRANCH   8  25
HETATM   25  C   UNL     1      27.892  43.579  54.140  1.00  0.00    -0.053 A 
HETATM   26  C   UNL     1      29.137  43.785  54.765  1.00  0.00     0.007 A 
HETATM   27  C   UNL     1      30.315  43.266  54.223  1.00  0.00     0.001 A 
HETATM   28  C   UNL     1      30.274  42.522  53.051  1.00  0.00     0.000 A 
HETATM   29  C   UNL     1      29.052  42.287  52.428  1.00  0.00     0.001 A 
HETATM   30  C   UNL     1      27.871  42.806  52.970  1.00  0.00     0.007 A 
ENDBRANCH   8  25
TORSDOF 3
ENDMDL
MODEL 2
REMARK VINA RESULT:      -9.7      0.569      1.762
REMARK  3 active torsions:
REMARK  status: ('A' for Active; 'I' for Inactive)
REMARK    1  A    between atoms: C_4  and  N_5 
REMARK    2  A    between atoms: N_5  and  C_6 
REMARK    3  A    between atoms: C_13  and  C_14 
ROOT
HETATM    1  C   UNL     1      24.962  46.490  50.946  1.00  0.00     0.741 A 
HETATM    2  N   UNL     1      24.826  45.483  51.824  1.00  0.00    -0.066 NA
HETATM    3  C   UNL     1      25.542  45.522  52.970  1.00  0.00     0.069 A 
HETATM    4  C   UNL     1      26.384  46.565  53.269  1.00  0.00     0.053 A 
HETATM    5  C   UNL     1      27.145  46.608  54.524  1.00  0.00     0.163 C 
HETATM    6  O   UNL     1      27.832  47.590  54.789  1.00  0.00    -0.292 OA
HETATM    7  C   UNL     1      26.963  45.461  55.496  1.00  0.00     0.093 C 
HETATM    8  C   UNL     1      26.623  44.137  54.789  1.00  0.00     0.031 C 
HETATM    9  C   UNL     1      25.377  44.357  53.909  1.00  0.00     0.070 C 
HETATM   10  C   UNL     1      26.473  47.557  52.324  1.00  0.00     0.153 A 
HETATM   11  N   UNL     1      25.780  47.537  51.161  1.00  0.00    -0.073 NA
ENDROOT
BRANCH   1  12
HETATM   12  N   UNL     1      24.279  46.508  49.750  1.00  0.00    -0.015 N 
HETATM   13  H   UNL     1      24.501  45.745  49.138  1.00  0.00     0.203 HD
BRANCH  12  14
HETATM   14  C   UNL     1      23.381  47.407  49.216  1.00  0.00     0.742 A 
HETATM   15  N   UNL     1      23.672  48.701  49.427  1.00  0.00    -0.066 NA
HETATM   16  C   UNL     1      22.820  49.632  48.942  1.00  0.00     0.062 A 
HETATM   17  C   UNL     1      23.205  51.059  49.203  1.00  0.00     0.072 C 
HETATM   18  C   UNL     1      21.655  49.298  48.243  1.00  0.00     0.018 A 
HETATM   19  C   UNL     1      21.447  47.926  48.080  1.00  0.00     0.088 A 
HETATM   20  C   UNL     1      20.713  50.218  47.717  1.00  0.00     0.016 A 
HETATM   21  N   UNL     1      22.292  47.006  48.552  1.00  0.00    -0.062 NA
HETATM   22  C   UNL     1      20.313  47.501  47.400  1.00  0.00     0.033 A 
HETATM   23  C   UNL     1      19.381  48.403  46.881  1.00  0.00     0.002 A 
HETATM   24  C   UNL     1      19.582  49.768  47.040  1.00  0.00     0.001 A 
ENDBRANCH  12  14
ENDBRANCH   1  12
BRANCH   8  25
HETATM   25  C   UNL     1      27.842  43.514  54.108  1.00  0.00    -0.053 A 
HETATM   26  C   UNL     1      29.105  43.674  54.709  1.00  0.00     0.007 A 
HETATM   27  C   UNL     1      30.258  43.138  54.130  1.00  0.00     0.001 A 
HETATM   28  C   UNL     1      30.171  42.421  52.943  1.00  0.00     0.000 A 
HETATM   29  C   UNL     1      28.930  42.231  52.343  1.00  0.00     0.001 A 
HETATM   30  C   UNL     1      27.775  42.768  52.922  1.00  0.00     0.007 A 
ENDBRANCH   8  25
TORSDOF 3
ENDMDL
MODEL 3
REMARK VINA RESULT:      -9.7      4.227      7.635
REMARK  3 active torsions:
REMARK  status: ('A' for Active; 'I' for Inactive)
REMARK    1  A    between atoms: C_4  and  N_5 
REMARK    2  A    between atoms: N_5  and  C_6 
REMARK    3  A    between atoms: C_13  and  C_14 
ROOT
HETATM    1  C   UNL     1      26.404  43.674  49.852  1.00  0.00     0.741 A 
HETATM    2  N   UNL     1      25.985  43.397  51.098  1.00  0.00    -0.066 NA
HETATM    3  C   UNL     1      25.923  44.402  51.998  1.00  0.00     0.069 A 
HETATM    4  C   UNL     1      26.256  45.696  51.674  1.00  0.00     0.053 A 
HETATM    5  C   UNL     1      26.169  46.785  52.654  1.00  0.00     0.163 C 
HETATM    6  O   UNL     1      26.405  47.939  52.308  1.00  0.00    -0.292 OA
HETATM    7  C   UNL     1      25.685  46.441  54.047  1.00  0.00     0.093 C 
HETATM    8  C   UNL     1      26.036  44.998  54.454  1.00  0.00     0.031 C 
HETATM    9  C   UNL     1      25.474  44.038  53.388  1.00  0.00     0.070 C 
HETATM   10  C   UNL     1      26.677  45.902  50.383  1.00  0.00     0.153 A 
HETATM   11  N   UNL     1      26.764  44.912  49.465  1.00  0.00    -0.073 NA
ENDROOT
BRANCH   1  12
HETATM   12  N   UNL     1      26.510  42.697  48.888  1.00  0.00    -0.015 N 
HETATM   13  H   UNL     1      25.922  42.841  48.089  1.00  0.00     0.203 HD
BRANCH  12  14
HETATM   14  C   UNL     1      27.239  41.527  48.839  1.00  0.00     0.742 A 
HETATM   15  N   UNL     1      27.289  40.934  47.635  1.00  0.00    -0.066 NA
HETATM   16  C   UNL     1      27.975  39.774  47.527  1.00  0.00     0.062 A 
HETATM   17  C   UNL     1      28.003  39.166  46.154  1.00  0.00     0.072 C 
HETATM   18  C   UNL     1      28.619  39.173  48.613  1.00  0.00     0.018 A 
HETATM   19  C   UNL     1      28.502  39.871  49.817  1.00  0.00     0.088 A 
HETATM   20  C   UNL     1      29.344  37.955  48.575  1.00  0.00     0.016 A 
HETATM   21  N   UNL     1      27.833  41.021  49.925  1.00  0.00    -0.062 NA
HETATM   22  C   UNL     1      29.108  39.346  50.952  1.00  0.00     0.033 A 
HETATM   23  C   UNL     1      29.823  38.146  50.920  1.00  0.00     0.002 A 
HETATM   24  C   UNL     1      29.941  37.447  49.726  1.00  0.00     0.001 A 
ENDBRANCH  12  14
ENDBRANCH   1  12
BRANCH   8  25
HETATM   25  C   UNL     1      27.516  44.841  54.807  1.00  0.00    -0.053 A 
HETATM   26  C   UNL     1      28.137  45.844  55.576  1.00  0.00     0.007 A 
HETATM   27  C   UNL     1      29.487  45.762  55.922  1.00  0.00     0.001 A 
HETATM   28  C   UNL     1      30.244  44.670  55.516  1.00  0.00     0.000 A 
HETATM   29  C   UNL     1      29.647  43.655  54.775  1.00  0.00     0.001 A 
HETATM   30  C   UNL     1      28.294  43.736  54.428  1.00  0.00     0.007 A 
ENDBRANCH   8  25
TORSDOF 3
ENDMDL
MODEL 4
REMARK VINA RESULT:      -9.7      1.692      2.606
REMARK  3 active torsions:
REMARK  status: ('A' for Active; 'I' for Inactive)
REMARK    1  A    between atoms: C_4  and  N_5 
REMARK    2  A    between atoms: N_5  and  C_6 
REMARK    3  A    between atoms: C_13  and  C_14 
ROOT
HETATM    1  C   UNL     1      26.011  46.091  51.478  1.00  0.00     0.741 A 
HETATM    2  N   UNL     1      27.059  45.251  51.450  1.00  0.00    -0.066 NA
HETATM    3  C   UNL     1      27.166  44.316  52.420  1.00  0.00     0.069 A 
HETATM    4  C   UNL     1      26.229  44.188  53.417  1.00  0.00     0.053 A 
HETATM    5  C   UNL     1      26.345  43.159  54.458  1.00  0.00     0.163 C 
HETATM    6  O   UNL     1      25.452  43.029  55.290  1.00  0.00    -0.292 OA
HETATM    7  C   UNL     1      27.533  42.223  54.393  1.00  0.00     0.093 C 
HETATM    8  C   UNL     1      28.768  42.882  53.751  1.00  0.00     0.031 C 
HETATM    9  C   UNL     1      28.372  43.417  52.361  1.00  0.00     0.070 C 
HETATM   10  C   UNL     1      25.188  45.083  53.382  1.00  0.00     0.153 A 
HETATM   11  N   UNL     1      25.064  46.038  52.433  1.00  0.00    -0.073 NA
ENDROOT
BRANCH   1  12
HETATM   12  N   UNL     1      25.848  47.079  50.533  1.00  0.00    -0.015 N 
HETATM   13  H   UNL     1      26.690  47.571  50.304  1.00  0.00     0.203 HD
BRANCH  12  14
HETATM   14  C   UNL     1      24.730  47.552  49.880  1.00  0.00     0.742 A 
HETATM   15  N   UNL     1      23.950  46.611  49.323  1.00  0.00    -0.066 NA
HETATM   16  C   UNL     1      22.847  47.014  48.654  1.00  0.00     0.062 A 
HETATM   17  C   UNL     1      22.013  45.915  48.062  1.00  0.00     0.072 C 
HETATM   18  C   UNL     1      22.498  48.362  48.514  1.00  0.00     0.018 A 
HETATM   19  C   UNL     1      23.377  49.257  49.130  1.00  0.00     0.088 A 
HETATM   20  C   UNL     1      21.366  48.856  47.818  1.00  0.00     0.016 A 
HETATM   21  N   UNL     1      24.462  48.860  49.798  1.00  0.00    -0.062 NA
HETATM   22  C   UNL     1      23.111  50.617  49.041  1.00  0.00     0.033 A 
HETATM   23  C   UNL     1      21.998  51.109  48.355  1.00  0.00     0.002 A 
HETATM   24  C   UNL     1      21.121  50.224  47.741  1.00  0.00     0.001 A 
ENDBRANCH  12  14
ENDBRANCH   1  12
BRANCH   8  25
HETATM   25  C   UNL     1      29.455  43.868  54.697  1.00  0.00    -0.053 A 
HETATM   26  C   UNL     1      30.598  43.445  55.400  1.00  0.00     0.007 A 
HETATM   27  C   UNL     1      31.262  44.296  56.286  1.00  0.00     0.001 A 
HETATM   28  C   UNL     1      30.804  45.594  56.479  1.00  0.00     0.000 A 
HETATM   29  C   UNL     1      29.689  46.042  55.777  1.00  0.00     0.001 A 
HETATM   30  C   UNL     1      29.023  45.189  54.890  1.00  0.00     0.007 A 
ENDBRANCH   8  25
TORSDOF 3
ENDMDL
MODEL 5
REMARK VINA RESULT:      -9.5      2.155      9.006
REMARK  3 active torsions:
REMARK  status: ('A' for Active; 'I' for Inactive)
REMARK    1  A    between atoms: C_4  and  N_5 
REMARK    2  A    between atoms: N_5  and  C_6 
REMARK    3  A    between atoms: C_13  and  C_14 
ROOT
HETATM    1  C   UNL     1      24.460  45.662  50.549  1.00  0.00     0.741 A 
HETATM    2  N   UNL     1      23.559  45.726  49.554  1.00  0.00    -0.066 NA
HETATM    3  C   UNL     1      23.304  46.926  48.988  1.00  0.00     0.069 A 
HETATM    4  C   UNL     1      23.949  48.073  49.385  1.00  0.00     0.053 A 
HETATM    5  C   UNL     1      23.677  49.370  48.753  1.00  0.00     0.163 C 
HETATM    6  O   UNL     1      24.324  50.359  49.084  1.00  0.00    -0.292 OA
HETATM    7  C   UNL     1      22.663  49.406  47.629  1.00  0.00     0.093 C 
HETATM    8  C   UNL     1      21.578  48.324  47.779  1.00  0.00     0.031 C 
HETATM    9  C   UNL     1      22.267  46.951  47.897  1.00  0.00     0.070 C 
HETATM   10  C   UNL     1      24.853  47.931  50.408  1.00  0.00     0.153 A 
HETATM   11  N   UNL     1      25.118  46.745  51.003  1.00  0.00    -0.073 NA
ENDROOT
BRANCH   1  12
HETATM   12  N   UNL     1      24.756  44.477  51.184  1.00  0.00    -0.015 N 
HETATM   13  H   UNL     1      23.961  43.890  51.350  1.00  0.00     0.203 HD
BRANCH  12  14
HETATM   14  C   UNL     1      25.938  43.970  51.681  1.00  0.00     0.742 A 
HETATM   15  N   UNL     1      26.406  42.883  51.046  1.00  0.00    -0.066 NA
HETATM   16  C   UNL     1      27.553  42.328  51.498  1.00  0.00     0.062 A 
HETATM   17  C   UNL     1      28.029  41.121  50.741  1.00  0.00     0.072 C 
HETATM   18  C   UNL     1      28.257  42.835  52.595  1.00  0.00     0.018 A 
HETATM   19  C   UNL     1      27.683  43.965  53.182  1.00  0.00     0.088 A 
HETATM   20  C   UNL     1      29.456  42.299  53.128  1.00  0.00     0.016 A 
HETATM   21  N   UNL     1      26.555  44.520  52.732  1.00  0.00    -0.062 NA
HETATM   22  C   UNL     1      28.313  44.537  54.280  1.00  0.00     0.033 A 
HETATM   23  C   UNL     1      29.494  44.012  54.811  1.00  0.00     0.002 A 
HETATM   24  C   UNL     1      30.068  42.888  54.232  1.00  0.00     0.001 A 
ENDBRANCH  12  14
ENDBRANCH   1  12
BRANCH   8  25
HETATM   25  C   UNL     1      20.557  48.675  48.862  1.00  0.00    -0.053 A 
HETATM   26  C   UNL     1      20.547  49.983  49.382  1.00  0.00     0.007 A 
HETATM   27  C   UNL     1      19.646  50.361  50.380  1.00  0.00     0.001 A 
HETATM   28  C   UNL     1      18.727  49.442  50.872  1.00  0.00     0.000 A 
HETATM   29  C   UNL     1      18.704  48.150  50.357  1.00  0.00     0.001 A 
HETATM   30  C   UNL     1      19.606  47.770  49.358  1.00  0.00     0.007 A 
ENDBRANCH   8  25
TORSDOF 3
ENDMDL
MODEL 6
REMARK VINA RESULT:      -9.4      2.516      4.177
REMARK  3 active torsions:
REMARK  status: ('A' for Active; 'I' for Inactive)
REMARK    1  A    between atoms: C_4  and  N_5 
REMARK    2  A    between atoms: N_5  and  C_6 
REMARK    3  A    between atoms: C_13  and  C_14 
ROOT
HETATM    1  C   UNL     1      22.379  45.258  49.013  1.00  0.00     0.741 A 
HETATM    2  N   UNL     1      23.640  45.719  48.980  1.00  0.00    -0.066 NA
HETATM    3  C   UNL     1      24.629  44.935  49.461  1.00  0.00     0.069 A 
HETATM    4  C   UNL     1      24.386  43.678  49.962  1.00  0.00     0.053 A 
HETATM    5  C   UNL     1      25.469  42.826  50.468  1.00  0.00     0.163 C 
HETATM    6  O   UNL     1      25.223  41.683  50.841  1.00  0.00    -0.292 OA
HETATM    7  C   UNL     1      26.880  43.371  50.409  1.00  0.00     0.093 C 
HETATM    8  C   UNL     1      26.924  44.906  50.524  1.00  0.00     0.031 C 
HETATM    9  C   UNL     1      26.022  45.506  49.429  1.00  0.00     0.070 C 
HETATM   10  C   UNL     1      23.074  43.276  49.966  1.00  0.00     0.153 A 
HETATM   11  N   UNL     1      22.061  44.046  49.505  1.00  0.00    -0.073 NA
ENDROOT
BRANCH   1  12
HETATM   12  N   UNL     1      21.320  46.010  48.557  1.00  0.00    -0.015 N 
HETATM   13  H   UNL     1      20.637  45.489  48.040  1.00  0.00     0.203 HD
BRANCH  12  14
HETATM   14  C   UNL     1      21.047  47.359  48.637  1.00  0.00     0.742 A 
HETATM   15  N   UNL     1      22.006  48.167  48.156  1.00  0.00    -0.066 NA
HETATM   16  C   UNL     1      21.804  49.502  48.220  1.00  0.00     0.062 A 
HETATM   17  C   UNL     1      22.908  50.350  47.659  1.00  0.00     0.072 C 
HETATM   18  C   UNL     1      20.649  50.066  48.773  1.00  0.00     0.018 A 
HETATM   19  C   UNL     1      19.717  49.138  49.244  1.00  0.00     0.088 A 
HETATM   20  C   UNL     1      20.376  51.452  48.884  1.00  0.00     0.016 A 
HETATM   21  N   UNL     1      19.911  47.819  49.174  1.00  0.00    -0.062 NA
HETATM   22  C   UNL     1      18.540  49.607  49.812  1.00  0.00     0.033 A 
HETATM   23  C   UNL     1      18.267  50.972  49.926  1.00  0.00     0.002 A 
HETATM   24  C   UNL     1      19.189  51.899  49.459  1.00  0.00     0.001 A 
ENDBRANCH  12  14
ENDBRANCH   1  12
BRANCH   8  25
HETATM   25  C   UNL     1      26.678  45.386  51.955  1.00  0.00    -0.053 A 
HETATM   26  C   UNL     1      26.055  46.633  52.151  1.00  0.00     0.007 A 
HETATM   27  C   UNL     1      25.813  47.130  53.434  1.00  0.00     0.001 A 
HETATM   28  C   UNL     1      26.179  46.386  54.549  1.00  0.00     0.000 A 
HETATM   29  C   UNL     1      26.776  45.141  54.379  1.00  0.00     0.001 A 
HETATM   30  C   UNL     1      27.019  44.642  53.095  1.00  0.00     0.007 A 
ENDBRANCH   8  25
TORSDOF 3
ENDMDL
MODEL 7
REMARK VINA RESULT:      -9.3      5.281      8.667
REMARK  3 active torsions:
REMARK  status: ('A' for Active; 'I' for Inactive)
REMARK    1  A    between atoms: C_4  and  N_5 
REMARK    2  A    between atoms: N_5  and  C_6 
REMARK    3  A    between atoms: C_13  and  C_14 
ROOT
HETATM    1  C   UNL     1      26.048  43.065  49.876  1.00  0.00     0.741 A 
HETATM    2  N   UNL     1      27.095  42.597  49.176  1.00  0.00    -0.066 NA
HETATM    3  C   UNL     1      26.907  41.539  48.358  1.00  0.00     0.069 A 
HETATM    4  C   UNL     1      25.678  40.941  48.208  1.00  0.00     0.053 A 
HETATM    5  C   UNL     1      25.479  39.802  47.305  1.00  0.00     0.163 C 
HETATM    6  O   UNL     1      24.353  39.340  47.142  1.00  0.00    -0.292 OA
HETATM    7  C   UNL     1      26.676  39.305  46.523  1.00  0.00     0.093 C 
HETATM    8  C   UNL     1      28.004  39.537  47.268  1.00  0.00     0.031 C 
HETATM    9  C   UNL     1      28.115  41.034  47.616  1.00  0.00     0.070 C 
HETATM   10  C   UNL     1      24.657  41.471  48.957  1.00  0.00     0.153 A 
HETATM   11  N   UNL     1      24.820  42.521  49.795  1.00  0.00    -0.073 NA
ENDROOT
BRANCH   1  12
HETATM   12  N   UNL     1      26.171  44.128  50.742  1.00  0.00    -0.015 N 
HETATM   13  H   UNL     1      25.647  44.939  50.474  1.00  0.00     0.203 HD
BRANCH  12  14
HETATM   14  C   UNL     1      26.922  44.302  51.885  1.00  0.00     0.742 A 
HETATM   15  N   UNL     1      26.511  45.291  52.695  1.00  0.00    -0.066 NA
HETATM   16  C   UNL     1      27.217  45.523  53.824  1.00  0.00     0.062 A 
HETATM   17  C   UNL     1      26.702  46.635  54.692  1.00  0.00     0.072 C 
HETATM   18  C   UNL     1      28.352  44.783  54.171  1.00  0.00     0.018 A 
HETATM   19  C   UNL     1      28.693  43.780  53.259  1.00  0.00     0.088 A 
HETATM   20  C   UNL     1      29.145  44.977  55.330  1.00  0.00     0.016 A 
HETATM   21  N   UNL     1      27.992  43.545  52.148  1.00  0.00    -0.062 NA
HETATM   22  C   UNL     1      29.809  42.996  53.520  1.00  0.00     0.033 A 
HETATM   23  C   UNL     1      30.595  43.184  54.660  1.00  0.00     0.002 A 
HETATM   24  C   UNL     1      30.261  44.179  55.569  1.00  0.00     0.001 A 
ENDBRANCH  12  14
ENDBRANCH   1  12
BRANCH   8  25
HETATM   25  C   UNL     1      28.202  38.549  48.419  1.00  0.00    -0.053 A 
HETATM   26  C   UNL     1      29.396  38.609  49.162  1.00  0.00     0.007 A 
HETATM   27  C   UNL     1      29.640  37.726  50.217  1.00  0.00     0.001 A 
HETATM   28  C   UNL     1      28.690  36.772  50.559  1.00  0.00     0.000 A 
HETATM   29  C   UNL     1      27.493  36.708  49.852  1.00  0.00     0.001 A 
HETATM   30  C   UNL     1      27.248  37.592  48.796  1.00  0.00     0.007 A 
ENDBRANCH   8  25
TORSDOF 3
ENDMDL
MODEL 8
REMARK VINA RESULT:      -9.1      4.132      7.477
REMARK  3 active torsions:
REMARK  status: ('A' for Active; 'I' for Inactive)
REMARK    1  A    between atoms: C_4  and  N_5 
REMARK    2  A    between atoms: N_5  and  C_6 
REMARK    3  A    between atoms: C_13  and  C_14 
ROOT
HETATM    1  C   UNL     1      25.717  43.415  49.903  1.00  0.00     0.741 A 
HETATM    2  N   UNL     1      25.373  43.236  51.190  1.00  0.00    -0.066 NA
HETATM    3  C   UNL     1      25.528  44.266  52.050  1.00  0.00     0.069 A 
HETATM    4  C   UNL     1      26.005  45.490  51.647  1.00  0.00     0.053 A 
HETATM    5  C   UNL     1      26.154  46.608  52.586  1.00  0.00     0.163 C 
HETATM    6  O   UNL     1      26.515  47.707  52.174  1.00  0.00    -0.292 OA
HETATM    7  C   UNL     1      25.750  46.377  54.026  1.00  0.00     0.093 C 
HETATM    8  C   UNL     1      25.934  44.912  54.462  1.00  0.00     0.031 C 
HETATM    9  C   UNL     1      25.155  44.008  53.486  1.00  0.00     0.070 C 
HETATM   10  C   UNL     1      26.338  45.597  50.319  1.00  0.00     0.153 A 
HETATM   11  N   UNL     1      26.208  44.579  49.438  1.00  0.00    -0.073 NA
ENDROOT
BRANCH   1  12
HETATM   12  N   UNL     1      25.604  42.405  48.975  1.00  0.00    -0.015 N 
HETATM   13  H   UNL     1      24.778  42.457  48.408  1.00  0.00     0.203 HD
BRANCH  12  14
HETATM   14  C   UNL     1      26.391  41.304  48.712  1.00  0.00     0.742 A 
HETATM   15  N   UNL     1      27.170  40.901  49.729  1.00  0.00    -0.066 NA
HETATM   16  C   UNL     1      27.977  39.835  49.528  1.00  0.00     0.062 A 
HETATM   17  C   UNL     1      28.816  39.428  50.705  1.00  0.00     0.072 C 
HETATM   18  C   UNL     1      28.036  39.151  48.309  1.00  0.00     0.018 A 
HETATM   19  C   UNL     1      27.187  39.653  47.319  1.00  0.00     0.088 A 
HETATM   20  C   UNL     1      28.865  38.037  48.024  1.00  0.00     0.016 A 
HETATM   21  N   UNL     1      26.383  40.700  47.519  1.00  0.00    -0.062 NA
HETATM   22  C   UNL     1      27.181  39.038  46.074  1.00  0.00     0.033 A 
HETATM   23  C   UNL     1      27.997  37.941  45.787  1.00  0.00     0.002 A 
HETATM   24  C   UNL     1      28.843  37.438  46.767  1.00  0.00     0.001 A 
ENDBRANCH  12  14
ENDBRANCH   1  12
BRANCH   8  25
HETATM   25  C   UNL     1      27.403  44.559  54.700  1.00  0.00    -0.053 A 
HETATM   26  C   UNL     1      28.213  45.477  55.394  1.00  0.00     0.007 A 
HETATM   27  C   UNL     1      29.565  45.216  55.633  1.00  0.00     0.001 A 
HETATM   28  C   UNL     1      30.132  44.027  55.192  1.00  0.00     0.000 A 
HETATM   29  C   UNL     1      29.345  43.096  54.523  1.00  0.00     0.001 A 
HETATM   30  C   UNL     1      27.992  43.355  54.283  1.00  0.00     0.007 A 
ENDBRANCH   8  25
TORSDOF 3
ENDMDL
MODEL 9
REMARK VINA RESULT:      -9.1     13.470     16.082
REMARK  3 active torsions:
REMARK  status: ('A' for Active; 'I' for Inactive)
REMARK    1  A    between atoms: C_4  and  N_5 
REMARK    2  A    between atoms: N_5  and  C_6 
REMARK    3  A    between atoms: C_13  and  C_14 
ROOT
HETATM    1  C   UNL     1      35.009  51.489  42.280  1.00  0.00     0.741 A 
HETATM    2  N   UNL     1      33.755  51.607  42.748  1.00  0.00    -0.066 NA
HETATM    3  C   UNL     1      32.859  50.642  42.450  1.00  0.00     0.069 A 
HETATM    4  C   UNL     1      33.195  49.539  41.701  1.00  0.00     0.053 A 
HETATM    5  C   UNL     1      32.218  48.487  41.395  1.00  0.00     0.163 C 
HETATM    6  O   UNL     1      32.573  47.482  40.785  1.00  0.00    -0.292 OA
HETATM    7  C   UNL     1      30.817  48.645  41.945  1.00  0.00     0.093 C 
HETATM    8  C   UNL     1      30.408  50.122  42.101  1.00  0.00     0.031 C 
HETATM    9  C   UNL     1      31.461  50.833  42.974  1.00  0.00     0.070 C 
HETATM   10  C   UNL     1      34.492  49.488  41.255  1.00  0.00     0.153 A 
HETATM   11  N   UNL     1      35.407  50.448  41.525  1.00  0.00    -0.073 NA
ENDROOT
BRANCH   1  12
HETATM   12  N   UNL     1      35.970  52.443  42.528  1.00  0.00    -0.015 N 
HETATM   13  H   UNL     1      36.012  53.173  41.842  1.00  0.00     0.203 HD
BRANCH  12  14
HETATM   14  C   UNL     1      36.919  52.557  43.521  1.00  0.00     0.742 A 
HETATM   15  N   UNL     1      37.839  51.579  43.548  1.00  0.00    -0.066 NA
HETATM   16  C   UNL     1      38.788  51.625  44.509  1.00  0.00     0.062 A 
HETATM   17  C   UNL     1      39.792  50.509  44.481  1.00  0.00     0.072 C 
HETATM   18  C   UNL     1      38.840  52.639  45.472  1.00  0.00     0.018 A 
HETATM   19  C   UNL     1      37.837  53.604  45.354  1.00  0.00     0.088 A 
HETATM   20  C   UNL     1      39.797  52.744  46.513  1.00  0.00     0.016 A 
HETATM   21  N   UNL     1      36.904  53.565  44.400  1.00  0.00    -0.062 NA
HETATM   22  C   UNL     1      37.808  54.648  46.269  1.00  0.00     0.033 A 
HETATM   23  C   UNL     1      38.747  54.756  47.298  1.00  0.00     0.002 A 
HETATM   24  C   UNL     1      39.746  53.799  47.420  1.00  0.00     0.001 A 
ENDBRANCH  12  14
ENDBRANCH   1  12
BRANCH   8  25
HETATM   25  C   UNL     1      30.076  50.775  40.758  1.00  0.00    -0.053 A 
HETATM   26  C   UNL     1      29.999  52.178  40.691  1.00  0.00     0.007 A 
HETATM   27  C   UNL     1      29.690  52.832  39.496  1.00  0.00     0.001 A 
HETATM   28  C   UNL     1      29.461  52.096  38.340  1.00  0.00     0.000 A 
HETATM   29  C   UNL     1      29.554  50.709  38.377  1.00  0.00     0.001 A 
HETATM   30  C   UNL     1      29.863  50.053  39.574  1.00  0.00     0.007 A 
ENDBRANCH   8  25
TORSDOF 3
ENDMDL
MODEL 10
REMARK VINA RESULT:      -9.0      2.970      9.494
REMARK  3 active torsions:
REMARK  status: ('A' for Active; 'I' for Inactive)
REMARK    1  A    between atoms: C_4  and  N_5 
REMARK    2  A    between atoms: N_5  and  C_6 
REMARK    3  A    between atoms: C_13  and  C_14 
ROOT
HETATM    1  C   UNL     1      22.878  49.508  49.064  1.00  0.00     0.741 A 
HETATM    2  N   UNL     1      22.178  49.536  47.917  1.00  0.00    -0.066 NA
HETATM    3  C   UNL     1      21.036  50.256  47.873  1.00  0.00     0.069 A 
HETATM    4  C   UNL     1      20.582  50.972  48.955  1.00  0.00     0.053 A 
HETATM    5  C   UNL     1      19.348  51.765  48.893  1.00  0.00     0.163 C 
HETATM    6  O   UNL     1      19.013  52.449  49.856  1.00  0.00    -0.292 OA
HETATM    7  C   UNL     1      18.588  51.783  47.584  1.00  0.00     0.093 C 
HETATM    8  C   UNL     1      18.766  50.481  46.781  1.00  0.00     0.031 C 
HETATM    9  C   UNL     1      20.273  50.234  46.576  1.00  0.00     0.070 C 
HETATM   10  C   UNL     1      21.348  50.894  50.092  1.00  0.00     0.153 A 
HETATM   11  N   UNL     1      22.488  50.169  50.169  1.00  0.00    -0.073 NA
ENDROOT
BRANCH   1  12
HETATM   12  N   UNL     1      24.041  48.781  49.186  1.00  0.00    -0.015 N 
HETATM   13  H   UNL     1      24.781  49.084  48.582  1.00  0.00     0.203 HD
BRANCH  12  14
HETATM   14  C   UNL     1      24.361  47.679  49.951  1.00  0.00     0.742 A 
HETATM   15  N   UNL     1      23.892  46.508  49.492  1.00  0.00    -0.066 NA
HETATM   16  C   UNL     1      24.159  45.392  50.207  1.00  0.00     0.062 A 
HETATM   17  C   UNL     1      23.616  44.114  49.637  1.00  0.00     0.072 C 
HETATM   18  C   UNL     1      24.891  45.416  51.399  1.00  0.00     0.018 A 
HETATM   19  C   UNL     1      25.330  46.684  51.787  1.00  0.00     0.088 A 
HETATM   20  C   UNL     1      25.197  44.290  52.204  1.00  0.00     0.016 A 
HETATM   21  N   UNL     1      25.074  47.786  51.077  1.00  0.00    -0.062 NA
HETATM   22  C   UNL     1      26.062  46.805  52.960  1.00  0.00     0.033 A 
HETATM   23  C   UNL     1      26.366  45.699  53.759  1.00  0.00     0.002 A 
HETATM   24  C   UNL     1      25.932  44.436  53.379  1.00  0.00     0.001 A 
ENDBRANCH  12  14
ENDBRANCH   1  12
BRANCH   8  25
HETATM   25  C   UNL     1      17.954  49.324  47.367  1.00  0.00    -0.053 A 
HETATM   26  C   UNL     1      16.602  49.544  47.691  1.00  0.00     0.007 A 
HETATM   27  C   UNL     1      15.812  48.531  48.239  1.00  0.00     0.001 A 
HETATM   28  C   UNL     1      16.355  47.272  48.465  1.00  0.00     0.000 A 
HETATM   29  C   UNL     1      17.683  47.025  48.132  1.00  0.00     0.001 A 
HETATM   30  C   UNL     1      18.475  48.039  47.584  1.00  0.00     0.007 A 
ENDBRANCH   8  25
TORSDOF 3
ENDMDL
