MODEL 1
REMARK VINA RESULT:      -8.9      0.000      0.000
REMARK  5 active torsions:
REMARK  status: ('A' for Active; 'I' for Inactive)
REMARK    1  A    between atoms: C_9  and  C_10 
REMARK       I    between atoms: C_10  and  N_11 
REMARK    2  A    between atoms: N_11  and  C_12 
REMARK    3  A    between atoms: C_12  and  C_13 
REMARK    4  A    between atoms: C_16  and  N_17 
REMARK       I    between atoms: N_17  and  C_18 
REMARK    5  A    between atoms: C_18  and  O_19 
ROOT
HETATM    1  C   UNL     1      26.336  46.882  49.971  1.00  0.00     0.273 C 
HETATM    2  N   UNL     1      25.812  46.773  51.240  1.00  0.00    -0.351 N 
HETATM    3  O   UNL     1      27.001  45.994  49.445  1.00  0.00    -0.266 OA
HETATM    4  H   UNL     1      25.189  47.523  51.529  1.00  0.00     0.163 HD
ENDROOT
BRANCH   2   5
HETATM    5  C   UNL     1      25.882  45.540  51.972  1.00  0.00     0.161 C 
BRANCH   5   6
HETATM    6  C   UNL     1      26.693  45.688  53.229  1.00  0.00    -0.040 A 
HETATM    7  C   UNL     1      27.337  44.584  53.800  1.00  0.00     0.011 A 
HETATM    8  C   UNL     1      28.106  44.723  54.964  1.00  0.00     0.030 A 
HETATM    9  C   UNL     1      28.238  45.965  55.585  1.00  0.00     0.036 A 
HETATM   10  C   UNL     1      27.568  47.063  55.027  1.00  0.00     0.030 A 
HETATM   11  C   UNL     1      26.802  46.928  53.866  1.00  0.00     0.011 A 
BRANCH   9  12
HETATM   12  N   UNL     1      28.998  46.215  56.741  1.00  0.00    -0.303 N 
HETATM   13  C   UNL     1      30.234  45.789  57.149  1.00  0.00     0.364 C 
HETATM   14  O   UNL     1      30.690  46.165  58.224  1.00  0.00    -0.238 OA
HETATM   15  H   UNL     1      28.595  46.844  57.424  1.00  0.00     0.171 HD
BRANCH  13  16
HETATM   16  O   UNL     1      30.885  44.960  56.296  1.00  0.00    -0.309 OA
HETATM   17  C   UNL     1      31.356  43.753  56.895  1.00  0.00     0.215 C 
ENDBRANCH  13  16
ENDBRANCH   9  12
ENDBRANCH   5   6
ENDBRANCH   2   5
BRANCH   1  18
HETATM   18  C   UNL     1      26.006  48.152  49.306  1.00  0.00     0.157 A 
HETATM   19  C   UNL     1      24.704  48.674  49.043  1.00  0.00     0.029 A 
HETATM   20  C   UNL     1      23.377  48.256  49.268  1.00  0.00     0.023 A 
HETATM   21  C   UNL     1      24.924  49.893  48.413  1.00  0.00     0.063 A 
HETATM   22  C   UNL     1      22.312  49.073  48.853  1.00  0.00    -0.061 A 
HETATM   23  C   UNL     1      20.892  48.647  49.087  1.00  0.00     0.048 C 
HETATM   24  C   UNL     1      22.578  50.295  48.222  1.00  0.00     0.009 A 
HETATM   25  C   UNL     1      23.888  50.730  47.987  1.00  0.00     0.032 A 
HETATM   26  N   UNL     1      26.283  50.020  48.339  1.00  0.00    -0.277 N 
HETATM   27  H   UNL     1      26.804  50.790  47.935  1.00  0.00     0.189 HD
HETATM   28  N   UNL     1      26.970  48.994  48.872  1.00  0.00    -0.168 NA
ENDBRANCH   1  18
TORSDOF 5
ENDMDL
MODEL 2
REMARK VINA RESULT:      -8.8      3.186      9.274
REMARK  5 active torsions:
REMARK  status: ('A' for Active; 'I' for Inactive)
REMARK    1  A    between atoms: C_9  and  C_10 
REMARK       I    between atoms: C_10  and  N_11 
REMARK    2  A    between atoms: N_11  and  C_12 
REMARK    3  A    between atoms: C_12  and  C_13 
REMARK    4  A    between atoms: C_16  and  N_17 
REMARK       I    between atoms: N_17  and  C_18 
REMARK    5  A    between atoms: C_18  and  O_19 
ROOT
HETATM    1  C   UNL     1      25.541  46.631  52.110  1.00  0.00     0.273 C 
HETATM    2  N   UNL     1      25.939  47.520  51.136  1.00  0.00    -0.351 N 
HETATM    3  O   UNL     1      24.770  45.700  51.890  1.00  0.00    -0.266 OA
HETATM    4  H   UNL     1      26.661  48.182  51.407  1.00  0.00     0.163 HD
ENDROOT
BRANCH   2   5
HETATM    5  C   UNL     1      25.593  47.319  49.757  1.00  0.00     0.161 C 
BRANCH   5   6
HETATM    6  C   UNL     1      24.476  48.228  49.328  1.00  0.00    -0.040 A 
HETATM    7  C   UNL     1      23.146  47.793  49.359  1.00  0.00     0.011 A 
HETATM    8  C   UNL     1      22.101  48.644  48.973  1.00  0.00     0.030 A 
HETATM    9  C   UNL     1      22.366  49.944  48.541  1.00  0.00     0.036 A 
HETATM   10  C   UNL     1      23.701  50.368  48.485  1.00  0.00     0.030 A 
HETATM   11  C   UNL     1      24.745  49.521  48.870  1.00  0.00     0.011 A 
BRANCH   9  12
HETATM   12  N   UNL     1      21.393  50.882  48.152  1.00  0.00    -0.303 N 
HETATM   13  C   UNL     1      20.352  51.469  48.820  1.00  0.00     0.364 C 
HETATM   14  O   UNL     1      19.634  52.282  48.246  1.00  0.00    -0.238 OA
HETATM   15  H   UNL     1      21.450  51.229  47.204  1.00  0.00     0.171 HD
BRANCH  13  16
HETATM   16  O   UNL     1      20.196  51.099  50.115  1.00  0.00    -0.309 OA
HETATM   17  C   UNL     1      19.039  50.299  50.362  1.00  0.00     0.215 C 
ENDBRANCH  13  16
ENDBRANCH   9  12
ENDBRANCH   5   6
ENDBRANCH   2   5
BRANCH   1  18
HETATM   18  C   UNL     1      26.143  46.893  53.427  1.00  0.00     0.157 A 
HETATM   19  C   UNL     1      27.181  46.148  54.063  1.00  0.00     0.029 A 
HETATM   20  C   UNL     1      27.952  45.010  53.752  1.00  0.00     0.023 A 
HETATM   21  C   UNL     1      27.402  46.796  55.272  1.00  0.00     0.063 A 
HETATM   22  C   UNL     1      28.920  44.557  54.665  1.00  0.00    -0.061 A 
HETATM   23  C   UNL     1      29.754  43.349  54.351  1.00  0.00     0.048 C 
HETATM   24  C   UNL     1      29.110  45.241  55.873  1.00  0.00     0.009 A 
HETATM   25  C   UNL     1      28.355  46.374  56.202  1.00  0.00     0.032 A 
HETATM   26  N   UNL     1      26.521  47.842  55.286  1.00  0.00    -0.277 N 
HETATM   27  H   UNL     1      26.401  48.531  56.020  1.00  0.00     0.189 HD
HETATM   28  N   UNL     1      25.750  47.937  54.188  1.00  0.00    -0.168 NA
ENDBRANCH   1  18
TORSDOF 5
ENDMDL
MODEL 3
REMARK VINA RESULT:      -8.8      4.771      8.107
REMARK  5 active torsions:
REMARK  status: ('A' for Active; 'I' for Inactive)
REMARK    1  A    between atoms: C_9  and  C_10 
REMARK       I    between atoms: C_10  and  N_11 
REMARK    2  A    between atoms: N_11  and  C_12 
REMARK    3  A    between atoms: C_12  and  C_13 
REMARK    4  A    between atoms: C_16  and  N_17 
REMARK       I    between atoms: N_17  and  C_18 
REMARK    5  A    between atoms: C_18  and  O_19 
ROOT
HETATM    1  C   UNL     1      25.705  44.927  52.677  1.00  0.00     0.273 C 
HETATM    2  N   UNL     1      26.526  44.737  51.589  1.00  0.00    -0.351 N 
HETATM    3  O   UNL     1      24.567  44.469  52.744  1.00  0.00    -0.266 OA
HETATM    4  H   UNL     1      27.482  45.068  51.689  1.00  0.00     0.163 HD
ENDROOT
BRANCH   2   5
HETATM    5  C   UNL     1      26.154  43.852  50.520  1.00  0.00     0.161 C 
BRANCH   5   6
HETATM    6  C   UNL     1      26.849  42.524  50.635  1.00  0.00    -0.040 A 
HETATM    7  C   UNL     1      26.474  41.448  49.822  1.00  0.00     0.011 A 
HETATM    8  C   UNL     1      27.130  40.212  49.917  1.00  0.00     0.030 A 
HETATM    9  C   UNL     1      28.167  40.026  50.831  1.00  0.00     0.036 A 
HETATM   10  C   UNL     1      28.522  41.097  51.663  1.00  0.00     0.030 A 
HETATM   11  C   UNL     1      27.869  42.331  51.570  1.00  0.00     0.011 A 
BRANCH   9  12
HETATM   12  N   UNL     1      28.901  38.838  50.993  1.00  0.00    -0.303 N 
HETATM   13  C   UNL     1      29.665  38.096  50.132  1.00  0.00     0.364 C 
HETATM   14  O   UNL     1      30.222  37.076  50.527  1.00  0.00    -0.238 OA
HETATM   15  H   UNL     1      28.905  38.427  51.917  1.00  0.00     0.171 HD
BRANCH  13  16
HETATM   16  O   UNL     1      29.756  38.568  48.865  1.00  0.00    -0.309 OA
HETATM   17  C   UNL     1      29.044  37.795  47.897  1.00  0.00     0.215 C 
ENDBRANCH  13  16
ENDBRANCH   9  12
ENDBRANCH   5   6
ENDBRANCH   2   5
BRANCH   1  18
HETATM   18  C   UNL     1      26.329  45.713  53.754  1.00  0.00     0.157 A 
HETATM   19  C   UNL     1      27.537  45.411  54.451  1.00  0.00     0.029 A 
HETATM   20  C   UNL     1      28.500  44.384  54.417  1.00  0.00     0.023 A 
HETATM   21  C   UNL     1      27.702  46.454  55.355  1.00  0.00     0.063 A 
HETATM   22  C   UNL     1      29.599  44.434  55.291  1.00  0.00    -0.061 A 
HETATM   23  C   UNL     1      30.639  43.351  55.267  1.00  0.00     0.048 C 
HETATM   24  C   UNL     1      29.728  45.504  56.186  1.00  0.00     0.009 A 
HETATM   25  C   UNL     1      28.782  46.535  56.237  1.00  0.00     0.032 A 
HETATM   26  N   UNL     1      26.630  47.278  55.153  1.00  0.00    -0.277 N 
HETATM   27  H   UNL     1      26.422  48.142  55.642  1.00  0.00     0.189 HD
HETATM   28  N   UNL     1      25.783  46.869  54.193  1.00  0.00    -0.168 NA
ENDBRANCH   1  18
TORSDOF 5
ENDMDL
MODEL 4
REMARK VINA RESULT:      -8.7      3.077      8.130
REMARK  5 active torsions:
REMARK  status: ('A' for Active; 'I' for Inactive)
REMARK    1  A    between atoms: C_9  and  C_10 
REMARK       I    between atoms: C_10  and  N_11 
REMARK    2  A    between atoms: N_11  and  C_12 
REMARK    3  A    between atoms: C_12  and  C_13 
REMARK    4  A    between atoms: C_16  and  N_17 
REMARK       I    between atoms: N_17  and  C_18 
REMARK    5  A    between atoms: C_18  and  O_19 
ROOT
HETATM    1  C   UNL     1      27.060  42.927  52.070  1.00  0.00     0.273 C 
HETATM    2  N   UNL     1      25.798  43.355  52.417  1.00  0.00    -0.351 N 
HETATM    3  O   UNL     1      27.323  42.446  50.971  1.00  0.00    -0.266 OA
HETATM    4  H   UNL     1      25.721  43.835  53.311  1.00  0.00     0.163 HD
ENDROOT
BRANCH   2   5
HETATM    5  C   UNL     1      24.737  43.408  51.451  1.00  0.00     0.161 C 
BRANCH   5   6
HETATM    6  C   UNL     1      24.584  44.787  50.872  1.00  0.00    -0.040 A 
HETATM    7  C   UNL     1      25.146  45.898  51.510  1.00  0.00     0.011 A 
HETATM    8  C   UNL     1      25.017  47.183  50.964  1.00  0.00     0.030 A 
HETATM    9  C   UNL     1      24.317  47.382  49.774  1.00  0.00     0.036 A 
HETATM   10  C   UNL     1      23.731  46.271  49.151  1.00  0.00     0.030 A 
HETATM   11  C   UNL     1      23.859  44.988  49.694  1.00  0.00     0.011 A 
BRANCH   9  12
HETATM   12  N   UNL     1      24.146  48.622  49.133  1.00  0.00    -0.303 N 
HETATM   13  C   UNL     1      24.989  49.408  48.394  1.00  0.00     0.364 C 
HETATM   14  O   UNL     1      24.588  50.469  47.925  1.00  0.00    -0.238 OA
HETATM   15  H   UNL     1      23.227  49.041  49.191  1.00  0.00     0.171 HD
BRANCH  13  16
HETATM   16  O   UNL     1      26.247  48.930  48.225  1.00  0.00    -0.309 OA
HETATM   17  C   UNL     1      27.268  49.750  48.794  1.00  0.00     0.215 C 
ENDBRANCH  13  16
ENDBRANCH   9  12
ENDBRANCH   5   6
ENDBRANCH   2   5
BRANCH   1  18
HETATM   18  C   UNL     1      28.059  43.120  53.133  1.00  0.00     0.157 A 
HETATM   19  C   UNL     1      28.252  44.286  53.933  1.00  0.00     0.029 A 
HETATM   20  C   UNL     1      27.662  45.562  54.028  1.00  0.00     0.023 A 
HETATM   21  C   UNL     1      29.299  43.967  54.789  1.00  0.00     0.063 A 
HETATM   22  C   UNL     1      28.141  46.479  54.979  1.00  0.00    -0.061 A 
HETATM   23  C   UNL     1      27.523  47.842  55.099  1.00  0.00     0.048 C 
HETATM   24  C   UNL     1      29.198  46.116  55.823  1.00  0.00     0.009 A 
HETATM   25  C   UNL     1      29.800  44.854  55.746  1.00  0.00     0.032 A 
HETATM   26  N   UNL     1      29.654  42.688  54.463  1.00  0.00    -0.277 N 
HETATM   27  H   UNL     1      30.388  42.130  54.885  1.00  0.00     0.189 HD
HETATM   28  N   UNL     1      28.926  42.140  53.474  1.00  0.00    -0.168 NA
ENDBRANCH   1  18
TORSDOF 5
ENDMDL
MODEL 5
REMARK VINA RESULT:      -8.6      2.421      9.318
REMARK  5 active torsions:
REMARK  status: ('A' for Active; 'I' for Inactive)
REMARK    1  A    between atoms: C_9  and  C_10 
REMARK       I    between atoms: C_10  and  N_11 
REMARK    2  A    between atoms: N_11  and  C_12 
REMARK    3  A    between atoms: C_12  and  C_13 
REMARK    4  A    between atoms: C_16  and  N_17 
REMARK       I    between atoms: N_17  and  C_18 
REMARK    5  A    between atoms: C_18  and  O_19 
ROOT
HETATM    1  C   UNL     1      27.799  44.818  53.431  1.00  0.00     0.273 C 
HETATM    2  N   UNL     1      26.726  45.343  52.745  1.00  0.00    -0.351 N 
HETATM    3  O   UNL     1      28.480  43.892  52.998  1.00  0.00    -0.266 OA
HETATM    4  H   UNL     1      26.305  46.176  53.148  1.00  0.00     0.163 HD
ENDROOT
BRANCH   2   5
HETATM    5  C   UNL     1      26.432  44.938  51.399  1.00  0.00     0.161 C 
BRANCH   5   6
HETATM    6  C   UNL     1      25.767  46.039  50.622  1.00  0.00    -0.040 A 
HETATM    7  C   UNL     1      26.454  47.222  50.327  1.00  0.00     0.011 A 
HETATM    8  C   UNL     1      25.841  48.245  49.590  1.00  0.00     0.030 A 
HETATM    9  C   UNL     1      24.527  48.109  49.141  1.00  0.00     0.036 A 
HETATM   10  C   UNL     1      23.832  46.935  49.462  1.00  0.00     0.030 A 
HETATM   11  C   UNL     1      24.442  45.912  50.197  1.00  0.00     0.011 A 
BRANCH   9  12
HETATM   12  N   UNL     1      23.828  49.063  48.381  1.00  0.00    -0.303 N 
HETATM   13  C   UNL     1      22.958  50.064  48.723  1.00  0.00     0.364 C 
HETATM   14  O   UNL     1      22.476  50.783  47.853  1.00  0.00    -0.238 OA
HETATM   15  H   UNL     1      23.984  49.053  47.382  1.00  0.00     0.171 HD
BRANCH  13  16
HETATM   16  O   UNL     1      22.694  50.192  50.046  1.00  0.00    -0.309 OA
HETATM   17  C   UNL     1      21.521  50.952  50.341  1.00  0.00     0.215 C 
ENDBRANCH  13  16
ENDBRANCH   9  12
ENDBRANCH   5   6
ENDBRANCH   2   5
BRANCH   1  18
HETATM   18  C   UNL     1      28.058  45.485  54.717  1.00  0.00     0.157 A 
HETATM   19  C   UNL     1      29.071  45.160  55.667  1.00  0.00     0.029 A 
HETATM   20  C   UNL     1      30.098  44.200  55.769  1.00  0.00     0.023 A 
HETATM   21  C   UNL     1      28.910  46.079  56.696  1.00  0.00     0.063 A 
HETATM   22  C   UNL     1      30.931  44.193  56.901  1.00  0.00    -0.061 A 
HETATM   23  C   UNL     1      32.033  43.181  57.027  1.00  0.00     0.048 C 
HETATM   24  C   UNL     1      30.734  45.139  57.915  1.00  0.00     0.009 A 
HETATM   25  C   UNL     1      29.719  46.101  57.835  1.00  0.00     0.032 A 
HETATM   26  N   UNL     1      27.856  46.863  56.317  1.00  0.00    -0.277 N 
HETATM   27  H   UNL     1      27.456  47.641  56.829  1.00  0.00     0.189 HD
HETATM   28  N   UNL     1      27.320  46.540  55.126  1.00  0.00    -0.168 NA
ENDBRANCH   1  18
TORSDOF 5
ENDMDL
MODEL 6
REMARK VINA RESULT:      -8.5      3.256      8.718
REMARK  5 active torsions:
REMARK  status: ('A' for Active; 'I' for Inactive)
REMARK    1  A    between atoms: C_9  and  C_10 
REMARK       I    between atoms: C_10  and  N_11 
REMARK    2  A    between atoms: N_11  and  C_12 
REMARK    3  A    between atoms: C_12  and  C_13 
REMARK    4  A    between atoms: C_16  and  N_17 
REMARK       I    between atoms: N_17  and  C_18 
REMARK    5  A    between atoms: C_18  and  O_19 
ROOT
HETATM    1  C   UNL     1      26.542  43.155  51.470  1.00  0.00     0.273 C 
HETATM    2  N   UNL     1      26.678  43.463  50.135  1.00  0.00    -0.351 N 
HETATM    3  O   UNL     1      25.458  43.147  52.047  1.00  0.00    -0.266 OA
HETATM    4  H   UNL     1      27.605  43.332  49.740  1.00  0.00     0.163 HD
ENDROOT
BRANCH   2   5
HETATM    5  C   UNL     1      25.530  43.646  49.292  1.00  0.00     0.161 C 
BRANCH   5   6
HETATM    6  C   UNL     1      24.989  45.045  49.389  1.00  0.00    -0.040 A 
HETATM    7  C   UNL     1      25.763  46.076  49.932  1.00  0.00     0.011 A 
HETATM    8  C   UNL     1      25.266  47.384  50.010  1.00  0.00     0.030 A 
HETATM    9  C   UNL     1      23.982  47.685  49.554  1.00  0.00     0.036 A 
HETATM   10  C   UNL     1      23.198  46.645  49.036  1.00  0.00     0.030 A 
HETATM   11  C   UNL     1      23.692  45.339  48.957  1.00  0.00     0.011 A 
BRANCH   9  12
HETATM   12  N   UNL     1      23.397  48.963  49.569  1.00  0.00    -0.303 N 
HETATM   13  C   UNL     1      23.458  50.021  48.701  1.00  0.00     0.364 C 
HETATM   14  O   UNL     1      22.835  51.051  48.941  1.00  0.00    -0.238 OA
HETATM   15  H   UNL     1      22.789  49.177  50.348  1.00  0.00     0.171 HD
BRANCH  13  16
HETATM   16  O   UNL     1      24.225  49.838  47.598  1.00  0.00    -0.309 OA
HETATM   17  C   UNL     1      25.593  50.212  47.765  1.00  0.00     0.215 C 
ENDBRANCH  13  16
ENDBRANCH   9  12
ENDBRANCH   5   6
ENDBRANCH   2   5
BRANCH   1  18
HETATM   18  C   UNL     1      27.815  42.818  52.128  1.00  0.00     0.157 A 
HETATM   19  C   UNL     1      28.405  43.476  53.248  1.00  0.00     0.029 A 
HETATM   20  C   UNL     1      28.075  44.568  54.075  1.00  0.00     0.023 A 
HETATM   21  C   UNL     1      29.584  42.782  53.494  1.00  0.00     0.063 A 
HETATM   22  C   UNL     1      28.939  44.931  55.123  1.00  0.00    -0.061 A 
HETATM   23  C   UNL     1      28.604  46.089  56.017  1.00  0.00     0.048 C 
HETATM   24  C   UNL     1      30.118  44.205  55.336  1.00  0.00     0.009 A 
HETATM   25  C   UNL     1      30.465  43.116  54.526  1.00  0.00     0.032 A 
HETATM   26  N   UNL     1      29.626  41.798  52.547  1.00  0.00    -0.277 N 
HETATM   27  H   UNL     1      30.350  41.099  52.423  1.00  0.00     0.189 HD
HETATM   28  N   UNL     1      28.575  41.782  51.709  1.00  0.00    -0.168 NA
ENDBRANCH   1  18
TORSDOF 5
ENDMDL
MODEL 7
REMARK VINA RESULT:      -8.4      2.356      3.389
REMARK  5 active torsions:
REMARK  status: ('A' for Active; 'I' for Inactive)
REMARK    1  A    between atoms: C_9  and  C_10 
REMARK       I    between atoms: C_10  and  N_11 
REMARK    2  A    between atoms: N_11  and  C_12 
REMARK    3  A    between atoms: C_12  and  C_13 
REMARK    4  A    between atoms: C_16  and  N_17 
REMARK       I    between atoms: N_17  and  C_18 
REMARK    5  A    between atoms: C_18  and  O_19 
ROOT
HETATM    1  C   UNL     1      26.585  44.682  50.276  1.00  0.00     0.273 C 
HETATM    2  N   UNL     1      26.314  43.571  51.044  1.00  0.00    -0.351 N 
HETATM    3  O   UNL     1      27.696  44.913  49.805  1.00  0.00    -0.266 OA
HETATM    4  H   UNL     1      25.338  43.427  51.287  1.00  0.00     0.163 HD
ENDROOT
BRANCH   2   5
HETATM    5  C   UNL     1      27.286  42.528  51.215  1.00  0.00     0.161 C 
BRANCH   5   6
HETATM    6  C   UNL     1      28.128  42.751  52.440  1.00  0.00    -0.040 A 
HETATM    7  C   UNL     1      27.541  43.125  53.653  1.00  0.00     0.011 A 
HETATM    8  C   UNL     1      28.323  43.320  54.801  1.00  0.00     0.030 A 
HETATM    9  C   UNL     1      29.707  43.151  54.755  1.00  0.00     0.036 A 
HETATM   10  C   UNL     1      30.295  42.803  53.531  1.00  0.00     0.030 A 
HETATM   11  C   UNL     1      29.517  42.608  52.385  1.00  0.00     0.011 A 
BRANCH   9  12
HETATM   12  N   UNL     1      30.578  43.302  55.848  1.00  0.00    -0.303 N 
HETATM   13  C   UNL     1      30.918  44.381  56.620  1.00  0.00     0.364 C 
HETATM   14  O   UNL     1      31.717  44.249  57.543  1.00  0.00    -0.238 OA
HETATM   15  H   UNL     1      31.054  42.470  56.170  1.00  0.00     0.171 HD
BRANCH  13  16
HETATM   16  O   UNL     1      30.316  45.552  56.298  1.00  0.00    -0.309 OA
HETATM   17  C   UNL     1      29.348  45.996  57.250  1.00  0.00     0.215 C 
ENDBRANCH  13  16
ENDBRANCH   9  12
ENDBRANCH   5   6
ENDBRANCH   2   5
BRANCH   1  18
HETATM   18  C   UNL     1      25.415  45.547  50.059  1.00  0.00     0.157 A 
HETATM   19  C   UNL     1      25.418  46.912  49.643  1.00  0.00     0.029 A 
HETATM   20  C   UNL     1      26.396  47.873  49.318  1.00  0.00     0.023 A 
HETATM   21  C   UNL     1      24.077  47.272  49.575  1.00  0.00     0.063 A 
HETATM   22  C   UNL     1      25.999  49.165  48.936  1.00  0.00    -0.061 A 
HETATM   23  C   UNL     1      27.025  50.202  48.582  1.00  0.00     0.048 C 
HETATM   24  C   UNL     1      24.636  49.486  48.880  1.00  0.00     0.009 A 
HETATM   25  C   UNL     1      23.647  48.547  49.199  1.00  0.00     0.032 A 
HETATM   26  N   UNL     1      23.385  46.151  49.939  1.00  0.00    -0.277 N 
HETATM   27  H   UNL     1      22.378  46.047  50.004  1.00  0.00     0.189 HD
HETATM   28  N   UNL     1      24.155  45.088  50.232  1.00  0.00    -0.168 NA
ENDBRANCH   1  18
TORSDOF 5
ENDMDL
MODEL 8
REMARK VINA RESULT:      -8.4      3.817      8.541
REMARK  5 active torsions:
REMARK  status: ('A' for Active; 'I' for Inactive)
REMARK    1  A    between atoms: C_9  and  C_10 
REMARK       I    between atoms: C_10  and  N_11 
REMARK    2  A    between atoms: N_11  and  C_12 
REMARK    3  A    between atoms: C_12  and  C_13 
REMARK    4  A    between atoms: C_16  and  N_17 
REMARK       I    between atoms: N_17  and  C_18 
REMARK    5  A    between atoms: C_18  and  O_19 
ROOT
HETATM    1  C   UNL     1      26.712  46.816  54.590  1.00  0.00     0.273 C 
HETATM    2  N   UNL     1      26.782  46.490  53.254  1.00  0.00    -0.351 N 
HETATM    3  O   UNL     1      25.782  47.458  55.073  1.00  0.00    -0.266 OA
HETATM    4  H   UNL     1      27.539  45.865  52.988  1.00  0.00     0.163 HD
ENDROOT
BRANCH   2   5
HETATM    5  C   UNL     1      25.686  46.752  52.364  1.00  0.00     0.161 C 
BRANCH   5   6
HETATM    6  C   UNL     1      25.585  45.706  51.289  1.00  0.00    -0.040 A 
HETATM    7  C   UNL     1      26.736  45.125  50.745  1.00  0.00     0.011 A 
HETATM    8  C   UNL     1      26.644  44.139  49.752  1.00  0.00     0.030 A 
HETATM    9  C   UNL     1      25.400  43.723  49.278  1.00  0.00     0.036 A 
HETATM   10  C   UNL     1      24.249  44.327  49.804  1.00  0.00     0.030 A 
HETATM   11  C   UNL     1      24.339  45.310  50.795  1.00  0.00     0.011 A 
BRANCH   9  12
HETATM   12  N   UNL     1      25.196  42.732  48.301  1.00  0.00    -0.303 N 
HETATM   13  C   UNL     1      25.114  41.366  48.369  1.00  0.00     0.364 C 
HETATM   14  O   UNL     1      24.919  40.710  47.351  1.00  0.00    -0.238 OA
HETATM   15  H   UNL     1      25.062  43.050  47.351  1.00  0.00     0.171 HD
BRANCH  13  16
HETATM   16  O   UNL     1      25.251  40.826  49.605  1.00  0.00    -0.309 OA
HETATM   17  C   UNL     1      26.381  39.965  49.748  1.00  0.00     0.215 C 
ENDBRANCH  13  16
ENDBRANCH   9  12
ENDBRANCH   5   6
ENDBRANCH   2   5
BRANCH   1  18
HETATM   18  C   UNL     1      27.843  46.305  55.381  1.00  0.00     0.157 A 
HETATM   19  C   UNL     1      28.693  45.206  55.057  1.00  0.00     0.029 A 
HETATM   20  C   UNL     1      28.794  44.275  54.003  1.00  0.00     0.023 A 
HETATM   21  C   UNL     1      29.604  45.133  56.104  1.00  0.00     0.063 A 
HETATM   22  C   UNL     1      29.804  43.299  54.034  1.00  0.00    -0.061 A 
HETATM   23  C   UNL     1      29.931  42.301  52.920  1.00  0.00     0.048 C 
HETATM   24  C   UNL     1      30.703  43.262  55.108  1.00  0.00     0.009 A 
HETATM   25  C   UNL     1      30.621  44.176  56.166  1.00  0.00     0.032 A 
HETATM   26  N   UNL     1      29.258  46.146  56.953  1.00  0.00    -0.277 N 
HETATM   27  H   UNL     1      29.707  46.391  57.828  1.00  0.00     0.189 HD
HETATM   28  N   UNL     1      28.205  46.879  56.549  1.00  0.00    -0.168 NA
ENDBRANCH   1  18
TORSDOF 5
ENDMDL
MODEL 9
REMARK VINA RESULT:      -8.2      5.995     11.001
REMARK  5 active torsions:
REMARK  status: ('A' for Active; 'I' for Inactive)
REMARK    1  A    between atoms: C_9  and  C_10 
REMARK       I    between atoms: C_10  and  N_11 
REMARK    2  A    between atoms: N_11  and  C_12 
REMARK    3  A    between atoms: C_12  and  C_13 
REMARK    4  A    between atoms: C_16  and  N_17 
REMARK       I    between atoms: N_17  and  C_18 
REMARK    5  A    between atoms: C_18  and  O_19 
ROOT
HETATM    1  C   UNL     1      21.445  48.317  48.767  1.00  0.00     0.273 C 
HETATM    2  N   UNL     1      20.740  48.980  49.747  1.00  0.00    -0.351 N 
HETATM    3  O   UNL     1      20.978  47.375  48.130  1.00  0.00    -0.266 OA
HETATM    4  H   UNL     1      21.186  49.810  50.129  1.00  0.00     0.163 HD
ENDROOT
BRANCH   2   5
HETATM    5  C   UNL     1      19.350  48.708  49.979  1.00  0.00     0.161 C 
BRANCH   5   6
HETATM    6  C   UNL     1      18.490  49.894  49.639  1.00  0.00    -0.040 A 
HETATM    7  C   UNL     1      17.302  49.733  48.916  1.00  0.00     0.011 A 
HETATM    8  C   UNL     1      16.491  50.835  48.610  1.00  0.00     0.030 A 
HETATM    9  C   UNL     1      16.856  52.119  49.014  1.00  0.00     0.036 A 
HETATM   10  C   UNL     1      18.060  52.281  49.714  1.00  0.00     0.030 A 
HETATM   11  C   UNL     1      18.870  51.183  50.020  1.00  0.00     0.011 A 
BRANCH   9  12
HETATM   12  N   UNL     1      16.107  53.286  48.777  1.00  0.00    -0.303 N 
HETATM   13  C   UNL     1      15.227  53.995  49.550  1.00  0.00     0.364 C 
HETATM   14  O   UNL     1      14.697  55.009  49.105  1.00  0.00    -0.238 OA
HETATM   15  H   UNL     1      16.228  53.729  47.876  1.00  0.00     0.171 HD
BRANCH  13  16
HETATM   16  O   UNL     1      15.007  53.508  50.796  1.00  0.00    -0.309 OA
HETATM   17  C   UNL     1      14.496  54.469  51.720  1.00  0.00     0.215 C 
ENDBRANCH  13  16
ENDBRANCH   9  12
ENDBRANCH   5   6
ENDBRANCH   2   5
BRANCH   1  18
HETATM   18  C   UNL     1      22.796  48.857  48.546  1.00  0.00     0.157 A 
HETATM   19  C   UNL     1      24.006  48.432  49.172  1.00  0.00     0.029 A 
HETATM   20  C   UNL     1      24.369  47.466  50.131  1.00  0.00     0.023 A 
HETATM   21  C   UNL     1      24.997  49.237  48.624  1.00  0.00     0.063 A 
HETATM   22  C   UNL     1      25.716  47.336  50.510  1.00  0.00    -0.061 A 
HETATM   23  C   UNL     1      26.124  46.310  51.527  1.00  0.00     0.048 C 
HETATM   24  C   UNL     1      26.684  48.167  49.932  1.00  0.00     0.009 A 
HETATM   25  C   UNL     1      26.346  49.135  48.978  1.00  0.00     0.032 A 
HETATM   26  N   UNL     1      24.349  50.057  47.743  1.00  0.00    -0.277 N 
HETATM   27  H   UNL     1      24.762  50.778  47.162  1.00  0.00     0.189 HD
HETATM   28  N   UNL     1      23.022  49.855  47.663  1.00  0.00    -0.168 NA
ENDBRANCH   1  18
TORSDOF 5
ENDMDL
MODEL 10
REMARK VINA RESULT:      -8.2      3.896      9.575
REMARK  5 active torsions:
REMARK  status: ('A' for Active; 'I' for Inactive)
REMARK    1  A    between atoms: C_9  and  C_10 
REMARK       I    between atoms: C_10  and  N_11 
REMARK    2  A    between atoms: N_11  and  C_12 
REMARK    3  A    between atoms: C_12  and  C_13 
REMARK    4  A    between atoms: C_16  and  N_17 
REMARK       I    between atoms: N_17  and  C_18 
REMARK    5  A    between atoms: C_18  and  O_19 
ROOT
HETATM    1  C   UNL     1      28.319  44.030  53.007  1.00  0.00     0.273 C 
HETATM    2  N   UNL     1      27.030  43.777  52.594  1.00  0.00    -0.351 N 
HETATM    3  O   UNL     1      29.306  43.607  52.411  1.00  0.00    -0.266 OA
HETATM    4  H   UNL     1      26.297  44.267  53.101  1.00  0.00     0.163 HD
ENDROOT
BRANCH   2   5
HETATM    5  C   UNL     1      26.762  43.128  51.341  1.00  0.00     0.161 C 
BRANCH   5   6
HETATM    6  C   UNL     1      25.414  43.510  50.796  1.00  0.00    -0.040 A 
HETATM    7  C   UNL     1      24.413  42.548  50.625  1.00  0.00     0.011 A 
HETATM    8  C   UNL     1      23.150  42.904  50.131  1.00  0.00     0.030 A 
HETATM    9  C   UNL     1      22.867  44.227  49.791  1.00  0.00     0.036 A 
HETATM   10  C   UNL     1      23.881  45.184  49.937  1.00  0.00     0.030 A 
HETATM   11  C   UNL     1      25.142  44.831  50.430  1.00  0.00     0.011 A 
BRANCH   9  12
HETATM   12  N   UNL     1      21.632  44.693  49.307  1.00  0.00    -0.303 N 
HETATM   13  C   UNL     1      21.112  44.798  48.044  1.00  0.00     0.364 C 
HETATM   14  O   UNL     1      19.979  45.241  47.881  1.00  0.00    -0.238 OA
HETATM   15  H   UNL     1      20.961  45.004  49.996  1.00  0.00     0.171 HD
BRANCH  13  16
HETATM   16  O   UNL     1      21.916  44.381  47.036  1.00  0.00    -0.309 OA
HETATM   17  C   UNL     1      21.555  43.116  46.481  1.00  0.00     0.215 C 
ENDBRANCH  13  16
ENDBRANCH   9  12
ENDBRANCH   5   6
ENDBRANCH   2   5
BRANCH   1  18
HETATM   18  C   UNL     1      28.396  44.866  54.216  1.00  0.00     0.157 A 
HETATM   19  C   UNL     1      29.311  44.729  55.301  1.00  0.00     0.029 A 
HETATM   20  C   UNL     1      30.369  43.859  55.635  1.00  0.00     0.023 A 
HETATM   21  C   UNL     1      28.986  45.756  56.180  1.00  0.00     0.063 A 
HETATM   22  C   UNL     1      31.067  44.047  56.840  1.00  0.00    -0.061 A 
HETATM   23  C   UNL     1      32.200  43.135  57.212  1.00  0.00     0.048 C 
HETATM   24  C   UNL     1      30.708  45.096  57.696  1.00  0.00     0.009 A 
HETATM   25  C   UNL     1      29.660  45.971  57.385  1.00  0.00     0.032 A 
HETATM   26  N   UNL     1      27.943  46.415  55.592  1.00  0.00    -0.277 N 
HETATM   27  H   UNL     1      27.447  47.222  55.955  1.00  0.00     0.189 HD
HETATM   28  N   UNL     1      27.562  45.913  54.404  1.00  0.00    -0.168 NA
ENDBRANCH   1  18
TORSDOF 5
ENDMDL
