MODEL 1
REMARK VINA RESULT:      -8.0      0.000      0.000
REMARK  2 active torsions:
REMARK  status: ('A' for Active; 'I' for Inactive)
REMARK    1  A    between atoms: C_8  and  S_9 
REMARK    2  A    between atoms: S_9  and  C_10 
ROOT
HETATM    1  C   UNL     1      30.728  43.168  55.287  1.00  0.00     0.002 A 
HETATM    2  C   UNL     1      29.537  43.291  54.571  1.00  0.00     0.034 A 
HETATM    3  C   UNL     1      28.742  44.426  54.681  1.00  0.00     0.087 A 
HETATM    4  C   UNL     1      29.163  45.479  55.536  1.00  0.00     0.087 A 
HETATM    5  N   UNL     1      28.440  46.607  55.665  1.00  0.00    -0.232 NA
HETATM    6  C   UNL     1      27.309  46.693  54.935  1.00  0.00     0.164 A 
HETATM    7 CL   UNL     1      26.480  48.181  55.126  1.00  0.00    -0.059 Cl
HETATM    8  C   UNL     1      26.890  45.661  54.110  1.00  0.00     0.165 A 
HETATM    9  N   UNL     1      27.591  44.508  53.976  1.00  0.00    -0.234 NA
HETATM   10  C   UNL     1      30.348  45.342  56.247  1.00  0.00     0.034 A 
HETATM   11  C   UNL     1      31.133  44.195  56.131  1.00  0.00     0.002 A 
ENDROOT
BRANCH   8  12
HETATM   12  S   UNL     1      25.404  45.719  53.102  1.00  0.00     0.078 S 
HETATM   13  O   UNL     1      24.722  44.391  53.303  1.00  0.00    -0.251 OA
BRANCH  12  14
HETATM   14  C   UNL     1      26.108  45.646  51.398  1.00  0.00     0.112 C 
HETATM   15  C   UNL     1      25.327  44.634  50.549  1.00  0.00     0.250 C 
HETATM   16  N   UNL     1      23.936  45.139  50.284  1.00  0.00    -0.074 N 
HETATM   17  H   UNL     1      23.467  45.256  51.211  1.00  0.00     0.277 HD
HETATM   18  H   UNL     1      23.381  44.429  49.791  1.00  0.00     0.277 HD
HETATM   19  C   UNL     1      23.886  46.437  49.561  1.00  0.00     0.232 C 
HETATM   20  C   UNL     1      24.638  47.491  50.360  1.00  0.00     0.029 C 
HETATM   21  C   UNL     1      26.049  47.042  50.752  1.00  0.00     0.021 C 
ENDBRANCH  12  14
ENDBRANCH   8  12
TORSDOF 2
ENDMDL
MODEL 2
REMARK VINA RESULT:      -7.5      1.843      2.408
REMARK  2 active torsions:
REMARK  status: ('A' for Active; 'I' for Inactive)
REMARK    1  A    between atoms: C_8  and  S_9 
REMARK    2  A    between atoms: S_9  and  C_10 
ROOT
HETATM    1  C   UNL     1      30.271  45.310  56.320  1.00  0.00     0.002 A 
HETATM    2  C   UNL     1      29.128  45.783  55.673  1.00  0.00     0.034 A 
HETATM    3  C   UNL     1      28.518  45.053  54.659  1.00  0.00     0.087 A 
HETATM    4  C   UNL     1      29.072  43.800  54.286  1.00  0.00     0.087 A 
HETATM    5  N   UNL     1      28.511  43.046  53.323  1.00  0.00    -0.232 NA
HETATM    6  C   UNL     1      27.394  43.531  52.742  1.00  0.00     0.164 A 
HETATM    7 CL   UNL     1      26.723  42.482  51.564  1.00  0.00    -0.059 Cl
HETATM    8  C   UNL     1      26.859  44.759  53.096  1.00  0.00     0.165 A 
HETATM    9  N   UNL     1      27.416  45.545  54.050  1.00  0.00    -0.234 NA
HETATM   10  C   UNL     1      30.213  43.344  54.934  1.00  0.00     0.034 A 
HETATM   11  C   UNL     1      30.817  44.089  55.947  1.00  0.00     0.002 A 
ENDROOT
BRANCH   8  12
HETATM   12  S   UNL     1      25.369  45.453  52.373  1.00  0.00     0.078 S 
HETATM   13  O   UNL     1      24.346  44.348  52.402  1.00  0.00    -0.251 OA
BRANCH  12  14
HETATM   14  C   UNL     1      25.855  45.612  50.600  1.00  0.00     0.112 C 
HETATM   15  C   UNL     1      24.851  44.869  49.709  1.00  0.00     0.250 C 
HETATM   16  N   UNL     1      23.521  45.571  49.726  1.00  0.00    -0.074 N 
HETATM   17  H   UNL     1      23.182  45.570  50.715  1.00  0.00     0.277 HD
HETATM   18  H   UNL     1      22.821  45.032  49.202  1.00  0.00     0.277 HD
HETATM   19  C   UNL     1      23.567  46.977  49.243  1.00  0.00     0.232 C 
HETATM   20  C   UNL     1      24.544  47.773  50.096  1.00  0.00     0.029 C 
HETATM   21  C   UNL     1      25.916  47.100  50.210  1.00  0.00     0.021 C 
ENDBRANCH  12  14
ENDBRANCH   8  12
TORSDOF 2
ENDMDL
MODEL 3
REMARK VINA RESULT:      -7.4      2.771      3.366
REMARK  2 active torsions:
REMARK  status: ('A' for Active; 'I' for Inactive)
REMARK    1  A    between atoms: C_8  and  S_9 
REMARK    2  A    between atoms: S_9  and  C_10 
ROOT
HETATM    1  C   UNL     1      29.801  45.789  56.166  1.00  0.00     0.002 A 
HETATM    2  C   UNL     1      28.861  45.610  55.150  1.00  0.00     0.034 A 
HETATM    3  C   UNL     1      28.822  44.440  54.399  1.00  0.00     0.087 A 
HETATM    4  C   UNL     1      29.757  43.411  54.685  1.00  0.00     0.087 A 
HETATM    5  N   UNL     1      29.752  42.252  54.000  1.00  0.00    -0.232 NA
HETATM    6  C   UNL     1      28.811  42.113  53.044  1.00  0.00     0.164 A 
HETATM    7 CL   UNL     1      28.849  40.589  52.259  1.00  0.00    -0.059 Cl
HETATM    8  C   UNL     1      27.905  43.122  52.755  1.00  0.00     0.165 A 
HETATM    9  N   UNL     1      27.902  44.305  53.419  1.00  0.00    -0.234 NA
HETATM   10  C   UNL     1      30.691  43.603  55.695  1.00  0.00     0.034 A 
HETATM   11  C   UNL     1      30.721  44.784  56.437  1.00  0.00     0.002 A 
ENDROOT
BRANCH   8  12
HETATM   12  S   UNL     1      26.621  42.994  51.507  1.00  0.00     0.078 S 
HETATM   13  O   UNL     1      27.329  42.647  50.224  1.00  0.00    -0.251 OA
BRANCH  12  14
HETATM   14  C   UNL     1      26.114  44.758  51.314  1.00  0.00     0.112 C 
HETATM   15  C   UNL     1      26.416  45.240  49.889  1.00  0.00     0.250 C 
HETATM   16  N   UNL     1      25.512  44.552  48.904  1.00  0.00    -0.074 N 
HETATM   17  H   UNL     1      25.698  43.527  48.975  1.00  0.00     0.277 HD
HETATM   18  H   UNL     1      25.767  44.805  47.941  1.00  0.00     0.277 HD
HETATM   19  C   UNL     1      24.062  44.787  49.140  1.00  0.00     0.232 C 
HETATM   20  C   UNL     1      23.695  44.318  50.540  1.00  0.00     0.029 C 
HETATM   21  C   UNL     1      24.612  44.903  51.619  1.00  0.00     0.021 C 
ENDBRANCH  12  14
ENDBRANCH   8  12
TORSDOF 2
ENDMDL
MODEL 4
REMARK VINA RESULT:      -7.3      3.307      7.615
REMARK  2 active torsions:
REMARK  status: ('A' for Active; 'I' for Inactive)
REMARK    1  A    between atoms: C_8  and  S_9 
REMARK    2  A    between atoms: S_9  and  C_10 
ROOT
HETATM    1  C   UNL     1      21.355  49.728  48.595  1.00  0.00     0.002 A 
HETATM    2  C   UNL     1      22.067  48.664  49.150  1.00  0.00     0.034 A 
HETATM    3  C   UNL     1      23.457  48.647  49.150  1.00  0.00     0.087 A 
HETATM    4  C   UNL     1      24.157  49.742  48.578  1.00  0.00     0.087 A 
HETATM    5  N   UNL     1      25.503  49.783  48.568  1.00  0.00    -0.232 NA
HETATM    6  C   UNL     1      26.149  48.745  49.138  1.00  0.00     0.164 A 
HETATM    7 CL   UNL     1      27.856  48.906  49.122  1.00  0.00    -0.059 Cl
HETATM    8  C   UNL     1      25.468  47.669  49.685  1.00  0.00     0.165 A 
HETATM    9  N   UNL     1      24.114  47.596  49.692  1.00  0.00    -0.234 NA
HETATM   10  C   UNL     1      23.437  50.792  48.025  1.00  0.00     0.034 A 
HETATM   11  C   UNL     1      22.042  50.794  48.027  1.00  0.00     0.002 A 
ENDROOT
BRANCH   8  12
HETATM   12  S   UNL     1      26.267  46.266  50.470  1.00  0.00     0.078 S 
HETATM   13  O   UNL     1      26.080  45.107  49.526  1.00  0.00    -0.251 OA
BRANCH  12  14
HETATM   14  C   UNL     1      25.125  45.928  51.879  1.00  0.00     0.112 C 
HETATM   15  C   UNL     1      24.721  44.448  51.887  1.00  0.00     0.250 C 
HETATM   16  N   UNL     1      25.904  43.587  52.238  1.00  0.00    -0.074 N 
HETATM   17  H   UNL     1      26.633  43.749  51.507  1.00  0.00     0.277 HD
HETATM   18  H   UNL     1      25.662  42.592  52.160  1.00  0.00     0.277 HD
HETATM   19  C   UNL     1      26.496  43.879  53.571  1.00  0.00     0.232 C 
HETATM   20  C   UNL     1      26.928  45.337  53.624  1.00  0.00     0.029 C 
HETATM   21  C   UNL     1      25.812  46.301  53.205  1.00  0.00     0.021 C 
ENDBRANCH  12  14
ENDBRANCH   8  12
TORSDOF 2
ENDMDL
MODEL 5
REMARK VINA RESULT:      -6.9      3.631      4.427
REMARK  2 active torsions:
REMARK  status: ('A' for Active; 'I' for Inactive)
REMARK    1  A    between atoms: C_8  and  S_9 
REMARK    2  A    between atoms: S_9  and  C_10 
ROOT
HETATM    1  C   UNL     1      30.472  43.234  54.753  1.00  0.00     0.002 A 
HETATM    2  C   UNL     1      29.908  42.725  53.582  1.00  0.00     0.034 A 
HETATM    3  C   UNL     1      28.776  43.301  53.016  1.00  0.00     0.087 A 
HETATM    4  C   UNL     1      28.195  44.433  53.645  1.00  0.00     0.087 A 
HETATM    5  N   UNL     1      27.109  45.039  53.129  1.00  0.00    -0.232 NA
HETATM    6  C   UNL     1      26.613  44.529  51.983  1.00  0.00     0.164 A 
HETATM    7 CL   UNL     1      25.263  45.392  51.375  1.00  0.00    -0.059 Cl
HETATM    8  C   UNL     1      27.171  43.416  51.375  1.00  0.00     0.165 A 
HETATM    9  N   UNL     1      28.254  42.777  51.885  1.00  0.00    -0.234 NA
HETATM   10  C   UNL     1      28.763  44.926  54.812  1.00  0.00     0.034 A 
HETATM   11  C   UNL     1      29.896  44.336  55.372  1.00  0.00     0.002 A 
ENDROOT
BRANCH   8  12
HETATM   12  S   UNL     1      26.568  42.697  49.844  1.00  0.00     0.078 S 
HETATM   13  O   UNL     1      25.121  42.360  50.092  1.00  0.00    -0.251 OA
BRANCH  12  14
HETATM   14  C   UNL     1      27.444  41.073  49.825  1.00  0.00     0.112 C 
HETATM   15  C   UNL     1      26.444  39.932  50.060  1.00  0.00     0.250 C 
HETATM   16  N   UNL     1      25.522  39.797  48.880  1.00  0.00    -0.074 N 
HETATM   17  H   UNL     1      25.008  40.701  48.783  1.00  0.00     0.277 HD
HETATM   18  H   UNL     1      24.797  39.094  49.067  1.00  0.00     0.277 HD
HETATM   19  C   UNL     1      26.214  39.505  47.596  1.00  0.00     0.232 C 
HETATM   20  C   UNL     1      27.218  40.610  47.300  1.00  0.00     0.029 C 
HETATM   21  C   UNL     1      28.161  40.884  48.476  1.00  0.00     0.021 C 
ENDBRANCH  12  14
ENDBRANCH   8  12
TORSDOF 2
ENDMDL
MODEL 6
REMARK VINA RESULT:      -6.8     13.435     14.525
REMARK  2 active torsions:
REMARK  status: ('A' for Active; 'I' for Inactive)
REMARK    1  A    between atoms: C_8  and  S_9 
REMARK    2  A    between atoms: S_9  and  C_10 
ROOT
HETATM    1  C   UNL     1      32.994  51.932  44.509  1.00  0.00     0.002 A 
HETATM    2  C   UNL     1      31.824  51.935  43.748  1.00  0.00     0.034 A 
HETATM    3  C   UNL     1      31.859  51.763  42.369  1.00  0.00     0.087 A 
HETATM    4  C   UNL     1      33.114  51.573  41.732  1.00  0.00     0.087 A 
HETATM    5  N   UNL     1      33.202  51.384  40.403  1.00  0.00    -0.232 NA
HETATM    6  C   UNL     1      32.045  51.370  39.710  1.00  0.00     0.164 A 
HETATM    7 CL   UNL     1      32.250  51.075  38.034  1.00  0.00    -0.059 Cl
HETATM    8  C   UNL     1      30.820  51.568  40.328  1.00  0.00     0.165 A 
HETATM    9  N   UNL     1      30.706  51.778  41.663  1.00  0.00    -0.234 NA
HETATM   10  C   UNL     1      34.271  51.577  42.500  1.00  0.00     0.034 A 
HETATM   11  C   UNL     1      34.221  51.756  43.883  1.00  0.00     0.002 A 
ENDROOT
BRANCH   8  12
HETATM   12  S   UNL     1      29.244  51.547  39.467  1.00  0.00     0.078 S 
HETATM   13  O   UNL     1      28.331  52.443  40.262  1.00  0.00    -0.251 OA
BRANCH  12  14
HETATM   14  C   UNL     1      28.655  49.832  39.813  1.00  0.00     0.112 C 
HETATM   15  C   UNL     1      27.502  49.865  40.826  1.00  0.00     0.250 C 
HETATM   16  N   UNL     1      26.283  50.489  40.206  1.00  0.00    -0.074 N 
HETATM   17  H   UNL     1      26.538  51.464  39.932  1.00  0.00     0.277 HD
HETATM   18  H   UNL     1      25.536  50.593  40.904  1.00  0.00     0.277 HD
HETATM   19  C   UNL     1      25.778  49.776  39.002  1.00  0.00     0.232 C 
HETATM   20  C   UNL     1      26.876  49.718  37.951  1.00  0.00     0.029 C 
HETATM   21  C   UNL     1      28.195  49.167  38.503  1.00  0.00     0.021 C 
ENDBRANCH  12  14
ENDBRANCH   8  12
TORSDOF 2
ENDMDL
MODEL 7
REMARK VINA RESULT:      -6.8      2.975      3.726
REMARK  2 active torsions:
REMARK  status: ('A' for Active; 'I' for Inactive)
REMARK    1  A    between atoms: C_8  and  S_9 
REMARK    2  A    between atoms: S_9  and  C_10 
ROOT
HETATM    1  C   UNL     1      28.187  46.737  55.482  1.00  0.00     0.002 A 
HETATM    2  C   UNL     1      27.459  46.168  54.436  1.00  0.00     0.034 A 
HETATM    3  C   UNL     1      27.782  44.915  53.929  1.00  0.00     0.087 A 
HETATM    4  C   UNL     1      28.873  44.205  54.498  1.00  0.00     0.087 A 
HETATM    5  N   UNL     1      29.217  42.981  54.056  1.00  0.00    -0.232 NA
HETATM    6  C   UNL     1      28.470  42.459  53.061  1.00  0.00     0.164 A 
HETATM    7 CL   UNL     1      28.950  40.880  52.597  1.00  0.00    -0.059 Cl
HETATM    8  C   UNL     1      27.413  43.156  52.496  1.00  0.00     0.165 A 
HETATM    9  N   UNL     1      27.058  44.398  52.911  1.00  0.00    -0.234 NA
HETATM   10  C   UNL     1      29.592  44.784  55.534  1.00  0.00     0.034 A 
HETATM   11  C   UNL     1      29.259  46.045  56.030  1.00  0.00     0.002 A 
ENDROOT
BRANCH   8  12
HETATM   12  S   UNL     1      26.373  42.514  51.181  1.00  0.00     0.078 S 
HETATM   13  O   UNL     1      27.274  42.360  49.984  1.00  0.00    -0.251 OA
BRANCH  12  14
HETATM   14  C   UNL     1      25.311  43.974  50.800  1.00  0.00     0.112 C 
HETATM   15  C   UNL     1      25.619  44.497  49.391  1.00  0.00     0.250 C 
HETATM   16  N   UNL     1      25.160  43.506  48.357  1.00  0.00    -0.074 N 
HETATM   17  H   UNL     1      25.683  42.618  48.525  1.00  0.00     0.277 HD
HETATM   18  H   UNL     1      25.441  43.810  47.416  1.00  0.00     0.277 HD
HETATM   19  C   UNL     1      23.703  43.213  48.398  1.00  0.00     0.232 C 
HETATM   20  C   UNL     1      23.333  42.679  49.774  1.00  0.00     0.029 C 
HETATM   21  C   UNL     1      23.827  43.580  50.911  1.00  0.00     0.021 C 
ENDBRANCH  12  14
ENDBRANCH   8  12
TORSDOF 2
ENDMDL
MODEL 8
REMARK VINA RESULT:      -6.7     13.455     15.432
REMARK  2 active torsions:
REMARK  status: ('A' for Active; 'I' for Inactive)
REMARK    1  A    between atoms: C_8  and  S_9 
REMARK    2  A    between atoms: S_9  and  C_10 
ROOT
HETATM    1  C   UNL     1      28.223  47.487  39.153  1.00  0.00     0.002 A 
HETATM    2  C   UNL     1      29.172  48.188  39.897  1.00  0.00     0.034 A 
HETATM    3  C   UNL     1      29.236  49.576  39.862  1.00  0.00     0.087 A 
HETATM    4  C   UNL     1      28.307  50.286  39.055  1.00  0.00     0.087 A 
HETATM    5  N   UNL     1      28.314  51.631  38.999  1.00  0.00    -0.232 NA
HETATM    6  C   UNL     1      29.233  52.268  39.754  1.00  0.00     0.164 A 
HETATM    7 CL   UNL     1      29.135  53.977  39.657  1.00  0.00    -0.059 Cl
HETATM    8  C   UNL     1      30.148  51.577  40.532  1.00  0.00     0.165 A 
HETATM    9  N   UNL     1      30.173  50.222  40.591  1.00  0.00    -0.234 NA
HETATM   10  C   UNL     1      27.371  49.575  38.316  1.00  0.00     0.034 A 
HETATM   11  C   UNL     1      27.322  48.182  38.357  1.00  0.00     0.002 A 
ENDROOT
BRANCH   8  12
HETATM   12  S   UNL     1      31.385  52.365  41.568  1.00  0.00     0.078 S 
HETATM   13  O   UNL     1      32.351  53.028  40.622  1.00  0.00    -0.251 OA
BRANCH  12  14
HETATM   14  C   UNL     1      32.293  50.905  42.238  1.00  0.00     0.112 C 
HETATM   15  C   UNL     1      33.759  50.944  41.787  1.00  0.00     0.250 C 
HETATM   16  N   UNL     1      34.479  52.084  42.454  1.00  0.00    -0.074 N 
HETATM   17  H   UNL     1      33.998  52.965  42.164  1.00  0.00     0.277 HD
HETATM   18  H   UNL     1      35.436  52.169  42.091  1.00  0.00     0.277 HD
HETATM   19  C   UNL     1      34.487  52.015  43.939  1.00  0.00     0.232 C 
HETATM   20  C   UNL     1      33.054  51.983  44.452  1.00  0.00     0.029 C 
HETATM   21  C   UNL     1      32.207  50.900  43.775  1.00  0.00     0.021 C 
ENDBRANCH  12  14
ENDBRANCH   8  12
TORSDOF 2
ENDMDL
MODEL 9
REMARK VINA RESULT:      -6.5     13.125     14.233
REMARK  2 active torsions:
REMARK  status: ('A' for Active; 'I' for Inactive)
REMARK    1  A    between atoms: C_8  and  S_9 
REMARK    2  A    between atoms: S_9  and  C_10 
ROOT
HETATM    1  C   UNL     1      37.210  51.057  40.413  1.00  0.00     0.002 A 
HETATM    2  C   UNL     1      35.937  50.488  40.481  1.00  0.00     0.034 A 
HETATM    3  C   UNL     1      35.062  50.796  41.517  1.00  0.00     0.087 A 
HETATM    4  C   UNL     1      35.479  51.714  42.517  1.00  0.00     0.087 A 
HETATM    5  N   UNL     1      34.665  52.060  43.531  1.00  0.00    -0.232 NA
HETATM    6  C   UNL     1      33.436  51.505  43.543  1.00  0.00     0.164 A 
HETATM    7 CL   UNL     1      32.453  52.040  44.842  1.00  0.00    -0.059 Cl
HETATM    8  C   UNL     1      33.031  50.600  42.575  1.00  0.00     0.165 A 
HETATM    9  N   UNL     1      33.839  50.222  41.553  1.00  0.00    -0.234 NA
HETATM   10  C   UNL     1      36.750  52.268  42.441  1.00  0.00     0.034 A 
HETATM   11  C   UNL     1      37.619  51.947  41.398  1.00  0.00     0.002 A 
ENDROOT
BRANCH   8  12
HETATM   12  S   UNL     1      31.406  49.838  42.526  1.00  0.00     0.078 S 
HETATM   13  O   UNL     1      31.651  48.357  42.394  1.00  0.00    -0.251 OA
BRANCH  12  14
HETATM   14  C   UNL     1      30.795  50.374  40.869  1.00  0.00     0.112 C 
HETATM   15  C   UNL     1      29.454  49.696  40.558  1.00  0.00     0.250 C 
HETATM   16  N   UNL     1      28.379  50.225  41.466  1.00  0.00    -0.074 N 
HETATM   17  H   UNL     1      28.666  50.005  42.447  1.00  0.00     0.277 HD
HETATM   18  H   UNL     1      27.500  49.714  41.322  1.00  0.00     0.277 HD
HETATM   19  C   UNL     1      28.156  51.691  41.357  1.00  0.00     0.232 C 
HETATM   20  C   UNL     1      29.453  52.425  41.665  1.00  0.00     0.029 C 
HETATM   21  C   UNL     1      30.637  51.905  40.844  1.00  0.00     0.021 C 
ENDBRANCH  12  14
ENDBRANCH   8  12
TORSDOF 2
ENDMDL
MODEL 10
REMARK VINA RESULT:      -6.5      3.999      5.382
REMARK  2 active torsions:
REMARK  status: ('A' for Active; 'I' for Inactive)
REMARK    1  A    between atoms: C_8  and  S_9 
REMARK    2  A    between atoms: S_9  and  C_10 
ROOT
HETATM    1  C   UNL     1      28.296  39.506  47.935  1.00  0.00     0.002 A 
HETATM    2  C   UNL     1      27.633  40.690  48.262  1.00  0.00     0.034 A 
HETATM    3  C   UNL     1      27.565  41.142  49.574  1.00  0.00     0.087 A 
HETATM    4  C   UNL     1      28.192  40.380  50.595  1.00  0.00     0.087 A 
HETATM    5  N   UNL     1      28.171  40.781  51.880  1.00  0.00    -0.232 NA
HETATM    6  C   UNL     1      27.540  41.943  52.146  1.00  0.00     0.164 A 
HETATM    7 CL   UNL     1      27.606  42.399  53.797  1.00  0.00    -0.059 Cl
HETATM    8  C   UNL     1      26.917  42.682  51.153  1.00  0.00     0.165 A 
HETATM    9  N   UNL     1      26.909  42.290  49.854  1.00  0.00    -0.234 NA
HETATM   10  C   UNL     1      28.844  39.201  50.258  1.00  0.00     0.034 A 
HETATM   11  C   UNL     1      28.900  38.758  48.937  1.00  0.00     0.002 A 
ENDROOT
BRANCH   8  12
HETATM   12  S   UNL     1      26.075  44.242  51.437  1.00  0.00     0.078 S 
HETATM   13  O   UNL     1      24.649  43.884  51.766  1.00  0.00    -0.251 OA
BRANCH  12  14
HETATM   14  C   UNL     1      26.012  44.948  49.733  1.00  0.00     0.112 C 
HETATM   15  C   UNL     1      24.556  45.072  49.267  1.00  0.00     0.250 C 
HETATM   16  N   UNL     1      23.844  46.131  50.063  1.00  0.00    -0.074 N 
HETATM   17  H   UNL     1      23.868  45.835  51.065  1.00  0.00     0.277 HD
HETATM   18  H   UNL     1      22.847  46.159  49.816  1.00  0.00     0.277 HD
HETATM   19  C   UNL     1      24.448  47.485  49.954  1.00  0.00     0.232 C 
HETATM   20  C   UNL     1      25.898  47.431  50.413  1.00  0.00     0.029 C 
HETATM   21  C   UNL     1      26.698  46.326  49.716  1.00  0.00     0.021 C 
ENDBRANCH  12  14
ENDBRANCH   8  12
TORSDOF 2
ENDMDL
