MODEL 1
REMARK VINA RESULT:      -9.7      0.000      0.000
REMARK  7 active torsions:
REMARK  status: ('A' for Active; 'I' for Inactive)
REMARK    1  A    between atoms: C_5  and  C_6 
REMARK       I    between atoms: C_6  and  N_7 
REMARK    2  A    between atoms: N_10  and  C_11 
REMARK    3  A    between atoms: C_14  and  N_15 
REMARK    4  A    between atoms: N_15  and  C_16 
REMARK    5  A    between atoms: C_16  and  N_17 
REMARK       I    between atoms: N_17  and  C_18 
REMARK    6  A    between atoms: C_18  and  C_19 
REMARK    7  A    between atoms: C_20  and  O_21 
ROOT
HETATM    1  C   UNL     1      24.981  45.415  49.909  1.00  0.00     0.030 A 
HETATM    2  C   UNL     1      26.302  45.014  49.670  1.00  0.00     0.031 A 
HETATM    3  C   UNL     1      26.852  43.872  50.269  1.00  0.00     0.032 A 
HETATM    4  C   UNL     1      26.099  43.102  51.147  1.00  0.00     0.034 A 
HETATM    5  C   UNL     1      24.751  43.418  51.315  1.00  0.00     0.032 A 
HETATM    6  C   UNL     1      24.210  44.566  50.717  1.00  0.00     0.031 A 
ENDROOT
BRANCH   4   7
HETATM    7  N   UNL     1      26.617  42.005  51.877  1.00  0.00    -0.333 N 
HETATM    8  H   UNL     1      25.909  41.365  52.221  1.00  0.00     0.168 HD
BRANCH   7   9
HETATM    9  C   UNL     1      27.810  41.931  52.610  1.00  0.00     0.179 C 
HETATM   10  S   UNL     1      28.944  40.699  52.574  1.00  0.00    -0.040 SA
BRANCH   9  11
HETATM   11  N   UNL     1      27.945  43.097  53.381  1.00  0.00    -0.299 N 
HETATM   12  C   UNL     1      27.023  43.649  54.266  1.00  0.00     0.260 C 
HETATM   13  O   UNL     1      26.248  43.021  54.977  1.00  0.00    -0.267 OA
HETATM   14  H   UNL     1      28.671  43.719  53.055  1.00  0.00     0.171 HD
BRANCH  12  15
HETATM   15  C   UNL     1      27.115  45.118  54.409  1.00  0.00     0.065 A 
HETATM   16  C   UNL     1      28.238  45.718  54.988  1.00  0.00     0.084 A 
HETATM   17  C   UNL     1      28.288  47.106  55.135  1.00  0.00     0.038 A 
HETATM   18  C   UNL     1      27.202  47.888  54.739  1.00  0.00     0.003 A 
HETATM   19  C   UNL     1      26.073  47.289  54.179  1.00  0.00     0.001 A 
HETATM   20  C   UNL     1      26.025  45.904  54.011  1.00  0.00     0.020 A 
BRANCH  16  21
HETATM   21  O   UNL     1      29.343  44.979  55.314  1.00  0.00    -0.355 OA
HETATM   22  C   UNL     1      30.012  45.553  56.441  1.00  0.00     0.210 C 
ENDBRANCH  16  21
ENDBRANCH  12  15
ENDBRANCH   9  11
ENDBRANCH   7   9
ENDBRANCH   4   7
BRANCH   1  23
HETATM   23  N   UNL     1      24.462  46.629  49.464  1.00  0.00    -0.378 N 
HETATM   24  C   UNL     1      25.267  47.850  49.682  1.00  0.00     0.143 C 
HETATM   25  C   UNL     1      24.848  48.950  48.688  1.00  0.00     0.146 C 
HETATM   26  N   UNL     1      23.400  49.191  48.669  1.00  0.00    -0.345 N 
HETATM   27  C   UNL     1      22.980  50.400  48.106  1.00  0.00     0.253 C 
HETATM   28  C   UNL     1      22.589  47.969  48.554  1.00  0.00     0.146 C 
HETATM   29  O   UNL     1      23.753  51.246  47.663  1.00  0.00    -0.267 OA
HETATM   30  C   UNL     1      23.009  46.872  49.549  1.00  0.00     0.143 C 
BRANCH  27  31
HETATM   31  C   UNL     1      21.530  50.698  48.065  1.00  0.00     0.032 A 
HETATM   32  C   UNL     1      20.747  50.256  46.994  1.00  0.00     0.017 A 
HETATM   33  C   UNL     1      19.375  50.516  46.985  1.00  0.00     0.007 A 
HETATM   34  C   UNL     1      18.778  51.213  48.045  1.00  0.00    -0.062 A 
HETATM   35  C   UNL     1      17.297  51.453  48.056  1.00  0.00     0.048 C 
HETATM   36  C   UNL     1      19.568  51.620  49.129  1.00  0.00     0.007 A 
HETATM   37  C   UNL     1      20.940  51.362  49.143  1.00  0.00     0.017 A 
ENDBRANCH  27  31
ENDBRANCH   1  23
TORSDOF 7
ENDMDL
MODEL 2
REMARK VINA RESULT:      -9.6      1.294      2.318
REMARK  7 active torsions:
REMARK  status: ('A' for Active; 'I' for Inactive)
REMARK    1  A    between atoms: C_5  and  C_6 
REMARK       I    between atoms: C_6  and  N_7 
REMARK    2  A    between atoms: N_10  and  C_11 
REMARK    3  A    between atoms: C_14  and  N_15 
REMARK    4  A    between atoms: N_15  and  C_16 
REMARK    5  A    between atoms: C_16  and  N_17 
REMARK       I    between atoms: N_17  and  C_18 
REMARK    6  A    between atoms: C_18  and  C_19 
REMARK    7  A    between atoms: C_20  and  O_21 
ROOT
HETATM    1  C   UNL     1      24.859  45.365  49.622  1.00  0.00     0.030 A 
HETATM    2  C   UNL     1      26.235  45.111  49.548  1.00  0.00     0.031 A 
HETATM    3  C   UNL     1      26.793  43.902  49.990  1.00  0.00     0.032 A 
HETATM    4  C   UNL     1      25.988  42.913  50.543  1.00  0.00     0.034 A 
HETATM    5  C   UNL     1      24.606  43.098  50.526  1.00  0.00     0.032 A 
HETATM    6  C   UNL     1      24.057  44.312  50.087  1.00  0.00     0.031 A 
ENDROOT
BRANCH   4   7
HETATM    7  N   UNL     1      26.488  41.718  51.115  1.00  0.00    -0.333 N 
HETATM    8  H   UNL     1      25.989  41.416  51.944  1.00  0.00     0.168 HD
BRANCH   7   9
HETATM    9  C   UNL     1      27.790  41.200  51.051  1.00  0.00     0.179 C 
HETATM   10  S   UNL     1      28.365  40.038  49.991  1.00  0.00    -0.040 SA
BRANCH   9  11
HETATM   11  N   UNL     1      28.585  41.842  52.014  1.00  0.00    -0.299 N 
HETATM   12  C   UNL     1      28.608  41.623  53.389  1.00  0.00     0.260 C 
HETATM   13  O   UNL     1      28.442  40.545  53.945  1.00  0.00    -0.267 OA
HETATM   14  H   UNL     1      28.976  42.719  51.701  1.00  0.00     0.171 HD
BRANCH  12  15
HETATM   15  C   UNL     1      28.990  42.805  54.191  1.00  0.00     0.065 A 
HETATM   16  C   UNL     1      28.169  43.936  54.247  1.00  0.00     0.084 A 
HETATM   17  C   UNL     1      28.566  45.049  54.991  1.00  0.00     0.038 A 
HETATM   18  C   UNL     1      29.799  45.046  55.646  1.00  0.00     0.003 A 
HETATM   19  C   UNL     1      30.628  43.926  55.574  1.00  0.00     0.001 A 
HETATM   20  C   UNL     1      30.227  42.802  54.849  1.00  0.00     0.020 A 
BRANCH  16  21
HETATM   21  O   UNL     1      26.925  43.933  53.677  1.00  0.00    -0.355 OA
HETATM   22  C   UNL     1      26.494  45.271  53.412  1.00  0.00     0.210 C 
ENDBRANCH  16  21
ENDBRANCH  12  15
ENDBRANCH   9  11
ENDBRANCH   7   9
ENDBRANCH   4   7
BRANCH   1  23
HETATM   23  N   UNL     1      24.300  46.611  49.348  1.00  0.00    -0.378 N 
HETATM   24  C   UNL     1      25.059  47.815  49.747  1.00  0.00     0.143 C 
HETATM   25  C   UNL     1      24.607  49.030  48.914  1.00  0.00     0.146 C 
HETATM   26  N   UNL     1      23.152  49.221  48.911  1.00  0.00    -0.345 N 
HETATM   27  C   UNL     1      22.692  50.483  48.521  1.00  0.00     0.253 C 
HETATM   28  C   UNL     1      22.386  48.000  48.614  1.00  0.00     0.146 C 
HETATM   29  O   UNL     1      23.437  51.410  48.212  1.00  0.00    -0.267 OA
HETATM   30  C   UNL     1      22.839  46.789  49.448  1.00  0.00     0.143 C 
BRANCH  27  31
HETATM   31  C   UNL     1      21.233  50.733  48.505  1.00  0.00     0.032 A 
HETATM   32  C   UNL     1      20.580  51.185  49.655  1.00  0.00     0.017 A 
HETATM   33  C   UNL     1      19.209  51.449  49.617  1.00  0.00     0.007 A 
HETATM   34  C   UNL     1      18.485  51.267  48.430  1.00  0.00    -0.062 A 
HETATM   35  C   UNL     1      17.021  51.594  48.377  1.00  0.00     0.048 C 
HETATM   36  C   UNL     1      19.157  50.849  47.274  1.00  0.00     0.007 A 
HETATM   37  C   UNL     1      20.529  50.585  47.308  1.00  0.00     0.017 A 
ENDBRANCH  27  31
ENDBRANCH   1  23
TORSDOF 7
ENDMDL
MODEL 3
REMARK VINA RESULT:      -9.3      3.056     10.301
REMARK  7 active torsions:
REMARK  status: ('A' for Active; 'I' for Inactive)
REMARK    1  A    between atoms: C_5  and  C_6 
REMARK       I    between atoms: C_6  and  N_7 
REMARK    2  A    between atoms: N_10  and  C_11 
REMARK    3  A    between atoms: C_14  and  N_15 
REMARK    4  A    between atoms: N_15  and  C_16 
REMARK    5  A    between atoms: C_16  and  N_17 
REMARK       I    between atoms: N_17  and  C_18 
REMARK    6  A    between atoms: C_18  and  C_19 
REMARK    7  A    between atoms: C_20  and  O_21 
ROOT
HETATM    1  C   UNL     1      24.298  44.477  49.994  1.00  0.00     0.030 A 
HETATM    2  C   UNL     1      23.230  43.622  49.691  1.00  0.00     0.031 A 
HETATM    3  C   UNL     1      22.082  44.074  49.025  1.00  0.00     0.032 A 
HETATM    4  C   UNL     1      21.957  45.409  48.658  1.00  0.00     0.034 A 
HETATM    5  C   UNL     1      23.050  46.253  48.850  1.00  0.00     0.032 A 
HETATM    6  C   UNL     1      24.193  45.794  49.523  1.00  0.00     0.031 A 
ENDROOT
BRANCH   4   7
HETATM    7  N   UNL     1      20.786  45.964  48.088  1.00  0.00    -0.333 N 
HETATM    8  H   UNL     1      19.927  45.516  48.388  1.00  0.00     0.168 HD
BRANCH   7   9
HETATM    9  C   UNL     1      20.644  46.630  46.861  1.00  0.00     0.179 C 
HETATM   10  S   UNL     1      20.893  45.995  45.332  1.00  0.00    -0.040 SA
BRANCH   9  11
HETATM   11  N   UNL     1      20.213  47.944  47.103  1.00  0.00    -0.299 N 
HETATM   12  C   UNL     1      20.945  49.000  47.638  1.00  0.00     0.260 C 
HETATM   13  O   UNL     1      22.139  49.205  47.463  1.00  0.00    -0.267 OA
HETATM   14  H   UNL     1      19.208  48.044  47.132  1.00  0.00     0.171 HD
BRANCH  12  15
HETATM   15  C   UNL     1      20.135  49.996  48.373  1.00  0.00     0.065 A 
HETATM   16  C   UNL     1      19.235  49.602  49.369  1.00  0.00     0.084 A 
HETATM   17  C   UNL     1      18.463  50.561  50.029  1.00  0.00     0.038 A 
HETATM   18  C   UNL     1      18.564  51.905  49.668  1.00  0.00     0.003 A 
HETATM   19  C   UNL     1      19.447  52.297  48.661  1.00  0.00     0.001 A 
HETATM   20  C   UNL     1      20.236  51.346  48.012  1.00  0.00     0.020 A 
BRANCH  16  21
HETATM   21  O   UNL     1      19.175  48.302  49.790  1.00  0.00    -0.355 OA
HETATM   22  C   UNL     1      17.842  47.798  49.667  1.00  0.00     0.210 C 
ENDBRANCH  16  21
ENDBRANCH  12  15
ENDBRANCH   9  11
ENDBRANCH   7   9
ENDBRANCH   4   7
BRANCH   1  23
HETATM   23  N   UNL     1      25.371  44.099  50.798  1.00  0.00    -0.378 N 
HETATM   24  C   UNL     1      25.588  42.655  51.032  1.00  0.00     0.143 C 
HETATM   25  C   UNL     1      27.052  42.395  51.436  1.00  0.00     0.146 C 
HETATM   26  N   UNL     1      27.508  43.249  52.540  1.00  0.00    -0.345 N 
HETATM   27  C   UNL     1      28.657  42.828  53.216  1.00  0.00     0.253 C 
HETATM   28  C   UNL     1      27.203  44.677  52.360  1.00  0.00     0.146 C 
HETATM   29  O   UNL     1      29.264  41.795  52.943  1.00  0.00    -0.267 OA
HETATM   30  C   UNL     1      25.741  44.934  51.956  1.00  0.00     0.143 C 
BRANCH  27  31
HETATM   31  C   UNL     1      29.159  43.648  54.342  1.00  0.00     0.032 A 
HETATM   32  C   UNL     1      28.368  44.667  54.883  1.00  0.00     0.017 A 
HETATM   33  C   UNL     1      28.841  45.410  55.966  1.00  0.00     0.007 A 
HETATM   34  C   UNL     1      30.101  45.139  56.517  1.00  0.00    -0.062 A 
HETATM   35  C   UNL     1      30.589  45.909  57.709  1.00  0.00     0.048 C 
HETATM   36  C   UNL     1      30.869  44.092  55.989  1.00  0.00     0.007 A 
HETATM   37  C   UNL     1      30.400  43.345  54.906  1.00  0.00     0.017 A 
ENDBRANCH  27  31
ENDBRANCH   1  23
TORSDOF 7
ENDMDL
MODEL 4
REMARK VINA RESULT:      -9.0      3.064     10.416
REMARK  7 active torsions:
REMARK  status: ('A' for Active; 'I' for Inactive)
REMARK    1  A    between atoms: C_5  and  C_6 
REMARK       I    between atoms: C_6  and  N_7 
REMARK    2  A    between atoms: N_10  and  C_11 
REMARK    3  A    between atoms: C_14  and  N_15 
REMARK    4  A    between atoms: N_15  and  C_16 
REMARK    5  A    between atoms: C_16  and  N_17 
REMARK       I    between atoms: N_17  and  C_18 
REMARK    6  A    between atoms: C_18  and  C_19 
REMARK    7  A    between atoms: C_20  and  O_21 
ROOT
HETATM    1  C   UNL     1      24.326  44.803  49.170  1.00  0.00     0.030 A 
HETATM    2  C   UNL     1      23.815  44.073  48.090  1.00  0.00     0.031 A 
HETATM    3  C   UNL     1      22.819  44.589  47.248  1.00  0.00     0.032 A 
HETATM    4  C   UNL     1      22.286  45.853  47.475  1.00  0.00     0.034 A 
HETATM    5  C   UNL     1      22.856  46.640  48.476  1.00  0.00     0.032 A 
HETATM    6  C   UNL     1      23.847  46.114  49.317  1.00  0.00     0.031 A 
ENDROOT
BRANCH   4   7
HETATM    7  N   UNL     1      21.203  46.395  46.743  1.00  0.00    -0.333 N 
HETATM    8  H   UNL     1      21.430  47.243  46.235  1.00  0.00     0.168 HD
BRANCH   7   9
HETATM    9  C   UNL     1      19.830  46.273  46.999  1.00  0.00     0.179 C 
HETATM   10  S   UNL     1      18.913  44.872  46.950  1.00  0.00    -0.040 SA
BRANCH   9  11
HETATM   11  N   UNL     1      19.317  47.532  47.351  1.00  0.00    -0.299 N 
HETATM   12  C   UNL     1      19.026  48.603  46.511  1.00  0.00     0.260 C 
HETATM   13  O   UNL     1      18.597  48.520  45.367  1.00  0.00    -0.267 OA
HETATM   14  H   UNL     1      19.424  47.756  48.331  1.00  0.00     0.171 HD
BRANCH  12  15
HETATM   15  C   UNL     1      19.148  49.932  47.148  1.00  0.00     0.065 A 
HETATM   16  C   UNL     1      20.300  50.292  47.853  1.00  0.00     0.084 A 
HETATM   17  C   UNL     1      20.378  51.544  48.468  1.00  0.00     0.038 A 
HETATM   18  C   UNL     1      19.291  52.417  48.411  1.00  0.00     0.003 A 
HETATM   19  C   UNL     1      18.133  52.051  47.724  1.00  0.00     0.001 A 
HETATM   20  C   UNL     1      18.056  50.810  47.090  1.00  0.00     0.020 A 
BRANCH  16  21
HETATM   21  O   UNL     1      21.404  49.484  47.859  1.00  0.00    -0.355 OA
HETATM   22  C   UNL     1      22.598  50.269  47.780  1.00  0.00     0.210 C 
ENDBRANCH  16  21
ENDBRANCH  12  15
ENDBRANCH   9  11
ENDBRANCH   7   9
ENDBRANCH   4   7
BRANCH   1  23
HETATM   23  N   UNL     1      25.189  44.257  50.119  1.00  0.00    -0.378 N 
HETATM   24  C   UNL     1      24.923  42.880  50.587  1.00  0.00     0.143 C 
HETATM   25  C   UNL     1      26.208  42.255  51.161  1.00  0.00     0.146 C 
HETATM   26  N   UNL     1      26.869  43.104  52.161  1.00  0.00    -0.345 N 
HETATM   27  C   UNL     1      27.795  42.472  52.997  1.00  0.00     0.253 C 
HETATM   28  C   UNL     1      27.044  44.502  51.739  1.00  0.00     0.146 C 
HETATM   29  O   UNL     1      28.050  41.272  52.941  1.00  0.00    -0.267 OA
HETATM   30  C   UNL     1      25.759  45.124  51.167  1.00  0.00     0.143 C 
BRANCH  27  31
HETATM   31  C   UNL     1      28.487  43.280  54.027  1.00  0.00     0.032 A 
HETATM   32  C   UNL     1      29.815  43.005  54.367  1.00  0.00     0.017 A 
HETATM   33  C   UNL     1      30.465  43.796  55.317  1.00  0.00     0.007 A 
HETATM   34  C   UNL     1      29.795  44.864  55.928  1.00  0.00    -0.062 A 
HETATM   35  C   UNL     1      30.509  45.741  56.916  1.00  0.00     0.048 C 
HETATM   36  C   UNL     1      28.476  45.152  55.554  1.00  0.00     0.007 A 
HETATM   37  C   UNL     1      27.822  44.364  54.603  1.00  0.00     0.017 A 
ENDBRANCH  27  31
ENDBRANCH   1  23
TORSDOF 7
ENDMDL
MODEL 5
REMARK VINA RESULT:      -8.7      3.301     10.742
REMARK  7 active torsions:
REMARK  status: ('A' for Active; 'I' for Inactive)
REMARK    1  A    between atoms: C_5  and  C_6 
REMARK       I    between atoms: C_6  and  N_7 
REMARK    2  A    between atoms: N_10  and  C_11 
REMARK    3  A    between atoms: C_14  and  N_15 
REMARK    4  A    between atoms: N_15  and  C_16 
REMARK    5  A    between atoms: C_16  and  N_17 
REMARK       I    between atoms: N_17  and  C_18 
REMARK    6  A    between atoms: C_18  and  C_19 
REMARK    7  A    between atoms: C_20  and  O_21 
ROOT
HETATM    1  C   UNL     1      24.165  45.199  49.275  1.00  0.00     0.030 A 
HETATM    2  C   UNL     1      23.541  44.484  48.245  1.00  0.00     0.031 A 
HETATM    3  C   UNL     1      22.548  45.058  47.437  1.00  0.00     0.032 A 
HETATM    4  C   UNL     1      22.133  46.368  47.650  1.00  0.00     0.034 A 
HETATM    5  C   UNL     1      22.816  47.132  48.596  1.00  0.00     0.032 A 
HETATM    6  C   UNL     1      23.804  46.548  49.404  1.00  0.00     0.031 A 
ENDROOT
BRANCH   4   7
HETATM    7  N   UNL     1      21.062  46.978  46.955  1.00  0.00    -0.333 N 
HETATM    8  H   UNL     1      21.346  47.721  46.326  1.00  0.00     0.168 HD
BRANCH   7   9
HETATM    9  C   UNL     1      19.720  47.090  47.347  1.00  0.00     0.179 C 
HETATM   10  S   UNL     1      18.554  45.888  47.317  1.00  0.00    -0.040 SA
BRANCH   9  11
HETATM   11  N   UNL     1      19.490  48.391  47.822  1.00  0.00    -0.299 N 
HETATM   12  C   UNL     1      19.003  48.774  49.069  1.00  0.00     0.260 C 
HETATM   13  O   UNL     1      19.226  48.205  50.130  1.00  0.00    -0.267 OA
HETATM   14  H   UNL     1      19.426  49.087  47.091  1.00  0.00     0.171 HD
BRANCH  12  15
HETATM   15  C   UNL     1      18.260  50.053  49.070  1.00  0.00     0.065 A 
HETATM   16  C   UNL     1      17.220  50.285  48.165  1.00  0.00     0.084 A 
HETATM   17  C   UNL     1      16.552  51.511  48.169  1.00  0.00     0.038 A 
HETATM   18  C   UNL     1      16.949  52.517  49.052  1.00  0.00     0.003 A 
HETATM   19  C   UNL     1      18.000  52.294  49.943  1.00  0.00     0.001 A 
HETATM   20  C   UNL     1      18.658  51.063  49.957  1.00  0.00     0.020 A 
BRANCH  16  21
HETATM   21  O   UNL     1      16.765  49.289  47.343  1.00  0.00    -0.355 OA
HETATM   22  C   UNL     1      15.624  48.649  47.921  1.00  0.00     0.210 C 
ENDBRANCH  16  21
ENDBRANCH  12  15
ENDBRANCH   9  11
ENDBRANCH   7   9
ENDBRANCH   4   7
BRANCH   1  23
HETATM   23  N   UNL     1      25.028  44.609  50.196  1.00  0.00    -0.378 N 
HETATM   24  C   UNL     1      24.689  43.261  50.701  1.00  0.00     0.143 C 
HETATM   25  C   UNL     1      25.951  42.557  51.232  1.00  0.00     0.146 C 
HETATM   26  N   UNL     1      26.711  43.373  52.187  1.00  0.00    -0.345 N 
HETATM   27  C   UNL     1      27.627  42.692  52.995  1.00  0.00     0.253 C 
HETATM   28  C   UNL     1      26.965  44.749  51.732  1.00  0.00     0.146 C 
HETATM   29  O   UNL     1      27.796  41.475  52.950  1.00  0.00    -0.267 OA
HETATM   30  C   UNL     1      25.702  45.450  51.203  1.00  0.00     0.143 C 
BRANCH  27  31
HETATM   31  C   UNL     1      28.416  43.465  53.980  1.00  0.00     0.032 A 
HETATM   32  C   UNL     1      27.866  44.589  54.603  1.00  0.00     0.017 A 
HETATM   33  C   UNL     1      28.610  45.289  55.555  1.00  0.00     0.007 A 
HETATM   34  C   UNL     1      29.903  44.868  55.893  1.00  0.00    -0.062 A 
HETATM   35  C   UNL     1      30.685  45.594  56.949  1.00  0.00     0.048 C 
HETATM   36  C   UNL     1      30.431  43.719  55.289  1.00  0.00     0.007 A 
HETATM   37  C   UNL     1      29.690  43.015  54.337  1.00  0.00     0.017 A 
ENDBRANCH  27  31
ENDBRANCH   1  23
TORSDOF 7
ENDMDL
MODEL 6
REMARK VINA RESULT:      -8.7      2.220      3.145
REMARK  7 active torsions:
REMARK  status: ('A' for Active; 'I' for Inactive)
REMARK    1  A    between atoms: C_5  and  C_6 
REMARK       I    between atoms: C_6  and  N_7 
REMARK    2  A    between atoms: N_10  and  C_11 
REMARK    3  A    between atoms: C_14  and  N_15 
REMARK    4  A    between atoms: N_15  and  C_16 
REMARK    5  A    between atoms: C_16  and  N_17 
REMARK       I    between atoms: N_17  and  C_18 
REMARK    6  A    between atoms: C_18  and  C_19 
REMARK    7  A    between atoms: C_20  and  O_21 
ROOT
HETATM    1  C   UNL     1      23.349  44.608  48.927  1.00  0.00     0.030 A 
HETATM    2  C   UNL     1      24.699  44.958  49.059  1.00  0.00     0.031 A 
HETATM    3  C   UNL     1      25.608  44.160  49.769  1.00  0.00     0.032 A 
HETATM    4  C   UNL     1      25.187  42.990  50.390  1.00  0.00     0.034 A 
HETATM    5  C   UNL     1      23.875  42.566  50.182  1.00  0.00     0.032 A 
HETATM    6  C   UNL     1      22.971  43.373  49.475  1.00  0.00     0.031 A 
ENDROOT
BRANCH   4   7
HETATM    7  N   UNL     1      26.015  42.195  51.217  1.00  0.00    -0.333 N 
HETATM    8  H   UNL     1      25.816  42.281  52.208  1.00  0.00     0.168 HD
BRANCH   7   9
HETATM    9  C   UNL     1      27.319  41.742  50.968  1.00  0.00     0.179 C 
HETATM   10  S   UNL     1      27.811  40.689  49.763  1.00  0.00    -0.040 SA
BRANCH   9  11
HETATM   11  N   UNL     1      28.195  42.349  51.883  1.00  0.00    -0.299 N 
HETATM   12  C   UNL     1      28.491  41.945  53.182  1.00  0.00     0.260 C 
HETATM   13  O   UNL     1      28.553  40.787  53.575  1.00  0.00    -0.267 OA
HETATM   14  H   UNL     1      28.421  43.308  51.657  1.00  0.00     0.171 HD
BRANCH  12  15
HETATM   15  C   UNL     1      28.872  43.045  54.093  1.00  0.00     0.065 A 
HETATM   16  C   UNL     1      28.057  44.170  54.250  1.00  0.00     0.084 A 
HETATM   17  C   UNL     1      28.454  45.207  55.097  1.00  0.00     0.038 A 
HETATM   18  C   UNL     1      29.682  45.136  55.757  1.00  0.00     0.003 A 
HETATM   19  C   UNL     1      30.506  44.023  55.587  1.00  0.00     0.001 A 
HETATM   20  C   UNL     1      30.105  42.974  54.757  1.00  0.00     0.020 A 
BRANCH  16  21
HETATM   21  O   UNL     1      26.817  44.227  53.673  1.00  0.00    -0.355 OA
HETATM   22  C   UNL     1      26.517  45.565  53.264  1.00  0.00     0.210 C 
ENDBRANCH  16  21
ENDBRANCH  12  15
ENDBRANCH   9  11
ENDBRANCH   7   9
ENDBRANCH   4   7
BRANCH   1  23
HETATM   23  N   UNL     1      22.393  45.458  48.375  1.00  0.00    -0.378 N 
HETATM   24  C   UNL     1      22.338  45.578  46.903  1.00  0.00     0.143 C 
HETATM   25  C   UNL     1      20.948  46.075  46.460  1.00  0.00     0.146 C 
HETATM   26  N   UNL     1      20.512  47.284  47.170  1.00  0.00    -0.345 N 
HETATM   27  C   UNL     1      19.473  48.009  46.579  1.00  0.00     0.253 C 
HETATM   28  C   UNL     1      20.660  47.208  48.632  1.00  0.00     0.146 C 
HETATM   29  O   UNL     1      18.947  47.695  45.514  1.00  0.00    -0.267 OA
HETATM   30  C   UNL     1      22.049  46.713  49.071  1.00  0.00     0.143 C 
BRANCH  27  31
HETATM   31  C   UNL     1      18.997  49.241  47.249  1.00  0.00     0.032 A 
HETATM   32  C   UNL     1      17.754  49.264  47.888  1.00  0.00     0.017 A 
HETATM   33  C   UNL     1      17.332  50.422  48.544  1.00  0.00     0.007 A 
HETATM   34  C   UNL     1      18.150  51.560  48.569  1.00  0.00    -0.062 A 
HETATM   35  C   UNL     1      17.715  52.789  49.313  1.00  0.00     0.048 C 
HETATM   36  C   UNL     1      19.409  51.514  47.956  1.00  0.00     0.007 A 
HETATM   37  C   UNL     1      19.835  50.357  47.300  1.00  0.00     0.017 A 
ENDBRANCH  27  31
ENDBRANCH   1  23
TORSDOF 7
ENDMDL
MODEL 7
REMARK VINA RESULT:      -8.6      2.627      3.532
REMARK  7 active torsions:
REMARK  status: ('A' for Active; 'I' for Inactive)
REMARK    1  A    between atoms: C_5  and  C_6 
REMARK       I    between atoms: C_6  and  N_7 
REMARK    2  A    between atoms: N_10  and  C_11 
REMARK    3  A    between atoms: C_14  and  N_15 
REMARK    4  A    between atoms: N_15  and  C_16 
REMARK    5  A    between atoms: C_16  and  N_17 
REMARK       I    between atoms: N_17  and  C_18 
REMARK    6  A    between atoms: C_18  and  C_19 
REMARK    7  A    between atoms: C_20  and  O_21 
ROOT
HETATM    1  C   UNL     1      23.501  44.526  48.985  1.00  0.00     0.030 A 
HETATM    2  C   UNL     1      23.746  43.840  47.789  1.00  0.00     0.031 A 
HETATM    3  C   UNL     1      24.171  42.504  47.772  1.00  0.00     0.032 A 
HETATM    4  C   UNL     1      24.385  41.815  48.960  1.00  0.00     0.034 A 
HETATM    5  C   UNL     1      24.043  42.441  50.159  1.00  0.00     0.032 A 
HETATM    6  C   UNL     1      23.624  43.780  50.167  1.00  0.00     0.031 A 
ENDROOT
BRANCH   4   7
HETATM    7  N   UNL     1      24.922  40.507  49.028  1.00  0.00    -0.333 N 
HETATM    8  H   UNL     1      24.392  39.872  49.615  1.00  0.00     0.168 HD
BRANCH   7   9
HETATM    9  C   UNL     1      26.254  40.101  48.862  1.00  0.00     0.179 C 
HETATM   10  S   UNL     1      26.821  38.866  47.884  1.00  0.00    -0.040 SA
BRANCH   9  11
HETATM   11  N   UNL     1      27.083  40.933  49.632  1.00  0.00    -0.299 N 
HETATM   12  C   UNL     1      27.981  40.559  50.628  1.00  0.00     0.260 C 
HETATM   13  O   UNL     1      28.649  39.533  50.642  1.00  0.00    -0.267 OA
HETATM   14  H   UNL     1      26.798  41.902  49.635  1.00  0.00     0.171 HD
BRANCH  12  15
HETATM   15  C   UNL     1      28.198  41.583  51.673  1.00  0.00     0.065 A 
HETATM   16  C   UNL     1      27.926  42.933  51.429  1.00  0.00     0.084 A 
HETATM   17  C   UNL     1      28.164  43.883  52.424  1.00  0.00     0.038 A 
HETATM   18  C   UNL     1      28.708  43.489  53.647  1.00  0.00     0.003 A 
HETATM   19  C   UNL     1      28.998  42.145  53.886  1.00  0.00     0.001 A 
HETATM   20  C   UNL     1      28.743  41.188  52.902  1.00  0.00     0.020 A 
BRANCH  16  21
HETATM   21  O   UNL     1      27.323  43.331  50.266  1.00  0.00    -0.355 OA
HETATM   22  C   UNL     1      27.231  44.758  50.215  1.00  0.00     0.210 C 
ENDBRANCH  16  21
ENDBRANCH  12  15
ENDBRANCH   9  11
ENDBRANCH   7   9
ENDBRANCH   4   7
BRANCH   1  23
HETATM   23  N   UNL     1      23.242  45.894  49.038  1.00  0.00    -0.378 N 
HETATM   24  C   UNL     1      24.069  46.723  49.940  1.00  0.00     0.143 C 
HETATM   25  C   UNL     1      24.045  48.195  49.484  1.00  0.00     0.146 C 
HETATM   26  N   UNL     1      22.688  48.715  49.280  1.00  0.00    -0.345 N 
HETATM   27  C   UNL     1      22.555  50.107  49.248  1.00  0.00     0.253 C 
HETATM   28  C   UNL     1      21.826  47.844  48.466  1.00  0.00     0.146 C 
HETATM   29  O   UNL     1      23.497  50.881  49.401  1.00  0.00    -0.267 OA
HETATM   30  C   UNL     1      21.851  46.375  48.925  1.00  0.00     0.143 C 
BRANCH  27  31
HETATM   31  C   UNL     1      21.207  50.687  49.051  1.00  0.00     0.032 A 
HETATM   32  C   UNL     1      20.657  50.779  47.769  1.00  0.00     0.017 A 
HETATM   33  C   UNL     1      19.371  51.298  47.602  1.00  0.00     0.007 A 
HETATM   34  C   UNL     1      18.629  51.723  48.711  1.00  0.00    -0.062 A 
HETATM   35  C   UNL     1      17.230  52.239  48.535  1.00  0.00     0.048 C 
HETATM   36  C   UNL     1      19.177  51.593  49.995  1.00  0.00     0.007 A 
HETATM   37  C   UNL     1      20.462  51.074  50.167  1.00  0.00     0.017 A 
ENDBRANCH  27  31
ENDBRANCH   1  23
TORSDOF 7
ENDMDL
MODEL 8
REMARK VINA RESULT:      -8.4      4.787      9.298
REMARK  7 active torsions:
REMARK  status: ('A' for Active; 'I' for Inactive)
REMARK    1  A    between atoms: C_5  and  C_6 
REMARK       I    between atoms: C_6  and  N_7 
REMARK    2  A    between atoms: N_10  and  C_11 
REMARK    3  A    between atoms: C_14  and  N_15 
REMARK    4  A    between atoms: N_15  and  C_16 
REMARK    5  A    between atoms: C_16  and  N_17 
REMARK       I    between atoms: N_17  and  C_18 
REMARK    6  A    between atoms: C_18  and  C_19 
REMARK    7  A    between atoms: C_20  and  O_21 
ROOT
HETATM    1  C   UNL     1      24.587  44.748  50.774  1.00  0.00     0.030 A 
HETATM    2  C   UNL     1      24.710  45.294  49.489  1.00  0.00     0.031 A 
HETATM    3  C   UNL     1      24.027  44.761  48.387  1.00  0.00     0.032 A 
HETATM    4  C   UNL     1      23.210  43.646  48.533  1.00  0.00     0.034 A 
HETATM    5  C   UNL     1      22.986  43.154  49.819  1.00  0.00     0.032 A 
HETATM    6  C   UNL     1      23.679  43.689  50.915  1.00  0.00     0.031 A 
ENDROOT
BRANCH   4   7
HETATM    7  N   UNL     1      22.580  42.983  47.453  1.00  0.00    -0.333 N 
HETATM    8  H   UNL     1      21.638  42.666  47.654  1.00  0.00     0.168 HD
BRANCH   7   9
HETATM    9  C   UNL     1      23.174  42.270  46.401  1.00  0.00     0.179 C 
HETATM   10  S   UNL     1      22.542  42.007  44.873  1.00  0.00    -0.040 SA
BRANCH   9  11
HETATM   11  N   UNL     1      24.440  41.822  46.812  1.00  0.00    -0.299 N 
HETATM   12  C   UNL     1      24.779  40.575  47.331  1.00  0.00     0.260 C 
HETATM   13  O   UNL     1      24.276  39.505  47.011  1.00  0.00    -0.267 OA
HETATM   14  H   UNL     1      25.099  42.567  46.988  1.00  0.00     0.171 HD
BRANCH  12  15
HETATM   15  C   UNL     1      25.935  40.590  48.253  1.00  0.00     0.065 A 
HETATM   16  C   UNL     1      27.205  40.187  47.828  1.00  0.00     0.084 A 
HETATM   17  C   UNL     1      28.273  40.186  48.727  1.00  0.00     0.038 A 
HETATM   18  C   UNL     1      28.064  40.550  50.058  1.00  0.00     0.003 A 
HETATM   19  C   UNL     1      26.793  40.933  50.489  1.00  0.00     0.001 A 
HETATM   20  C   UNL     1      25.725  40.956  49.590  1.00  0.00     0.020 A 
BRANCH  16  21
HETATM   21  O   UNL     1      27.448  39.899  46.512  1.00  0.00    -0.355 OA
HETATM   22  C   UNL     1      28.152  40.977  45.888  1.00  0.00     0.210 C 
ENDBRANCH  16  21
ENDBRANCH  12  15
ENDBRANCH   9  11
ENDBRANCH   7   9
ENDBRANCH   4   7
BRANCH   1  23
HETATM   23  N   UNL     1      25.378  45.148  51.849  1.00  0.00    -0.378 N 
HETATM   24  C   UNL     1      25.657  46.592  52.007  1.00  0.00     0.143 C 
HETATM   25  C   UNL     1      26.036  46.905  53.467  1.00  0.00     0.146 C 
HETATM   26  N   UNL     1      27.098  46.036  53.989  1.00  0.00    -0.345 N 
HETATM   27  C   UNL     1      27.761  46.485  55.135  1.00  0.00     0.253 C 
HETATM   28  C   UNL     1      26.876  44.602  53.744  1.00  0.00     0.146 C 
HETATM   29  O   UNL     1      27.511  47.553  55.687  1.00  0.00    -0.267 OA
HETATM   30  C   UNL     1      26.498  44.292  52.285  1.00  0.00     0.143 C 
BRANCH  27  31
HETATM   31  C   UNL     1      28.846  45.651  55.701  1.00  0.00     0.032 A 
HETATM   32  C   UNL     1      29.384  44.593  54.962  1.00  0.00     0.017 A 
HETATM   33  C   UNL     1      30.430  43.836  55.495  1.00  0.00     0.007 A 
HETATM   34  C   UNL     1      30.944  44.132  56.764  1.00  0.00    -0.062 A 
HETATM   35  C   UNL     1      32.097  43.346  57.318  1.00  0.00     0.048 C 
HETATM   36  C   UNL     1      30.420  45.217  57.481  1.00  0.00     0.007 A 
HETATM   37  C   UNL     1      29.376  45.978  56.951  1.00  0.00     0.017 A 
ENDBRANCH  27  31
ENDBRANCH   1  23
TORSDOF 7
ENDMDL
MODEL 9
REMARK VINA RESULT:      -8.3      3.525     10.079
REMARK  7 active torsions:
REMARK  status: ('A' for Active; 'I' for Inactive)
REMARK    1  A    between atoms: C_5  and  C_6 
REMARK       I    between atoms: C_6  and  N_7 
REMARK    2  A    between atoms: N_10  and  C_11 
REMARK    3  A    between atoms: C_14  and  N_15 
REMARK    4  A    between atoms: N_15  and  C_16 
REMARK    5  A    between atoms: C_16  and  N_17 
REMARK       I    between atoms: N_17  and  C_18 
REMARK    6  A    between atoms: C_18  and  C_19 
REMARK    7  A    between atoms: C_20  and  O_21 
ROOT
HETATM    1  C   UNL     1      24.429  45.023  50.726  1.00  0.00     0.030 A 
HETATM    2  C   UNL     1      24.047  45.937  49.736  1.00  0.00     0.031 A 
HETATM    3  C   UNL     1      23.397  45.533  48.561  1.00  0.00     0.032 A 
HETATM    4  C   UNL     1      23.125  44.189  48.330  1.00  0.00     0.034 A 
HETATM    5  C   UNL     1      23.397  43.275  49.348  1.00  0.00     0.032 A 
HETATM    6  C   UNL     1      24.053  43.688  50.517  1.00  0.00     0.031 A 
ENDROOT
BRANCH   4   7
HETATM    7  N   UNL     1      22.578  43.692  47.123  1.00  0.00    -0.333 N 
HETATM    8  H   UNL     1      23.197  43.771  46.324  1.00  0.00     0.168 HD
BRANCH   7   9
HETATM    9  C   UNL     1      21.229  43.598  46.752  1.00  0.00     0.179 C 
HETATM   10  S   UNL     1      20.495  42.348  45.915  1.00  0.00    -0.040 SA
BRANCH   9  11
HETATM   11  N   UNL     1      20.544  44.727  47.230  1.00  0.00    -0.299 N 
HETATM   12  C   UNL     1      20.192  45.877  46.527  1.00  0.00     0.260 C 
HETATM   13  O   UNL     1      19.866  45.923  45.348  1.00  0.00    -0.267 OA
HETATM   14  H   UNL     1      20.548  44.810  48.237  1.00  0.00     0.171 HD
BRANCH  12  15
HETATM   15  C   UNL     1      20.106  47.098  47.355  1.00  0.00     0.065 A 
HETATM   16  C   UNL     1      18.928  47.431  48.031  1.00  0.00     0.084 A 
HETATM   17  C   UNL     1      18.864  48.605  48.786  1.00  0.00     0.038 A 
HETATM   18  C   UNL     1      19.964  49.463  48.833  1.00  0.00     0.003 A 
HETATM   19  C   UNL     1      21.134  49.142  48.143  1.00  0.00     0.001 A 
HETATM   20  C   UNL     1      21.210  47.960  47.404  1.00  0.00     0.020 A 
BRANCH  16  21
HETATM   21  O   UNL     1      17.865  46.569  48.061  1.00  0.00    -0.355 OA
HETATM   22  C   UNL     1      16.812  47.103  48.869  1.00  0.00     0.210 C 
ENDBRANCH  16  21
ENDBRANCH  12  15
ENDBRANCH   9  11
ENDBRANCH   7   9
ENDBRANCH   4   7
BRANCH   1  23
HETATM   23  N   UNL     1      25.221  45.371  51.819  1.00  0.00    -0.378 N 
HETATM   24  C   UNL     1      25.477  46.806  52.061  1.00  0.00     0.143 C 
HETATM   25  C   UNL     1      25.861  47.038  53.535  1.00  0.00     0.146 C 
HETATM   26  N   UNL     1      26.941  46.157  53.997  1.00  0.00    -0.345 N 
HETATM   27  C   UNL     1      27.605  46.548  55.164  1.00  0.00     0.253 C 
HETATM   28  C   UNL     1      26.741  44.737  53.668  1.00  0.00     0.146 C 
HETATM   29  O   UNL     1      27.340  47.577  55.781  1.00  0.00    -0.267 OA
HETATM   30  C   UNL     1      26.358  44.509  52.195  1.00  0.00     0.143 C 
BRANCH  27  31
HETATM   31  C   UNL     1      28.707  45.700  55.672  1.00  0.00     0.032 A 
HETATM   32  C   UNL     1      29.229  44.670  54.884  1.00  0.00     0.017 A 
HETATM   33  C   UNL     1      30.290  43.900  55.363  1.00  0.00     0.007 A 
HETATM   34  C   UNL     1      30.838  44.156  56.627  1.00  0.00    -0.062 A 
HETATM   35  C   UNL     1      32.008  43.356  57.123  1.00  0.00     0.048 C 
HETATM   36  C   UNL     1      30.330  45.213  57.394  1.00  0.00     0.007 A 
HETATM   37  C   UNL     1      29.269  45.987  56.918  1.00  0.00     0.017 A 
ENDBRANCH  27  31
ENDBRANCH   1  23
TORSDOF 7
ENDMDL
MODEL 10
REMARK VINA RESULT:      -8.2      1.998      2.798
REMARK  7 active torsions:
REMARK  status: ('A' for Active; 'I' for Inactive)
REMARK    1  A    between atoms: C_5  and  C_6 
REMARK       I    between atoms: C_6  and  N_7 
REMARK    2  A    between atoms: N_10  and  C_11 
REMARK    3  A    between atoms: C_14  and  N_15 
REMARK    4  A    between atoms: N_15  and  C_16 
REMARK    5  A    between atoms: C_16  and  N_17 
REMARK       I    between atoms: N_17  and  C_18 
REMARK    6  A    between atoms: C_18  and  C_19 
REMARK    7  A    between atoms: C_20  and  O_21 
ROOT
HETATM    1  C   UNL     1      23.381  44.577  49.021  1.00  0.00     0.030 A 
HETATM    2  C   UNL     1      24.115  43.829  48.091  1.00  0.00     0.031 A 
HETATM    3  C   UNL     1      24.819  42.673  48.456  1.00  0.00     0.032 A 
HETATM    4  C   UNL     1      24.826  42.237  49.777  1.00  0.00     0.034 A 
HETATM    5  C   UNL     1      24.015  42.901  50.696  1.00  0.00     0.032 A 
HETATM    6  C   UNL     1      23.319  44.061  50.323  1.00  0.00     0.031 A 
ENDROOT
BRANCH   4   7
HETATM    7  N   UNL     1      25.602  41.149  50.244  1.00  0.00    -0.333 N 
HETATM    8  H   UNL     1      25.079  40.470  50.784  1.00  0.00     0.168 HD
BRANCH   7   9
HETATM    9  C   UNL     1      26.976  41.114  50.521  1.00  0.00     0.179 C 
HETATM   10  S   UNL     1      28.161  40.302  49.660  1.00  0.00    -0.040 SA
BRANCH   9  11
HETATM   11  N   UNL     1      27.236  41.918  51.643  1.00  0.00    -0.299 N 
HETATM   12  C   UNL     1      27.844  43.170  51.677  1.00  0.00     0.260 C 
HETATM   13  O   UNL     1      27.740  44.040  50.821  1.00  0.00    -0.267 OA
HETATM   14  H   UNL     1      27.213  41.414  52.519  1.00  0.00     0.171 HD
BRANCH  12  15
HETATM   15  C   UNL     1      28.565  43.466  52.933  1.00  0.00     0.065 A 
HETATM   16  C   UNL     1      28.072  44.406  53.845  1.00  0.00     0.084 A 
HETATM   17  C   UNL     1      28.787  44.686  55.011  1.00  0.00     0.038 A 
HETATM   18  C   UNL     1      30.010  44.056  55.247  1.00  0.00     0.003 A 
HETATM   19  C   UNL     1      30.512  43.133  54.329  1.00  0.00     0.001 A 
HETATM   20  C   UNL     1      29.793  42.833  53.171  1.00  0.00     0.020 A 
BRANCH  16  21
HETATM   21  O   UNL     1      26.842  44.978  53.671  1.00  0.00    -0.355 OA
HETATM   22  C   UNL     1      26.886  46.368  54.006  1.00  0.00     0.210 C 
ENDBRANCH  16  21
ENDBRANCH  12  15
ENDBRANCH   9  11
ENDBRANCH   7   9
ENDBRANCH   4   7
BRANCH   1  23
HETATM   23  N   UNL     1      22.814  45.815  48.724  1.00  0.00    -0.378 N 
HETATM   24  C   UNL     1      23.461  47.025  49.274  1.00  0.00     0.143 C 
HETATM   25  C   UNL     1      23.078  48.261  48.438  1.00  0.00     0.146 C 
HETATM   26  N   UNL     1      21.630  48.401  48.241  1.00  0.00    -0.345 N 
HETATM   27  C   UNL     1      21.177  49.663  47.843  1.00  0.00     0.253 C 
HETATM   28  C   UNL     1      20.963  47.169  47.791  1.00  0.00     0.146 C 
HETATM   29  O   UNL     1      21.919  50.629  47.680  1.00  0.00    -0.267 OA
HETATM   30  C   UNL     1      21.346  45.937  48.628  1.00  0.00     0.143 C 
BRANCH  27  31
HETATM   31  C   UNL     1      19.725  49.863  47.636  1.00  0.00     0.032 A 
HETATM   32  C   UNL     1      19.229  50.183  46.369  1.00  0.00     0.017 A 
HETATM   33  C   UNL     1      17.853  50.336  46.181  1.00  0.00     0.007 A 
HETATM   34  C   UNL     1      16.968  50.166  47.254  1.00  0.00    -0.062 A 
HETATM   35  C   UNL     1      15.487  50.287  47.041  1.00  0.00     0.048 C 
HETATM   36  C   UNL     1      17.474  49.810  48.511  1.00  0.00     0.007 A 
HETATM   37  C   UNL     1      18.849  49.655  48.704  1.00  0.00     0.017 A 
ENDBRANCH  27  31
ENDBRANCH   1  23
TORSDOF 7
ENDMDL
