MODEL 1
REMARK VINA RESULT:      -9.8      0.000      0.000
REMARK  7 active torsions:
REMARK  status: ('A' for Active; 'I' for Inactive)
REMARK    1  A    between atoms: O_2  and  C_3 
REMARK    2  A    between atoms: C_5  and  C_6 
REMARK    3  A    between atoms: C_6  and  O_7 
REMARK    4  A    between atoms: C_6  and  C_8 
REMARK    5  A    between atoms: C_8  and  N_9 
REMARK       I    between atoms: N_9  and  C_10 
REMARK    6  A    between atoms: C_10  and  C_11 
REMARK    7  A    between atoms: C_12  and  C_13 
ROOT
HETATM    1  C   UNL     1      25.782  42.289  50.816  1.00  0.00     0.089 C 
HETATM    2  C   UNL     1      27.300  42.528  50.614  1.00  0.00     0.068 C 
HETATM    3  C   UNL     1      27.999  41.261  50.077  1.00  0.00     0.013 C 
HETATM    4  C   UNL     1      27.326  40.697  48.834  1.00  0.00     0.001 C 
HETATM    5  C   UNL     1      25.852  40.419  49.090  1.00  0.00     0.001 C 
HETATM    6  C   UNL     1      25.140  41.680  49.555  1.00  0.00     0.015 C 
ENDROOT
BRANCH   1   7
HETATM    7  C   UNL     1      25.051  43.590  51.158  1.00  0.00     0.222 C 
HETATM    8  N   UNL     1      25.045  44.528  50.151  1.00  0.00    -0.358 N 
HETATM    9  H   UNL     1      25.295  44.209  49.212  1.00  0.00     0.162 HD
HETATM   10  O   UNL     1      24.509  43.792  52.241  1.00  0.00    -0.273 OA
BRANCH   8  11
HETATM   11  C   UNL     1      24.294  45.771  50.277  1.00  0.00     0.159 C 
BRANCH  11  12
HETATM   12  C   UNL     1      25.134  46.887  50.927  1.00  0.00     0.169 C 
BRANCH  12  13
HETATM   13  C   UNL     1      25.541  47.935  49.916  1.00  0.00    -0.025 A 
HETATM   14  C   UNL     1      24.589  48.591  49.114  1.00  0.00     0.046 A 
HETATM   15  C   UNL     1      24.977  49.580  48.206  1.00  0.00     0.068 A 
HETATM   16  C   UNL     1      26.327  49.919  48.102  1.00  0.00     0.037 A 
HETATM   17  C   UNL     1      27.283  49.281  48.891  1.00  0.00     0.003 A 
HETATM   18  C   UNL     1      26.892  48.297  49.797  1.00  0.00     0.010 A 
BRANCH  15  19
HETATM   19  O   UNL     1      24.145  50.285  47.380  1.00  0.00    -0.356 OA
HETATM   20  C   UNL     1      22.970  50.829  47.967  1.00  0.00     0.210 C 
ENDBRANCH  15  19
ENDBRANCH  12  13
BRANCH  12  21
HETATM   21  O   UNL     1      26.306  46.305  51.517  1.00  0.00    -0.389 OA
HETATM   22  H   UNL     1      25.996  45.473  51.918  1.00  0.00     0.210 HD
ENDBRANCH  12  21
ENDBRANCH  11  12
ENDBRANCH   8  11
ENDBRANCH   1   7
BRANCH   2  23
HETATM   23  C   UNL     1      27.995  42.949  51.882  1.00  0.00     0.110 A 
HETATM   24  N   UNL     1      29.009  42.344  52.472  1.00  0.00    -0.233 NA
HETATM   25  C   UNL     1      29.321  43.115  53.565  1.00  0.00     0.087 A 
HETATM   26  C   UNL     1      28.468  44.208  53.658  1.00  0.00     0.062 A 
HETATM   27  C   UNL     1      30.323  42.935  54.527  1.00  0.00     0.057 A 
HETATM   28  N   UNL     1      27.625  44.073  52.584  1.00  0.00    -0.342 N 
HETATM   29  C   UNL     1      28.555  45.167  54.669  1.00  0.00     0.034 A 
HETATM   30  H   UNL     1      26.875  44.703  52.337  1.00  0.00     0.167 HD
HETATM   31  C   UNL     1      29.564  44.980  55.621  1.00  0.00     0.026 A 
HETATM   32  C   UNL     1      30.428  43.883  55.549  1.00  0.00     0.036 A 
HETATM   33 CL   UNL     1      31.652  43.696  56.747  1.00  0.00    -0.084 Cl
ENDBRANCH   2  23
TORSDOF 7
ENDMDL
MODEL 2
REMARK VINA RESULT:      -9.5      1.567      2.253
REMARK  7 active torsions:
REMARK  status: ('A' for Active; 'I' for Inactive)
REMARK    1  A    between atoms: O_2  and  C_3 
REMARK    2  A    between atoms: C_5  and  C_6 
REMARK    3  A    between atoms: C_6  and  O_7 
REMARK    4  A    between atoms: C_6  and  C_8 
REMARK    5  A    between atoms: C_8  and  N_9 
REMARK       I    between atoms: N_9  and  C_10 
REMARK    6  A    between atoms: C_10  and  C_11 
REMARK    7  A    between atoms: C_12  and  C_13 
ROOT
HETATM    1  C   UNL     1      26.314  43.057  52.074  1.00  0.00     0.089 C 
HETATM    2  C   UNL     1      27.855  43.064  51.909  1.00  0.00     0.068 C 
HETATM    3  C   UNL     1      28.385  41.663  51.538  1.00  0.00     0.013 C 
HETATM    4  C   UNL     1      27.672  41.061  50.335  1.00  0.00     0.001 C 
HETATM    5  C   UNL     1      26.168  41.016  50.559  1.00  0.00     0.001 C 
HETATM    6  C   UNL     1      25.626  42.405  50.859  1.00  0.00     0.015 C 
ENDROOT
BRANCH   1   7
HETATM    7  C   UNL     1      25.763  44.474  52.247  1.00  0.00     0.222 C 
HETATM    8  N   UNL     1      26.391  45.432  51.485  1.00  0.00    -0.358 N 
HETATM    9  H   UNL     1      26.979  45.107  50.714  1.00  0.00     0.162 HD
HETATM   10  O   UNL     1      24.834  44.747  53.002  1.00  0.00    -0.273 OA
BRANCH   8  11
HETATM   11  C   UNL     1      25.911  46.808  51.449  1.00  0.00     0.159 C 
BRANCH  11  12
HETATM   12  C   UNL     1      26.430  47.567  50.213  1.00  0.00     0.169 C 
BRANCH  12  13
HETATM   13  C   UNL     1      25.311  48.288  49.494  1.00  0.00    -0.025 A 
HETATM   14  C   UNL     1      23.967  47.907  49.660  1.00  0.00     0.046 A 
HETATM   15  C   UNL     1      22.941  48.603  49.015  1.00  0.00     0.068 A 
HETATM   16  C   UNL     1      23.262  49.689  48.200  1.00  0.00     0.037 A 
HETATM   17  C   UNL     1      24.588  50.082  48.027  1.00  0.00     0.003 A 
HETATM   18  C   UNL     1      25.608  49.387  48.674  1.00  0.00     0.010 A 
BRANCH  15  19
HETATM   19  O   UNL     1      21.604  48.329  49.102  1.00  0.00    -0.356 OA
HETATM   20  C   UNL     1      20.730  49.441  49.249  1.00  0.00     0.210 C 
ENDBRANCH  15  19
ENDBRANCH  12  13
BRANCH  12  21
HETATM   21  O   UNL     1      27.054  46.633  49.320  1.00  0.00    -0.389 OA
HETATM   22  H   UNL     1      26.988  45.773  49.773  1.00  0.00     0.210 HD
ENDBRANCH  12  21
ENDBRANCH  11  12
ENDBRANCH   8  11
ENDBRANCH   1   7
BRANCH   2  23
HETATM   23  C   UNL     1      28.570  43.524  53.153  1.00  0.00     0.110 A 
HETATM   24  N   UNL     1      28.346  44.632  53.835  1.00  0.00    -0.233 NA
HETATM   25  C   UNL     1      29.210  44.595  54.902  1.00  0.00     0.087 A 
HETATM   26  C   UNL     1      29.992  43.447  54.866  1.00  0.00     0.062 A 
HETATM   27  C   UNL     1      29.381  45.517  55.944  1.00  0.00     0.057 A 
HETATM   28  N   UNL     1      29.576  42.790  53.736  1.00  0.00    -0.342 N 
HETATM   29  C   UNL     1      30.955  43.143  55.829  1.00  0.00     0.034 A 
HETATM   30  H   UNL     1      29.932  41.905  53.402  1.00  0.00     0.167 HD
HETATM   31  C   UNL     1      31.113  44.068  56.868  1.00  0.00     0.026 A 
HETATM   32  C   UNL     1      30.340  45.232  56.920  1.00  0.00     0.036 A 
HETATM   33 CL   UNL     1      30.575  46.341  58.217  1.00  0.00    -0.084 Cl
ENDBRANCH   2  23
TORSDOF 7
ENDMDL
MODEL 3
REMARK VINA RESULT:      -9.3      2.210      3.450
REMARK  7 active torsions:
REMARK  status: ('A' for Active; 'I' for Inactive)
REMARK    1  A    between atoms: O_2  and  C_3 
REMARK    2  A    between atoms: C_5  and  C_6 
REMARK    3  A    between atoms: C_6  and  O_7 
REMARK    4  A    between atoms: C_6  and  C_8 
REMARK    5  A    between atoms: C_8  and  N_9 
REMARK       I    between atoms: N_9  and  C_10 
REMARK    6  A    between atoms: C_10  and  C_11 
REMARK    7  A    between atoms: C_12  and  C_13 
ROOT
HETATM    1  C   UNL     1      26.916  39.883  49.859  1.00  0.00     0.089 C 
HETATM    2  C   UNL     1      28.391  40.169  50.237  1.00  0.00     0.068 C 
HETATM    3  C   UNL     1      29.088  38.900  50.773  1.00  0.00     0.013 C 
HETATM    4  C   UNL     1      28.945  37.708  49.838  1.00  0.00     0.001 C 
HETATM    5  C   UNL     1      27.481  37.421  49.539  1.00  0.00     0.001 C 
HETATM    6  C   UNL     1      26.803  38.647  48.946  1.00  0.00     0.015 C 
ENDROOT
BRANCH   1   7
HETATM    7  C   UNL     1      26.278  41.078  49.147  1.00  0.00     0.222 C 
HETATM    8  N   UNL     1      25.208  41.637  49.807  1.00  0.00    -0.358 N 
HETATM    9  H   UNL     1      25.082  41.386  50.791  1.00  0.00     0.162 HD
HETATM   10  O   UNL     1      26.682  41.515  48.072  1.00  0.00    -0.273 OA
BRANCH   8  11
HETATM   11  C   UNL     1      24.564  42.850  49.319  1.00  0.00     0.159 C 
BRANCH  11  12
HETATM   12  C   UNL     1      24.018  43.715  50.471  1.00  0.00     0.169 C 
BRANCH  12  13
HETATM   13  C   UNL     1      24.868  44.947  50.689  1.00  0.00    -0.025 A 
HETATM   14  C   UNL     1      25.776  45.395  49.712  1.00  0.00     0.046 A 
HETATM   15  C   UNL     1      26.531  46.554  49.915  1.00  0.00     0.068 A 
HETATM   16  C   UNL     1      26.375  47.271  51.103  1.00  0.00     0.037 A 
HETATM   17  C   UNL     1      25.477  46.842  52.079  1.00  0.00     0.003 A 
HETATM   18  C   UNL     1      24.724  45.688  51.872  1.00  0.00     0.010 A 
BRANCH  15  19
HETATM   19  O   UNL     1      27.439  47.086  49.041  1.00  0.00    -0.356 OA
HETATM   20  C   UNL     1      27.566  48.503  49.034  1.00  0.00     0.210 C 
ENDBRANCH  15  19
ENDBRANCH  12  13
BRANCH  12  21
HETATM   21  O   UNL     1      23.989  42.930  51.671  1.00  0.00    -0.389 OA
HETATM   22  H   UNL     1      23.424  42.166  51.456  1.00  0.00     0.210 HD
ENDBRANCH  12  21
ENDBRANCH  11  12
ENDBRANCH   8  11
ENDBRANCH   1   7
BRANCH   2  23
HETATM   23  C   UNL     1      28.525  41.254  51.273  1.00  0.00     0.110 A 
HETATM   24  N   UNL     1      27.785  42.341  51.386  1.00  0.00    -0.233 NA
HETATM   25  C   UNL     1      28.257  43.001  52.495  1.00  0.00     0.087 A 
HETATM   26  C   UNL     1      29.321  42.313  53.064  1.00  0.00     0.062 A 
HETATM   27  C   UNL     1      27.821  44.202  53.071  1.00  0.00     0.057 A 
HETATM   28  N   UNL     1      29.482  41.213  52.261  1.00  0.00    -0.342 N 
HETATM   29  C   UNL     1      29.995  42.748  54.207  1.00  0.00     0.034 A 
HETATM   30  H   UNL     1      30.171  40.484  52.385  1.00  0.00     0.167 HD
HETATM   31  C   UNL     1      29.546  43.946  54.777  1.00  0.00     0.026 A 
HETATM   32  C   UNL     1      28.482  44.657  54.216  1.00  0.00     0.036 A 
HETATM   33 CL   UNL     1      27.970  46.128  54.954  1.00  0.00    -0.084 Cl
ENDBRANCH   2  23
TORSDOF 7
ENDMDL
MODEL 4
REMARK VINA RESULT:      -9.2      2.531      4.858
REMARK  7 active torsions:
REMARK  status: ('A' for Active; 'I' for Inactive)
REMARK    1  A    between atoms: O_2  and  C_3 
REMARK    2  A    between atoms: C_5  and  C_6 
REMARK    3  A    between atoms: C_6  and  O_7 
REMARK    4  A    between atoms: C_6  and  C_8 
REMARK    5  A    between atoms: C_8  and  N_9 
REMARK       I    between atoms: N_9  and  C_10 
REMARK    6  A    between atoms: C_10  and  C_11 
REMARK    7  A    between atoms: C_12  and  C_13 
ROOT
HETATM    1  C   UNL     1      28.171  44.085  53.060  1.00  0.00     0.089 C 
HETATM    2  C   UNL     1      28.310  42.557  53.273  1.00  0.00     0.068 C 
HETATM    3  C   UNL     1      29.643  42.207  53.968  1.00  0.00     0.013 C 
HETATM    4  C   UNL     1      29.867  42.999  55.249  1.00  0.00     0.001 C 
HETATM    5  C   UNL     1      29.783  44.495  54.988  1.00  0.00     0.001 C 
HETATM    6  C   UNL     1      28.443  44.858  54.365  1.00  0.00     0.015 C 
ENDROOT
BRANCH   1   7
HETATM    7  C   UNL     1      26.774  44.455  52.553  1.00  0.00     0.222 C 
HETATM    8  N   UNL     1      26.761  45.171  51.378  1.00  0.00    -0.358 N 
HETATM    9  H   UNL     1      27.622  45.185  50.827  1.00  0.00     0.162 HD
HETATM   10  O   UNL     1      25.742  44.143  53.139  1.00  0.00    -0.273 OA
BRANCH   8  11
HETATM   11  C   UNL     1      25.510  45.501  50.705  1.00  0.00     0.159 C 
BRANCH  11  12
HETATM   12  C   UNL     1      25.030  46.924  51.048  1.00  0.00     0.169 C 
BRANCH  12  13
HETATM   13  C   UNL     1      25.464  47.923  49.998  1.00  0.00    -0.025 A 
HETATM   14  C   UNL     1      24.528  48.577  49.176  1.00  0.00     0.046 A 
HETATM   15  C   UNL     1      24.941  49.521  48.232  1.00  0.00     0.068 A 
HETATM   16  C   UNL     1      26.300  49.816  48.112  1.00  0.00     0.037 A 
HETATM   17  C   UNL     1      27.240  49.180  48.921  1.00  0.00     0.003 A 
HETATM   18  C   UNL     1      26.824  48.241  49.863  1.00  0.00     0.010 A 
BRANCH  15  19
HETATM   19  O   UNL     1      24.127  50.220  47.384  1.00  0.00    -0.356 OA
HETATM   20  C   UNL     1      23.076  50.973  47.978  1.00  0.00     0.210 C 
ENDBRANCH  15  19
ENDBRANCH  12  13
BRANCH  12  21
HETATM   21  O   UNL     1      25.566  47.302  52.324  1.00  0.00    -0.389 OA
HETATM   22  H   UNL     1      26.472  46.942  52.331  1.00  0.00     0.210 HD
ENDBRANCH  12  21
ENDBRANCH  11  12
ENDBRANCH   8  11
ENDBRANCH   1   7
BRANCH   2  23
HETATM   23  C   UNL     1      28.232  41.781  51.984  1.00  0.00     0.110 A 
HETATM   24  N   UNL     1      27.743  42.200  50.832  1.00  0.00    -0.233 NA
HETATM   25  C   UNL     1      27.925  41.164  49.949  1.00  0.00     0.087 A 
HETATM   26  C   UNL     1      28.524  40.079  50.577  1.00  0.00     0.062 A 
HETATM   27  C   UNL     1      27.596  41.082  48.590  1.00  0.00     0.057 A 
HETATM   28  N   UNL     1      28.696  40.491  51.874  1.00  0.00    -0.342 N 
HETATM   29  C   UNL     1      28.834  38.886  49.922  1.00  0.00     0.034 A 
HETATM   30  H   UNL     1      29.113  39.948  52.617  1.00  0.00     0.167 HD
HETATM   31  C   UNL     1      28.506  38.818  48.562  1.00  0.00     0.026 A 
HETATM   32  C   UNL     1      27.897  39.896  47.913  1.00  0.00     0.036 A 
HETATM   33 CL   UNL     1      27.511  39.761  46.239  1.00  0.00    -0.084 Cl
ENDBRANCH   2  23
TORSDOF 7
ENDMDL
MODEL 5
REMARK VINA RESULT:      -8.9     11.691     13.191
REMARK  7 active torsions:
REMARK  status: ('A' for Active; 'I' for Inactive)
REMARK    1  A    between atoms: O_2  and  C_3 
REMARK    2  A    between atoms: C_5  and  C_6 
REMARK    3  A    between atoms: C_6  and  O_7 
REMARK    4  A    between atoms: C_6  and  C_8 
REMARK    5  A    between atoms: C_8  and  N_9 
REMARK       I    between atoms: N_9  and  C_10 
REMARK    6  A    between atoms: C_10  and  C_11 
REMARK    7  A    between atoms: C_12  and  C_13 
ROOT
HETATM    1  C   UNL     1      27.872  48.330  39.620  1.00  0.00     0.089 C 
HETATM    2  C   UNL     1      29.294  47.725  39.513  1.00  0.00     0.068 C 
HETATM    3  C   UNL     1      29.311  46.250  39.970  1.00  0.00     0.013 C 
HETATM    4  C   UNL     1      28.261  45.402  39.266  1.00  0.00     0.001 C 
HETATM    5  C   UNL     1      26.871  45.995  39.445  1.00  0.00     0.001 C 
HETATM    6  C   UNL     1      26.828  47.428  38.934  1.00  0.00     0.015 C 
ENDROOT
BRANCH   1   7
HETATM    7  C   UNL     1      27.806  49.723  38.987  1.00  0.00     0.222 C 
HETATM    8  N   UNL     1      28.055  50.761  39.856  1.00  0.00    -0.358 N 
HETATM    9  H   UNL     1      28.489  50.528  40.752  1.00  0.00     0.162 HD
HETATM   10  O   UNL     1      27.555  49.911  37.800  1.00  0.00    -0.273 OA
BRANCH   8  11
HETATM   11  C   UNL     1      28.144  52.138  39.387  1.00  0.00     0.159 C 
BRANCH  11  12
HETATM   12  C   UNL     1      29.268  52.916  40.097  1.00  0.00     0.169 C 
BRANCH  12  13
HETATM   13  C   UNL     1      30.630  52.540  39.554  1.00  0.00    -0.025 A 
HETATM   14  C   UNL     1      31.814  53.006  40.156  1.00  0.00     0.046 A 
HETATM   15  C   UNL     1      33.064  52.624  39.663  1.00  0.00     0.068 A 
HETATM   16  C   UNL     1      33.132  51.768  38.562  1.00  0.00     0.037 A 
HETATM   17  C   UNL     1      31.968  51.296  37.956  1.00  0.00     0.003 A 
HETATM   18  C   UNL     1      30.723  51.677  38.453  1.00  0.00     0.010 A 
BRANCH  15  19
HETATM   19  O   UNL     1      34.278  53.007  40.164  1.00  0.00    -0.356 OA
HETATM   20  C   UNL     1      35.432  52.498  39.507  1.00  0.00     0.210 C 
ENDBRANCH  15  19
ENDBRANCH  12  13
BRANCH  12  21
HETATM   21  O   UNL     1      29.214  52.636  41.502  1.00  0.00    -0.389 OA
HETATM   22  H   UNL     1      29.382  53.493  41.935  1.00  0.00     0.210 HD
ENDBRANCH  12  21
ENDBRANCH  11  12
ENDBRANCH   8  11
ENDBRANCH   1   7
BRANCH   2  23
HETATM   23  C   UNL     1      30.310  48.483  40.327  1.00  0.00     0.110 A 
HETATM   24  N   UNL     1      30.072  49.297  41.338  1.00  0.00    -0.233 NA
HETATM   25  C   UNL     1      31.304  49.714  41.781  1.00  0.00     0.087 A 
HETATM   26  C   UNL     1      32.319  49.157  41.013  1.00  0.00     0.062 A 
HETATM   27  C   UNL     1      31.627  50.576  42.837  1.00  0.00     0.057 A 
HETATM   28  N   UNL     1      31.661  48.389  40.087  1.00  0.00    -0.342 N 
HETATM   29  C   UNL     1      33.675  49.401  41.239  1.00  0.00     0.034 A 
HETATM   30  H   UNL     1      32.095  47.831  39.365  1.00  0.00     0.167 HD
HETATM   31  C   UNL     1      33.986  50.259  42.301  1.00  0.00     0.026 A 
HETATM   32  C   UNL     1      32.979  50.835  43.081  1.00  0.00     0.036 A 
HETATM   33 CL   UNL     1      33.414  51.887  44.374  1.00  0.00    -0.084 Cl
ENDBRANCH   2  23
TORSDOF 7
ENDMDL
MODEL 6
REMARK VINA RESULT:      -8.9      3.176      7.217
REMARK  7 active torsions:
REMARK  status: ('A' for Active; 'I' for Inactive)
REMARK    1  A    between atoms: O_2  and  C_3 
REMARK    2  A    between atoms: C_5  and  C_6 
REMARK    3  A    between atoms: C_6  and  O_7 
REMARK    4  A    between atoms: C_6  and  C_8 
REMARK    5  A    between atoms: C_8  and  N_9 
REMARK       I    between atoms: N_9  and  C_10 
REMARK    6  A    between atoms: C_10  and  C_11 
REMARK    7  A    between atoms: C_12  and  C_13 
ROOT
HETATM    1  C   UNL     1      27.690  42.758  51.929  1.00  0.00     0.089 C 
HETATM    2  C   UNL     1      26.600  42.939  50.843  1.00  0.00     0.068 C 
HETATM    3  C   UNL     1      26.932  42.126  49.574  1.00  0.00     0.013 C 
HETATM    4  C   UNL     1      27.224  40.662  49.871  1.00  0.00     0.001 C 
HETATM    5  C   UNL     1      28.341  40.524  50.895  1.00  0.00     0.001 C 
HETATM    6  C   UNL     1      27.990  41.268  52.176  1.00  0.00     0.015 C 
ENDROOT
BRANCH   1   7
HETATM    7  C   UNL     1      27.272  43.400  53.255  1.00  0.00     0.222 C 
HETATM    8  N   UNL     1      27.161  44.771  53.220  1.00  0.00    -0.358 N 
HETATM    9  H   UNL     1      27.123  45.215  52.299  1.00  0.00     0.162 HD
HETATM   10  O   UNL     1      27.048  42.753  54.274  1.00  0.00    -0.273 OA
BRANCH   8  11
HETATM   11  C   UNL     1      26.663  45.522  54.365  1.00  0.00     0.159 C 
BRANCH  11  12
HETATM   12  C   UNL     1      27.653  46.615  54.812  1.00  0.00     0.169 C 
BRANCH  12  13
HETATM   13  C   UNL     1      28.618  46.097  55.855  1.00  0.00    -0.025 A 
HETATM   14  C   UNL     1      29.701  45.269  55.506  1.00  0.00     0.046 A 
HETATM   15  C   UNL     1      30.604  44.824  56.476  1.00  0.00     0.068 A 
HETATM   16  C   UNL     1      30.423  45.212  57.805  1.00  0.00     0.037 A 
HETATM   17  C   UNL     1      29.356  46.034  58.167  1.00  0.00     0.003 A 
HETATM   18  C   UNL     1      28.461  46.477  57.196  1.00  0.00     0.010 A 
BRANCH  15  19
HETATM   19  O   UNL     1      31.691  44.024  56.257  1.00  0.00    -0.356 OA
HETATM   20  C   UNL     1      31.938  43.003  57.216  1.00  0.00     0.210 C 
ENDBRANCH  15  19
ENDBRANCH  12  13
BRANCH  12  21
HETATM   21  O   UNL     1      26.914  47.722  55.346  1.00  0.00    -0.389 OA
HETATM   22  H   UNL     1      27.447  48.039  56.098  1.00  0.00     0.210 HD
ENDBRANCH  12  21
ENDBRANCH  11  12
ENDBRANCH   8  11
ENDBRANCH   1   7
BRANCH   2  23
HETATM   23  C   UNL     1      26.410  44.380  50.444  1.00  0.00     0.110 A 
HETATM   24  N   UNL     1      27.344  45.224  50.047  1.00  0.00    -0.233 NA
HETATM   25  C   UNL     1      26.689  46.397  49.758  1.00  0.00     0.087 A 
HETATM   26  C   UNL     1      25.326  46.274  49.999  1.00  0.00     0.062 A 
HETATM   27  C   UNL     1      27.202  47.612  49.286  1.00  0.00     0.057 A 
HETATM   28  N   UNL     1      25.176  44.987  50.449  1.00  0.00    -0.342 N 
HETATM   29  C   UNL     1      24.413  47.308  49.788  1.00  0.00     0.034 A 
HETATM   30  H   UNL     1      24.304  44.551  50.716  1.00  0.00     0.167 HD
HETATM   31  C   UNL     1      24.936  48.516  49.311  1.00  0.00     0.026 A 
HETATM   32  C   UNL     1      26.305  48.662  49.068  1.00  0.00     0.036 A 
HETATM   33 CL   UNL     1      26.901  50.169  48.484  1.00  0.00    -0.084 Cl
ENDBRANCH   2  23
TORSDOF 7
ENDMDL
MODEL 7
REMARK VINA RESULT:      -8.9      4.142      9.157
REMARK  7 active torsions:
REMARK  status: ('A' for Active; 'I' for Inactive)
REMARK    1  A    between atoms: O_2  and  C_3 
REMARK    2  A    between atoms: C_5  and  C_6 
REMARK    3  A    between atoms: C_6  and  O_7 
REMARK    4  A    between atoms: C_6  and  C_8 
REMARK    5  A    between atoms: C_8  and  N_9 
REMARK       I    between atoms: N_9  and  C_10 
REMARK    6  A    between atoms: C_10  and  C_11 
REMARK    7  A    between atoms: C_12  and  C_13 
ROOT
HETATM    1  C   UNL     1      25.435  48.092  50.093  1.00  0.00     0.089 C 
HETATM    2  C   UNL     1      24.719  48.602  48.818  1.00  0.00     0.068 C 
HETATM    3  C   UNL     1      25.386  49.883  48.274  1.00  0.00     0.013 C 
HETATM    4  C   UNL     1      26.887  49.730  48.079  1.00  0.00     0.001 C 
HETATM    5  C   UNL     1      27.564  49.287  49.368  1.00  0.00     0.001 C 
HETATM    6  C   UNL     1      26.957  47.987  49.874  1.00  0.00     0.015 C 
ENDROOT
BRANCH   1   7
HETATM    7  C   UNL     1      24.906  46.721  50.523  1.00  0.00     0.222 C 
HETATM    8  N   UNL     1      25.419  46.254  51.711  1.00  0.00    -0.358 N 
HETATM    9  H   UNL     1      25.897  46.929  52.313  1.00  0.00     0.162 HD
HETATM   10  O   UNL     1      24.088  46.080  49.868  1.00  0.00    -0.273 OA
BRANCH   8  11
HETATM   11  C   UNL     1      24.933  45.020  52.315  1.00  0.00     0.159 C 
BRANCH  11  12
HETATM   12  C   UNL     1      25.408  44.865  53.772  1.00  0.00     0.169 C 
BRANCH  12  13
HETATM   13  C   UNL     1      26.853  44.422  53.839  1.00  0.00    -0.025 A 
HETATM   14  C   UNL     1      27.733  44.934  54.810  1.00  0.00     0.046 A 
HETATM   15  C   UNL     1      29.057  44.491  54.880  1.00  0.00     0.068 A 
HETATM   16  C   UNL     1      29.503  43.528  53.974  1.00  0.00     0.037 A 
HETATM   17  C   UNL     1      28.643  43.008  53.008  1.00  0.00     0.003 A 
HETATM   18  C   UNL     1      27.323  43.450  52.943  1.00  0.00     0.010 A 
BRANCH  15  19
HETATM   19  O   UNL     1      30.000  44.911  55.778  1.00  0.00    -0.356 OA
HETATM   20  C   UNL     1      31.063  44.009  56.059  1.00  0.00     0.210 C 
ENDBRANCH  15  19
ENDBRANCH  12  13
BRANCH  12  21
HETATM   21  O   UNL     1      24.577  43.901  54.433  1.00  0.00    -0.389 OA
HETATM   22  H   UNL     1      23.743  43.902  53.929  1.00  0.00     0.210 HD
ENDBRANCH  12  21
ENDBRANCH  11  12
ENDBRANCH   8  11
ENDBRANCH   1   7
BRANCH   2  23
HETATM   23  C   UNL     1      23.258  48.892  49.049  1.00  0.00     0.110 A 
HETATM   24  N   UNL     1      22.730  50.023  49.476  1.00  0.00    -0.233 NA
HETATM   25  C   UNL     1      21.372  49.821  49.490  1.00  0.00     0.087 A 
HETATM   26  C   UNL     1      21.060  48.531  49.078  1.00  0.00     0.062 A 
HETATM   27  C   UNL     1      20.342  50.700  49.849  1.00  0.00     0.057 A 
HETATM   28  N   UNL     1      22.278  47.955  48.817  1.00  0.00    -0.342 N 
HETATM   29  C   UNL     1      19.754  48.046  48.989  1.00  0.00     0.034 A 
HETATM   30  H   UNL     1      22.428  47.012  48.488  1.00  0.00     0.167 HD
HETATM   31  C   UNL     1      18.734  48.936  49.345  1.00  0.00     0.026 A 
HETATM   32  C   UNL     1      19.025  50.236  49.768  1.00  0.00     0.036 A 
HETATM   33 CL   UNL     1      17.734  51.292  50.198  1.00  0.00    -0.084 Cl
ENDBRANCH   2  23
TORSDOF 7
ENDMDL
MODEL 8
REMARK VINA RESULT:      -8.9      4.363      9.042
REMARK  7 active torsions:
REMARK  status: ('A' for Active; 'I' for Inactive)
REMARK    1  A    between atoms: O_2  and  C_3 
REMARK    2  A    between atoms: C_5  and  C_6 
REMARK    3  A    between atoms: C_6  and  O_7 
REMARK    4  A    between atoms: C_6  and  C_8 
REMARK    5  A    between atoms: C_8  and  N_9 
REMARK       I    between atoms: N_9  and  C_10 
REMARK    6  A    between atoms: C_10  and  C_11 
REMARK    7  A    between atoms: C_12  and  C_13 
ROOT
HETATM    1  C   UNL     1      24.949  48.082  49.864  1.00  0.00     0.089 C 
HETATM    2  C   UNL     1      24.152  48.435  48.584  1.00  0.00     0.068 C 
HETATM    3  C   UNL     1      24.554  49.821  48.036  1.00  0.00     0.013 C 
HETATM    4  C   UNL     1      26.058  49.967  47.848  1.00  0.00     0.001 C 
HETATM    5  C   UNL     1      26.802  49.672  49.142  1.00  0.00     0.001 C 
HETATM    6  C   UNL     1      26.462  48.280  49.652  1.00  0.00     0.015 C 
ENDROOT
BRANCH   1   7
HETATM    7  C   UNL     1      24.699  46.636  50.299  1.00  0.00     0.222 C 
HETATM    8  N   UNL     1      25.360  46.258  51.446  1.00  0.00    -0.358 N 
HETATM    9  H   UNL     1      25.747  47.003  52.030  1.00  0.00     0.162 HD
HETATM   10  O   UNL     1      23.969  45.865  49.684  1.00  0.00    -0.273 OA
BRANCH   8  11
HETATM   11  C   UNL     1      25.139  44.952  52.054  1.00  0.00     0.159 C 
BRANCH  11  12
HETATM   12  C   UNL     1      25.071  45.037  53.591  1.00  0.00     0.169 C 
BRANCH  12  13
HETATM   13  C   UNL     1      26.369  45.547  54.176  1.00  0.00    -0.025 A 
HETATM   14  C   UNL     1      27.443  44.680  54.449  1.00  0.00     0.046 A 
HETATM   15  C   UNL     1      28.647  45.170  54.959  1.00  0.00     0.068 A 
HETATM   16  C   UNL     1      28.781  46.540  55.197  1.00  0.00     0.037 A 
HETATM   17  C   UNL     1      27.728  47.413  54.929  1.00  0.00     0.003 A 
HETATM   18  C   UNL     1      26.529  46.920  54.417  1.00  0.00     0.010 A 
BRANCH  15  19
HETATM   19  O   UNL     1      29.756  44.428  55.259  1.00  0.00    -0.356 OA
HETATM   20  C   UNL     1      30.597  44.922  56.294  1.00  0.00     0.210 C 
ENDBRANCH  15  19
ENDBRANCH  12  13
BRANCH  12  21
HETATM   21  O   UNL     1      24.783  43.734  54.117  1.00  0.00    -0.389 OA
HETATM   22  H   UNL     1      23.898  43.815  54.516  1.00  0.00     0.210 HD
ENDBRANCH  12  21
ENDBRANCH  11  12
ENDBRANCH   8  11
ENDBRANCH   1   7
BRANCH   2  23
HETATM   23  C   UNL     1      22.661  48.431  48.807  1.00  0.00     0.110 A 
HETATM   24  N   UNL     1      21.788  47.566  48.326  1.00  0.00    -0.233 NA
HETATM   25  C   UNL     1      20.568  47.947  48.831  1.00  0.00     0.087 A 
HETATM   26  C   UNL     1      20.694  49.080  49.626  1.00  0.00     0.062 A 
HETATM   27  C   UNL     1      19.306  47.367  48.647  1.00  0.00     0.057 A 
HETATM   28  N   UNL     1      22.033  49.377  49.583  1.00  0.00    -0.342 N 
HETATM   29  C   UNL     1      19.617  49.687  50.275  1.00  0.00     0.034 A 
HETATM   30  H   UNL     1      22.484  50.145  50.059  1.00  0.00     0.167 HD
HETATM   31  C   UNL     1      18.363  49.096  50.088  1.00  0.00     0.026 A 
HETATM   32  C   UNL     1      18.213  47.959  49.287  1.00  0.00     0.036 A 
HETATM   33 CL   UNL     1      16.647  47.271  49.086  1.00  0.00    -0.084 Cl
ENDBRANCH   2  23
TORSDOF 7
ENDMDL
MODEL 9
REMARK VINA RESULT:      -8.6      3.770      8.223
REMARK  7 active torsions:
REMARK  status: ('A' for Active; 'I' for Inactive)
REMARK    1  A    between atoms: O_2  and  C_3 
REMARK    2  A    between atoms: C_5  and  C_6 
REMARK    3  A    between atoms: C_6  and  O_7 
REMARK    4  A    between atoms: C_6  and  C_8 
REMARK    5  A    between atoms: C_8  and  N_9 
REMARK       I    between atoms: N_9  and  C_10 
REMARK    6  A    between atoms: C_10  and  C_11 
REMARK    7  A    between atoms: C_12  and  C_13 
ROOT
HETATM    1  C   UNL     1      25.433  45.521  49.959  1.00  0.00     0.089 C 
HETATM    2  C   UNL     1      23.933  45.518  49.573  1.00  0.00     0.068 C 
HETATM    3  C   UNL     1      23.674  44.632  48.336  1.00  0.00     0.013 C 
HETATM    4  C   UNL     1      24.241  43.227  48.487  1.00  0.00     0.001 C 
HETATM    5  C   UNL     1      25.729  43.270  48.806  1.00  0.00     0.001 C 
HETATM    6  C   UNL     1      25.986  44.087  50.064  1.00  0.00     0.015 C 
ENDROOT
BRANCH   1   7
HETATM    7  C   UNL     1      25.668  46.234  51.293  1.00  0.00     0.222 C 
HETATM    8  N   UNL     1      25.414  45.467  52.407  1.00  0.00    -0.358 N 
HETATM    9  H   UNL     1      25.335  44.457  52.272  1.00  0.00     0.162 HD
HETATM   10  O   UNL     1      26.053  47.397  51.376  1.00  0.00    -0.273 OA
BRANCH   8  11
HETATM   11  C   UNL     1      25.697  45.961  53.749  1.00  0.00     0.159 C 
BRANCH  11  12
HETATM   12  C   UNL     1      25.926  44.812  54.749  1.00  0.00     0.169 C 
BRANCH  12  13
HETATM   13  C   UNL     1      27.300  44.200  54.584  1.00  0.00    -0.025 A 
HETATM   14  C   UNL     1      27.501  43.046  53.805  1.00  0.00     0.046 A 
HETATM   15  C   UNL     1      28.781  42.511  53.636  1.00  0.00     0.068 A 
HETATM   16  C   UNL     1      29.868  43.136  54.249  1.00  0.00     0.037 A 
HETATM   17  C   UNL     1      29.687  44.282  55.022  1.00  0.00     0.003 A 
HETATM   18  C   UNL     1      28.409  44.814  55.186  1.00  0.00     0.010 A 
BRANCH  15  19
HETATM   19  O   UNL     1      29.099  41.401  52.902  1.00  0.00    -0.356 OA
HETATM   20  C   UNL     1      28.201  41.044  51.859  1.00  0.00     0.210 C 
ENDBRANCH  15  19
ENDBRANCH  12  13
BRANCH  12  21
HETATM   21  O   UNL     1      24.923  43.808  54.543  1.00  0.00    -0.389 OA
HETATM   22  H   UNL     1      24.446  44.091  53.742  1.00  0.00     0.210 HD
ENDBRANCH  12  21
ENDBRANCH  11  12
ENDBRANCH   8  11
ENDBRANCH   1   7
BRANCH   2  23
HETATM   23  C   UNL     1      23.405  46.899  49.283  1.00  0.00     0.110 A 
HETATM   24  N   UNL     1      22.140  47.263  49.189  1.00  0.00    -0.233 NA
HETATM   25  C   UNL     1      22.157  48.616  48.954  1.00  0.00     0.087 A 
HETATM   26  C   UNL     1      23.461  49.090  48.885  1.00  0.00     0.062 A 
HETATM   27  C   UNL     1      21.088  49.506  48.785  1.00  0.00     0.057 A 
HETATM   28  N   UNL     1      24.237  47.976  49.083  1.00  0.00    -0.342 N 
HETATM   29  C   UNL     1      23.782  50.430  48.661  1.00  0.00     0.034 A 
HETATM   30  H   UNL     1      25.247  47.954  49.102  1.00  0.00     0.167 HD
HETATM   31  C   UNL     1      22.705  51.310  48.499  1.00  0.00     0.026 A 
HETATM   32  C   UNL     1      21.385  50.853  48.559  1.00  0.00     0.036 A 
HETATM   33 CL   UNL     1      20.095  51.976  48.350  1.00  0.00    -0.084 Cl
ENDBRANCH   2  23
TORSDOF 7
ENDMDL
MODEL 10
REMARK VINA RESULT:      -8.6      1.993      3.570
REMARK  7 active torsions:
REMARK  status: ('A' for Active; 'I' for Inactive)
REMARK    1  A    between atoms: O_2  and  C_3 
REMARK    2  A    between atoms: C_5  and  C_6 
REMARK    3  A    between atoms: C_6  and  O_7 
REMARK    4  A    between atoms: C_6  and  C_8 
REMARK    5  A    between atoms: C_8  and  N_9 
REMARK       I    between atoms: N_9  and  C_10 
REMARK    6  A    between atoms: C_10  and  C_11 
REMARK    7  A    between atoms: C_12  and  C_13 
ROOT
HETATM    1  C   UNL     1      24.576  45.420  50.202  1.00  0.00     0.089 C 
HETATM    2  C   UNL     1      25.274  44.065  50.475  1.00  0.00     0.068 C 
HETATM    3  C   UNL     1      24.247  42.957  50.789  1.00  0.00     0.013 C 
HETATM    4  C   UNL     1      23.154  42.850  49.735  1.00  0.00     0.001 C 
HETATM    5  C   UNL     1      22.451  44.185  49.538  1.00  0.00     0.001 C 
HETATM    6  C   UNL     1      23.450  45.268  49.161  1.00  0.00     0.015 C 
ENDROOT
BRANCH   1   7
HETATM    7  C   UNL     1      25.569  46.472  49.699  1.00  0.00     0.222 C 
HETATM    8  N   UNL     1      25.051  47.741  49.582  1.00  0.00    -0.358 N 
HETATM    9  H   UNL     1      24.163  47.930  50.052  1.00  0.00     0.162 HD
HETATM   10  O   UNL     1      26.737  46.215  49.421  1.00  0.00    -0.273 OA
BRANCH   8  11
HETATM   11  C   UNL     1      25.895  48.875  49.227  1.00  0.00     0.159 C 
BRANCH  11  12
HETATM   12  C   UNL     1      25.096  49.990  48.526  1.00  0.00     0.169 C 
BRANCH  12  13
HETATM   13  C   UNL     1      23.605  49.779  48.672  1.00  0.00    -0.025 A 
HETATM   14  C   UNL     1      22.832  50.577  49.535  1.00  0.00     0.046 A 
HETATM   15  C   UNL     1      21.450  50.391  49.635  1.00  0.00     0.068 A 
HETATM   16  C   UNL     1      20.837  49.402  48.863  1.00  0.00     0.037 A 
HETATM   17  C   UNL     1      21.589  48.606  48.000  1.00  0.00     0.003 A 
HETATM   18  C   UNL     1      22.966  48.796  47.902  1.00  0.00     0.010 A 
BRANCH  15  19
HETATM   19  O   UNL     1      20.598  51.103  50.432  1.00  0.00    -0.356 OA
HETATM   20  C   UNL     1      19.359  51.497  49.856  1.00  0.00     0.210 C 
ENDBRANCH  15  19
ENDBRANCH  12  13
BRANCH  12  21
HETATM   21  O   UNL     1      25.447  50.012  47.135  1.00  0.00    -0.389 OA
HETATM   22  H   UNL     1      24.709  50.474  46.698  1.00  0.00     0.210 HD
ENDBRANCH  12  21
ENDBRANCH  11  12
ENDBRANCH   8  11
ENDBRANCH   1   7
BRANCH   2  23
HETATM   23  C   UNL     1      26.255  44.136  51.617  1.00  0.00     0.110 A 
HETATM   24  N   UNL     1      27.255  43.310  51.859  1.00  0.00    -0.233 NA
HETATM   25  C   UNL     1      27.884  43.801  52.976  1.00  0.00     0.087 A 
HETATM   26  C   UNL     1      27.246  44.945  53.440  1.00  0.00     0.062 A 
HETATM   27  C   UNL     1      29.011  43.315  53.653  1.00  0.00     0.057 A 
HETATM   28  N   UNL     1      26.204  45.130  52.567  1.00  0.00    -0.342 N 
HETATM   29  C   UNL     1      27.671  45.662  54.560  1.00  0.00     0.034 A 
HETATM   30  H   UNL     1      25.528  45.880  52.602  1.00  0.00     0.167 HD
HETATM   31  C   UNL     1      28.801  45.169  55.224  1.00  0.00     0.026 A 
HETATM   32  C   UNL     1      29.454  44.017  54.778  1.00  0.00     0.036 A 
HETATM   33 CL   UNL     1      30.838  43.449  55.632  1.00  0.00    -0.084 Cl
ENDBRANCH   2  23
TORSDOF 7
ENDMDL
