MODEL 1
REMARK VINA RESULT:      -8.8      0.000      0.000
REMARK  6 active torsions:
REMARK  status: ('A' for Active; 'I' for Inactive)
REMARK    1  A    between atoms: C_3  and  O_4 
REMARK    2  A    between atoms: O_4  and  C_5 
REMARK    3  A    between atoms: C_5  and  C_6 
REMARK    4  A    between atoms: C_15  and  C_16 
REMARK       I    between atoms: C_16  and  N_17 
REMARK    5  A    between atoms: N_17  and  N_18 
REMARK       I    between atoms: N_18  and  C_19 
REMARK    6  A    between atoms: C_19  and  C_20 
ROOT
HETATM    1  C   UNL     1      26.707  46.932  54.681  1.00  0.00     0.051 C 
HETATM    2  C   UNL     1      26.385  46.039  53.515  1.00  0.00    -0.027 A 
HETATM    3  C   UNL     1      26.883  44.727  53.431  1.00  0.00     0.081 A 
HETATM    4  C   UNL     1      26.626  43.932  52.301  1.00  0.00    -0.027 A 
HETATM    5  C   UNL     1      27.230  42.569  52.116  1.00  0.00     0.051 C 
HETATM    6  C   UNL     1      25.750  44.421  51.318  1.00  0.00     0.026 A 
HETATM    7  C   UNL     1      25.179  45.696  51.426  1.00  0.00     0.034 A 
HETATM    8  C   UNL     1      25.519  46.509  52.513  1.00  0.00     0.026 A 
ENDROOT
BRANCH   7   9
HETATM    9  C   UNL     1      24.245  46.138  50.352  1.00  0.00     0.270 C 
HETATM   10  N   UNL     1      23.798  47.443  50.408  1.00  0.00    -0.263 N 
HETATM   11  H   UNL     1      23.942  48.068  51.197  1.00  0.00     0.190 HD
HETATM   12  O   UNL     1      23.872  45.355  49.480  1.00  0.00    -0.266 OA
BRANCH  10  13
HETATM   13  N   UNL     1      22.826  47.841  49.484  1.00  0.00    -0.262 N 
HETATM   14  C   UNL     1      22.512  49.177  49.372  1.00  0.00     0.286 C 
HETATM   15  O   UNL     1      23.076  50.033  50.057  1.00  0.00    -0.264 OA
HETATM   16  H   UNL     1      22.381  47.104  48.943  1.00  0.00     0.190 HD
BRANCH  14  17
HETATM   17  C   UNL     1      21.485  49.500  48.407  1.00  0.00     0.102 A 
HETATM   18  N   UNL     1      20.725  48.514  47.811  1.00  0.00    -0.361 N 
HETATM   19  H   UNL     1      20.834  47.526  48.008  1.00  0.00     0.165 HD
HETATM   20  C   UNL     1      19.826  49.067  46.940  1.00  0.00     0.088 A 
HETATM   21  C   UNL     1      20.003  50.430  46.962  1.00  0.00     0.019 A 
HETATM   22  C   UNL     1      21.044  50.705  47.883  1.00  0.00     0.036 A 
ENDBRANCH  14  17
ENDBRANCH  10  13
ENDBRANCH   7   9
BRANCH   3  23
HETATM   23  O   UNL     1      27.680  44.285  54.458  1.00  0.00    -0.346 OA
BRANCH  23  24
HETATM   24  C   UNL     1      29.076  44.470  54.176  1.00  0.00     0.216 C 
BRANCH  24  25
HETATM   25  C   UNL     1      29.922  44.378  55.419  1.00  0.00    -0.017 A 
HETATM   26  C   UNL     1      29.854  45.402  56.362  1.00  0.00     0.125 A 
HETATM   27  N   UNL     1      30.549  45.422  57.522  1.00  0.00    -0.272 NA
HETATM   28  C   UNL     1      31.352  44.365  57.763  1.00  0.00     0.116 A 
HETATM   29  C   UNL     1      31.485  43.289  56.901  1.00  0.00     0.020 A 
HETATM   30  C   UNL     1      30.753  43.295  55.716  1.00  0.00     0.012 A 
ENDBRANCH  24  25
ENDBRANCH  23  24
ENDBRANCH   3  23
TORSDOF 6
ENDMDL
MODEL 2
REMARK VINA RESULT:      -8.7      2.203      2.693
REMARK  6 active torsions:
REMARK  status: ('A' for Active; 'I' for Inactive)
REMARK    1  A    between atoms: C_3  and  O_4 
REMARK    2  A    between atoms: O_4  and  C_5 
REMARK    3  A    between atoms: C_5  and  C_6 
REMARK    4  A    between atoms: C_15  and  C_16 
REMARK       I    between atoms: C_16  and  N_17 
REMARK    5  A    between atoms: N_17  and  N_18 
REMARK       I    between atoms: N_18  and  C_19 
REMARK    6  A    between atoms: C_19  and  C_20 
ROOT
HETATM    1  C   UNL     1      26.565  48.138  55.556  1.00  0.00     0.051 C 
HETATM    2  C   UNL     1      26.491  47.163  54.414  1.00  0.00    -0.027 A 
HETATM    3  C   UNL     1      27.115  45.904  54.477  1.00  0.00     0.081 A 
HETATM    4  C   UNL     1      27.091  45.034  53.374  1.00  0.00    -0.027 A 
HETATM    5  C   UNL     1      27.837  43.731  53.354  1.00  0.00     0.051 C 
HETATM    6  C   UNL     1      26.318  45.386  52.255  1.00  0.00     0.026 A 
HETATM    7  C   UNL     1      25.622  46.602  52.208  1.00  0.00     0.034 A 
HETATM    8  C   UNL     1      25.733  47.496  53.279  1.00  0.00     0.026 A 
ENDROOT
BRANCH   7   9
HETATM    9  C   UNL     1      24.809  46.896  50.994  1.00  0.00     0.270 C 
HETATM   10  N   UNL     1      24.001  45.881  50.521  1.00  0.00    -0.263 N 
HETATM   11  H   UNL     1      24.034  44.918  50.849  1.00  0.00     0.190 HD
HETATM   12  O   UNL     1      24.888  47.986  50.431  1.00  0.00    -0.266 OA
BRANCH  10  13
HETATM   13  N   UNL     1      23.327  46.092  49.314  1.00  0.00    -0.262 N 
HETATM   14  C   UNL     1      22.478  45.116  48.838  1.00  0.00     0.286 C 
HETATM   15  O   UNL     1      22.289  44.067  49.457  1.00  0.00    -0.264 OA
HETATM   16  H   UNL     1      23.515  46.967  48.832  1.00  0.00     0.190 HD
BRANCH  14  17
HETATM   17  C   UNL     1      21.835  45.406  47.577  1.00  0.00     0.102 A 
HETATM   18  N   UNL     1      20.558  45.928  47.527  1.00  0.00    -0.361 N 
HETATM   19  H   UNL     1      20.004  46.137  48.349  1.00  0.00     0.165 HD
HETATM   20  C   UNL     1      20.171  46.115  46.227  1.00  0.00     0.088 A 
HETATM   21  C   UNL     1      21.204  45.706  45.418  1.00  0.00     0.019 A 
HETATM   22  C   UNL     1      22.251  45.262  46.263  1.00  0.00     0.036 A 
ENDBRANCH  14  17
ENDBRANCH  10  13
ENDBRANCH   7   9
BRANCH   3  23
HETATM   23  O   UNL     1      27.799  45.593  55.626  1.00  0.00    -0.346 OA
BRANCH  23  24
HETATM   24  C   UNL     1      29.137  46.115  55.615  1.00  0.00     0.216 C 
BRANCH  24  25
HETATM   25  C   UNL     1      30.119  45.169  56.255  1.00  0.00    -0.017 A 
HETATM   26  C   UNL     1      30.562  45.426  57.551  1.00  0.00     0.125 A 
HETATM   27  N   UNL     1      31.426  44.643  58.235  1.00  0.00    -0.272 NA
HETATM   28  C   UNL     1      31.871  43.538  57.601  1.00  0.00     0.116 A 
HETATM   29  C   UNL     1      31.486  43.181  56.319  1.00  0.00     0.020 A 
HETATM   30  C   UNL     1      30.592  44.007  55.642  1.00  0.00     0.012 A 
ENDBRANCH  24  25
ENDBRANCH  23  24
ENDBRANCH   3  23
TORSDOF 6
ENDMDL
MODEL 3
REMARK VINA RESULT:      -8.7      2.552      3.549
REMARK  6 active torsions:
REMARK  status: ('A' for Active; 'I' for Inactive)
REMARK    1  A    between atoms: C_3  and  O_4 
REMARK    2  A    between atoms: O_4  and  C_5 
REMARK    3  A    between atoms: C_5  and  C_6 
REMARK    4  A    between atoms: C_15  and  C_16 
REMARK       I    between atoms: C_16  and  N_17 
REMARK    5  A    between atoms: N_17  and  N_18 
REMARK       I    between atoms: N_18  and  C_19 
REMARK    6  A    between atoms: C_19  and  C_20 
ROOT
HETATM    1  C   UNL     1      27.260  43.416  54.284  1.00  0.00     0.051 C 
HETATM    2  C   UNL     1      26.726  44.770  53.908  1.00  0.00    -0.027 A 
HETATM    3  C   UNL     1      26.942  45.900  54.716  1.00  0.00     0.081 A 
HETATM    4  C   UNL     1      26.377  47.142  54.381  1.00  0.00    -0.027 A 
HETATM    5  C   UNL     1      26.486  48.348  55.271  1.00  0.00     0.051 C 
HETATM    6  C   UNL     1      25.706  47.268  53.154  1.00  0.00     0.026 A 
HETATM    7  C   UNL     1      25.552  46.171  52.296  1.00  0.00     0.034 A 
HETATM    8  C   UNL     1      26.041  44.921  52.690  1.00  0.00     0.026 A 
ENDROOT
BRANCH   7   9
HETATM    9  C   UNL     1      24.843  46.388  51.003  1.00  0.00     0.270 C 
HETATM   10  N   UNL     1      23.899  45.448  50.641  1.00  0.00    -0.263 N 
HETATM   11  H   UNL     1      23.761  44.558  51.114  1.00  0.00     0.190 HD
HETATM   12  O   UNL     1      25.120  47.348  50.286  1.00  0.00    -0.266 OA
BRANCH  10  13
HETATM   13  N   UNL     1      23.313  45.565  49.376  1.00  0.00    -0.262 N 
HETATM   14  C   UNL     1      23.529  44.575  48.442  1.00  0.00     0.286 C 
HETATM   15  O   UNL     1      24.215  43.584  48.698  1.00  0.00    -0.264 OA
HETATM   16  H   UNL     1      22.759  46.399  49.204  1.00  0.00     0.190 HD
BRANCH  14  17
HETATM   17  C   UNL     1      22.902  44.781  47.156  1.00  0.00     0.102 A 
HETATM   18  N   UNL     1      23.411  44.204  46.010  1.00  0.00    -0.361 N 
HETATM   19  H   UNL     1      24.234  43.613  45.996  1.00  0.00     0.165 HD
HETATM   20  C   UNL     1      22.647  44.545  44.926  1.00  0.00     0.088 A 
HETATM   21  C   UNL     1      21.631  45.359  45.367  1.00  0.00     0.019 A 
HETATM   22  C   UNL     1      21.788  45.508  46.767  1.00  0.00     0.036 A 
ENDBRANCH  14  17
ENDBRANCH  10  13
ENDBRANCH   7   9
BRANCH   3  23
HETATM   23  O   UNL     1      27.664  45.724  55.871  1.00  0.00    -0.346 OA
BRANCH  23  24
HETATM   24  C   UNL     1      29.014  46.197  55.740  1.00  0.00     0.216 C 
BRANCH  24  25
HETATM   25  C   UNL     1      30.012  45.222  56.308  1.00  0.00    -0.017 A 
HETATM   26  C   UNL     1      30.488  45.415  57.603  1.00  0.00     0.125 A 
HETATM   27  N   UNL     1      31.370  44.600  58.225  1.00  0.00    -0.272 NA
HETATM   28  C   UNL     1      31.799  43.529  57.526  1.00  0.00     0.116 A 
HETATM   29  C   UNL     1      31.382  43.236  56.238  1.00  0.00     0.020 A 
HETATM   30  C   UNL     1      30.471  44.092  55.625  1.00  0.00     0.012 A 
ENDBRANCH  24  25
ENDBRANCH  23  24
ENDBRANCH   3  23
TORSDOF 6
ENDMDL
MODEL 4
REMARK VINA RESULT:      -8.6      1.365      2.373
REMARK  6 active torsions:
REMARK  status: ('A' for Active; 'I' for Inactive)
REMARK    1  A    between atoms: C_3  and  O_4 
REMARK    2  A    between atoms: O_4  and  C_5 
REMARK    3  A    between atoms: C_5  and  C_6 
REMARK    4  A    between atoms: C_15  and  C_16 
REMARK       I    between atoms: C_16  and  N_17 
REMARK    5  A    between atoms: N_17  and  N_18 
REMARK       I    between atoms: N_18  and  C_19 
REMARK    6  A    between atoms: C_19  and  C_20 
ROOT
HETATM    1  C   UNL     1      26.694  43.122  49.986  1.00  0.00     0.051 C 
HETATM    2  C   UNL     1      26.156  44.445  50.457  1.00  0.00    -0.027 A 
HETATM    3  C   UNL     1      26.723  45.126  51.549  1.00  0.00     0.081 A 
HETATM    4  C   UNL     1      26.164  46.328  52.015  1.00  0.00    -0.027 A 
HETATM    5  C   UNL     1      26.664  47.030  53.245  1.00  0.00     0.051 C 
HETATM    6  C   UNL     1      25.111  46.908  51.288  1.00  0.00     0.026 A 
HETATM    7  C   UNL     1      24.587  46.283  50.148  1.00  0.00     0.034 A 
HETATM    8  C   UNL     1      25.097  45.042  49.753  1.00  0.00     0.026 A 
ENDROOT
BRANCH   7   9
HETATM    9  C   UNL     1      23.483  46.970  49.420  1.00  0.00     0.270 C 
HETATM   10  N   UNL     1      23.123  48.225  49.869  1.00  0.00    -0.263 N 
HETATM   11  H   UNL     1      23.452  48.643  50.736  1.00  0.00     0.190 HD
HETATM   12  O   UNL     1      22.906  46.419  48.484  1.00  0.00    -0.266 OA
BRANCH  10  13
HETATM   13  N   UNL     1      22.009  48.834  49.281  1.00  0.00    -0.262 N 
HETATM   14  C   UNL     1      21.910  50.208  49.292  1.00  0.00     0.286 C 
HETATM   15  O   UNL     1      22.785  50.915  49.795  1.00  0.00    -0.264 OA
HETATM   16  H   UNL     1      21.308  48.215  48.882  1.00  0.00     0.190 HD
BRANCH  14  17
HETATM   17  C   UNL     1      20.720  50.755  48.680  1.00  0.00     0.102 A 
HETATM   18  N   UNL     1      20.241  50.266  47.481  1.00  0.00    -0.361 N 
HETATM   19  H   UNL     1      20.680  49.511  46.967  1.00  0.00     0.165 HD
HETATM   20  C   UNL     1      19.110  50.941  47.109  1.00  0.00     0.088 A 
HETATM   21  C   UNL     1      18.849  51.887  48.073  1.00  0.00     0.019 A 
HETATM   22  C   UNL     1      19.858  51.771  49.061  1.00  0.00     0.036 A 
ENDBRANCH  14  17
ENDBRANCH  10  13
ENDBRANCH   7   9
BRANCH   3  23
HETATM   23  O   UNL     1      27.794  44.537  52.176  1.00  0.00    -0.346 OA
BRANCH  23  24
HETATM   24  C   UNL     1      27.461  44.079  53.495  1.00  0.00     0.216 C 
BRANCH  24  25
HETATM   25  C   UNL     1      28.649  44.108  54.421  1.00  0.00    -0.017 A 
HETATM   26  C   UNL     1      28.799  45.180  55.298  1.00  0.00     0.125 A 
HETATM   27  N   UNL     1      29.811  45.308  56.186  1.00  0.00    -0.272 NA
HETATM   28  C   UNL     1      30.723  44.313  56.209  1.00  0.00     0.116 A 
HETATM   29  C   UNL     1      30.662  43.197  55.392  1.00  0.00     0.020 A 
HETATM   30  C   UNL     1      29.606  43.093  54.490  1.00  0.00     0.012 A 
ENDBRANCH  24  25
ENDBRANCH  23  24
ENDBRANCH   3  23
TORSDOF 6
ENDMDL
MODEL 5
REMARK VINA RESULT:      -8.5      2.697     10.524
REMARK  6 active torsions:
REMARK  status: ('A' for Active; 'I' for Inactive)
REMARK    1  A    between atoms: C_3  and  O_4 
REMARK    2  A    between atoms: O_4  and  C_5 
REMARK    3  A    between atoms: C_5  and  C_6 
REMARK    4  A    between atoms: C_15  and  C_16 
REMARK       I    between atoms: C_16  and  N_17 
REMARK    5  A    between atoms: N_17  and  N_18 
REMARK       I    between atoms: N_18  and  C_19 
REMARK    6  A    between atoms: C_19  and  C_20 
ROOT
HETATM    1  C   UNL     1      21.161  45.838  48.242  1.00  0.00     0.051 C 
HETATM    2  C   UNL     1      22.351  46.663  48.646  1.00  0.00    -0.027 A 
HETATM    3  C   UNL     1      22.299  48.068  48.680  1.00  0.00     0.081 A 
HETATM    4  C   UNL     1      23.442  48.822  48.995  1.00  0.00    -0.027 A 
HETATM    5  C   UNL     1      23.464  50.323  48.932  1.00  0.00     0.051 C 
HETATM    6  C   UNL     1      24.602  48.147  49.408  1.00  0.00     0.026 A 
HETATM    7  C   UNL     1      24.646  46.747  49.460  1.00  0.00     0.034 A 
HETATM    8  C   UNL     1      23.528  46.011  49.054  1.00  0.00     0.026 A 
ENDROOT
BRANCH   7   9
HETATM    9  C   UNL     1      25.908  46.105  49.926  1.00  0.00     0.270 C 
HETATM   10  N   UNL     1      25.814  45.257  51.012  1.00  0.00    -0.263 N 
HETATM   11  H   UNL     1      24.987  45.158  51.596  1.00  0.00     0.190 HD
HETATM   12  O   UNL     1      26.981  46.353  49.380  1.00  0.00    -0.266 OA
BRANCH  10  13
HETATM   13  N   UNL     1      27.001  44.742  51.544  1.00  0.00    -0.262 N 
HETATM   14  C   UNL     1      27.034  44.356  52.866  1.00  0.00     0.286 C 
HETATM   15  O   UNL     1      26.039  44.440  53.588  1.00  0.00    -0.264 OA
HETATM   16  H   UNL     1      27.799  44.694  50.916  1.00  0.00     0.190 HD
BRANCH  14  17
HETATM   17  C   UNL     1      28.303  43.852  53.339  1.00  0.00     0.102 A 
HETATM   18  N   UNL     1      29.162  43.171  52.500  1.00  0.00    -0.361 N 
HETATM   19  H   UNL     1      28.964  42.986  51.524  1.00  0.00     0.165 HD
HETATM   20  C   UNL     1      30.291  42.797  53.177  1.00  0.00     0.088 A 
HETATM   21  C   UNL     1      30.168  43.234  54.475  1.00  0.00     0.019 A 
HETATM   22  C   UNL     1      28.921  43.898  54.579  1.00  0.00     0.036 A 
ENDBRANCH  14  17
ENDBRANCH  10  13
ENDBRANCH   7   9
BRANCH   3  23
HETATM   23  O   UNL     1      21.114  48.666  48.328  1.00  0.00    -0.346 OA
BRANCH  23  24
HETATM   24  C   UNL     1      20.276  48.912  49.468  1.00  0.00     0.216 C 
BRANCH  24  25
HETATM   25  C   UNL     1      19.503  50.199  49.334  1.00  0.00    -0.017 A 
HETATM   26  C   UNL     1      18.351  50.380  50.097  1.00  0.00     0.125 A 
HETATM   27  N   UNL     1      17.587  51.496  50.077  1.00  0.00    -0.272 NA
HETATM   28  C   UNL     1      17.991  52.490  49.259  1.00  0.00     0.116 A 
HETATM   29  C   UNL     1      19.126  52.420  48.468  1.00  0.00     0.020 A 
HETATM   30  C   UNL     1      19.895  51.259  48.513  1.00  0.00     0.012 A 
ENDBRANCH  24  25
ENDBRANCH  23  24
ENDBRANCH   3  23
TORSDOF 6
ENDMDL
MODEL 6
REMARK VINA RESULT:      -8.3      1.465      2.374
REMARK  6 active torsions:
REMARK  status: ('A' for Active; 'I' for Inactive)
REMARK    1  A    between atoms: C_3  and  O_4 
REMARK    2  A    between atoms: O_4  and  C_5 
REMARK    3  A    between atoms: C_5  and  C_6 
REMARK    4  A    between atoms: C_15  and  C_16 
REMARK       I    between atoms: C_16  and  N_17 
REMARK    5  A    between atoms: N_17  and  N_18 
REMARK       I    between atoms: N_18  and  C_19 
REMARK    6  A    between atoms: C_19  and  C_20 
ROOT
HETATM    1  C   UNL     1      28.227  41.641  51.136  1.00  0.00     0.051 C 
HETATM    2  C   UNL     1      27.237  42.572  51.780  1.00  0.00    -0.027 A 
HETATM    3  C   UNL     1      27.334  42.929  53.136  1.00  0.00     0.081 A 
HETATM    4  C   UNL     1      26.361  43.746  53.736  1.00  0.00    -0.027 A 
HETATM    5  C   UNL     1      26.360  44.061  55.205  1.00  0.00     0.051 C 
HETATM    6  C   UNL     1      25.363  44.311  52.925  1.00  0.00     0.026 A 
HETATM    7  C   UNL     1      25.299  44.031  51.553  1.00  0.00     0.034 A 
HETATM    8  C   UNL     1      26.223  43.142  50.992  1.00  0.00     0.026 A 
ENDROOT
BRANCH   7   9
HETATM    9  C   UNL     1      24.222  44.683  50.755  1.00  0.00     0.270 C 
HETATM   10  N   UNL     1      24.490  45.941  50.252  1.00  0.00    -0.263 N 
HETATM   11  H   UNL     1      25.299  46.503  50.507  1.00  0.00     0.190 HD
HETATM   12  O   UNL     1      23.138  44.129  50.589  1.00  0.00    -0.266 OA
BRANCH  10  13
HETATM   13  N   UNL     1      23.451  46.622  49.609  1.00  0.00    -0.262 N 
HETATM   14  C   UNL     1      23.555  47.983  49.420  1.00  0.00     0.286 C 
HETATM   15  O   UNL     1      24.547  48.613  49.793  1.00  0.00    -0.264 OA
HETATM   16  H   UNL     1      22.650  46.067  49.322  1.00  0.00     0.190 HD
BRANCH  14  17
HETATM   17  C   UNL     1      22.432  48.611  48.764  1.00  0.00     0.102 A 
HETATM   18  N   UNL     1      21.213  47.971  48.657  1.00  0.00    -0.361 N 
HETATM   19  H   UNL     1      21.032  47.044  49.024  1.00  0.00     0.165 HD
HETATM   20  C   UNL     1      20.314  48.765  47.998  1.00  0.00     0.088 A 
HETATM   21  C   UNL     1      20.952  49.936  47.665  1.00  0.00     0.019 A 
HETATM   22  C   UNL     1      22.282  49.843  48.145  1.00  0.00     0.036 A 
ENDBRANCH  14  17
ENDBRANCH  10  13
ENDBRANCH   7   9
BRANCH   3  23
HETATM   23  O   UNL     1      28.372  42.395  53.859  1.00  0.00    -0.346 OA
BRANCH  23  24
HETATM   24  C   UNL     1      29.572  43.175  53.737  1.00  0.00     0.216 C 
BRANCH  24  25
HETATM   25  C   UNL     1      30.005  43.757  55.057  1.00  0.00    -0.017 A 
HETATM   26  C   UNL     1      30.904  43.046  55.850  1.00  0.00     0.125 A 
HETATM   27  N   UNL     1      31.379  43.473  57.042  1.00  0.00    -0.272 NA
HETATM   28  C   UNL     1      30.942  44.675  57.470  1.00  0.00     0.116 A 
HETATM   29  C   UNL     1      30.060  45.470  56.756  1.00  0.00     0.020 A 
HETATM   30  C   UNL     1      29.592  45.005  55.530  1.00  0.00     0.012 A 
ENDBRANCH  24  25
ENDBRANCH  23  24
ENDBRANCH   3  23
TORSDOF 6
ENDMDL
MODEL 7
REMARK VINA RESULT:      -8.1      2.473      3.436
REMARK  6 active torsions:
REMARK  status: ('A' for Active; 'I' for Inactive)
REMARK    1  A    between atoms: C_3  and  O_4 
REMARK    2  A    between atoms: O_4  and  C_5 
REMARK    3  A    between atoms: C_5  and  C_6 
REMARK    4  A    between atoms: C_15  and  C_16 
REMARK       I    between atoms: C_16  and  N_17 
REMARK    5  A    between atoms: N_17  and  N_18 
REMARK       I    between atoms: N_18  and  C_19 
REMARK    6  A    between atoms: C_19  and  C_20 
ROOT
HETATM    1  C   UNL     1      27.628  45.264  50.269  1.00  0.00     0.051 C 
HETATM    2  C   UNL     1      26.278  44.798  49.800  1.00  0.00    -0.027 A 
HETATM    3  C   UNL     1      25.979  43.432  49.650  1.00  0.00     0.081 A 
HETATM    4  C   UNL     1      24.733  43.021  49.147  1.00  0.00    -0.027 A 
HETATM    5  C   UNL     1      24.411  41.581  48.862  1.00  0.00     0.051 C 
HETATM    6  C   UNL     1      23.742  43.990  48.924  1.00  0.00     0.026 A 
HETATM    7  C   UNL     1      23.996  45.350  49.148  1.00  0.00     0.034 A 
HETATM    8  C   UNL     1      25.272  45.750  49.561  1.00  0.00     0.026 A 
ENDROOT
BRANCH   7   9
HETATM    9  C   UNL     1      22.888  46.318  48.906  1.00  0.00     0.270 C 
HETATM   10  N   UNL     1      22.976  47.541  49.540  1.00  0.00    -0.263 N 
HETATM   11  H   UNL     1      23.655  47.768  50.263  1.00  0.00     0.190 HD
HETATM   12  O   UNL     1      21.929  46.014  48.199  1.00  0.00    -0.266 OA
BRANCH  10  13
HETATM   13  N   UNL     1      21.888  48.414  49.429  1.00  0.00    -0.262 N 
HETATM   14  C   UNL     1      22.111  49.773  49.470  1.00  0.00     0.286 C 
HETATM   15  O   UNL     1      23.245  50.239  49.590  1.00  0.00    -0.264 OA
HETATM   16  H   UNL     1      20.969  47.989  49.337  1.00  0.00     0.190 HD
BRANCH  14  17
HETATM   17  C   UNL     1      20.932  50.603  49.365  1.00  0.00     0.102 A 
HETATM   18  N   UNL     1      19.903  50.506  50.280  1.00  0.00    -0.361 N 
HETATM   19  H   UNL     1      19.908  49.865  51.065  1.00  0.00     0.165 HD
HETATM   20  C   UNL     1      18.905  51.390  49.970  1.00  0.00     0.088 A 
HETATM   21  C   UNL     1      19.282  52.069  48.836  1.00  0.00     0.019 A 
HETATM   22  C   UNL     1      20.556  51.578  48.455  1.00  0.00     0.036 A 
ENDBRANCH  14  17
ENDBRANCH  10  13
ENDBRANCH   7   9
BRANCH   3  23
HETATM   23  O   UNL     1      26.970  42.531  49.948  1.00  0.00    -0.346 OA
BRANCH  23  24
HETATM   24  C   UNL     1      26.759  41.897  51.219  1.00  0.00     0.216 C 
BRANCH  24  25
HETATM   25  C   UNL     1      27.694  42.425  52.277  1.00  0.00    -0.017 A 
HETATM   26  C   UNL     1      27.170  43.151  53.344  1.00  0.00     0.125 A 
HETATM   27  N   UNL     1      27.904  43.658  54.360  1.00  0.00    -0.272 NA
HETATM   28  C   UNL     1      29.233  43.428  54.318  1.00  0.00     0.116 A 
HETATM   29  C   UNL     1      29.856  42.709  53.312  1.00  0.00     0.020 A 
HETATM   30  C   UNL     1      29.072  42.196  52.281  1.00  0.00     0.012 A 
ENDBRANCH  24  25
ENDBRANCH  23  24
ENDBRANCH   3  23
TORSDOF 6
ENDMDL
MODEL 8
REMARK VINA RESULT:      -8.0      1.895     10.384
REMARK  6 active torsions:
REMARK  status: ('A' for Active; 'I' for Inactive)
REMARK    1  A    between atoms: C_3  and  O_4 
REMARK    2  A    between atoms: O_4  and  C_5 
REMARK    3  A    between atoms: C_5  and  C_6 
REMARK    4  A    between atoms: C_15  and  C_16 
REMARK       I    between atoms: C_16  and  N_17 
REMARK    5  A    between atoms: N_17  and  N_18 
REMARK       I    between atoms: N_18  and  C_19 
REMARK    6  A    between atoms: C_19  and  C_20 
ROOT
HETATM    1  C   UNL     1      22.770  44.872  49.586  1.00  0.00     0.051 C 
HETATM    2  C   UNL     1      24.087  45.452  50.022  1.00  0.00    -0.027 A 
HETATM    3  C   UNL     1      24.501  46.732  49.613  1.00  0.00     0.081 A 
HETATM    4  C   UNL     1      25.764  47.229  49.977  1.00  0.00    -0.027 A 
HETATM    5  C   UNL     1      26.295  48.540  49.471  1.00  0.00     0.051 C 
HETATM    6  C   UNL     1      26.551  46.482  50.868  1.00  0.00     0.026 A 
HETATM    7  C   UNL     1      26.118  45.239  51.351  1.00  0.00     0.034 A 
HETATM    8  C   UNL     1      24.898  44.719  50.906  1.00  0.00     0.026 A 
ENDROOT
BRANCH   7   9
HETATM    9  C   UNL     1      27.001  44.514  52.308  1.00  0.00     0.270 C 
HETATM   10  N   UNL     1      27.413  45.208  53.428  1.00  0.00    -0.263 N 
HETATM   11  H   UNL     1      27.280  46.207  53.569  1.00  0.00     0.190 HD
HETATM   12  O   UNL     1      27.365  43.362  52.081  1.00  0.00    -0.266 OA
BRANCH  10  13
HETATM   13  N   UNL     1      28.342  44.592  54.274  1.00  0.00    -0.262 N 
HETATM   14  C   UNL     1      29.106  45.370  55.115  1.00  0.00     0.286 C 
HETATM   15  O   UNL     1      28.983  46.596  55.150  1.00  0.00    -0.264 OA
HETATM   16  H   UNL     1      28.415  43.580  54.210  1.00  0.00     0.190 HD
BRANCH  14  17
HETATM   17  C   UNL     1      30.052  44.656  55.942  1.00  0.00     0.102 A 
HETATM   18  N   UNL     1      30.443  45.147  57.172  1.00  0.00    -0.361 N 
HETATM   19  H   UNL     1      30.100  46.016  57.564  1.00  0.00     0.165 HD
HETATM   20  C   UNL     1      31.339  44.296  57.760  1.00  0.00     0.088 A 
HETATM   21  C   UNL     1      31.541  43.240  56.904  1.00  0.00     0.019 A 
HETATM   22  C   UNL     1      30.733  43.463  55.762  1.00  0.00     0.036 A 
ENDBRANCH  14  17
ENDBRANCH  10  13
ENDBRANCH   7   9
BRANCH   3  23
HETATM   23  O   UNL     1      23.655  47.440  48.796  1.00  0.00    -0.346 OA
BRANCH  23  24
HETATM   24  C   UNL     1      23.153  48.624  49.435  1.00  0.00     0.216 C 
BRANCH  24  25
HETATM   25  C   UNL     1      21.856  49.089  48.826  1.00  0.00    -0.017 A 
HETATM   26  C   UNL     1      20.791  48.195  48.732  1.00  0.00     0.125 A 
HETATM   27  N   UNL     1      19.577  48.500  48.223  1.00  0.00    -0.272 NA
HETATM   28  C   UNL     1      19.405  49.765  47.787  1.00  0.00     0.116 A 
HETATM   29  C   UNL     1      20.390  50.737  47.845  1.00  0.00     0.020 A 
HETATM   30  C   UNL     1      21.630  50.393  48.378  1.00  0.00     0.012 A 
ENDBRANCH  24  25
ENDBRANCH  23  24
ENDBRANCH   3  23
TORSDOF 6
ENDMDL
MODEL 9
REMARK VINA RESULT:      -8.0      2.106      2.991
REMARK  6 active torsions:
REMARK  status: ('A' for Active; 'I' for Inactive)
REMARK    1  A    between atoms: C_3  and  O_4 
REMARK    2  A    between atoms: O_4  and  C_5 
REMARK    3  A    between atoms: C_5  and  C_6 
REMARK    4  A    between atoms: C_15  and  C_16 
REMARK       I    between atoms: C_16  and  N_17 
REMARK    5  A    between atoms: N_17  and  N_18 
REMARK       I    between atoms: N_18  and  C_19 
REMARK    6  A    between atoms: C_19  and  C_20 
ROOT
HETATM    1  C   UNL     1      26.306  47.094  52.670  1.00  0.00     0.051 C 
HETATM    2  C   UNL     1      25.448  46.560  51.557  1.00  0.00    -0.027 A 
HETATM    3  C   UNL     1      25.349  45.182  51.297  1.00  0.00     0.081 A 
HETATM    4  C   UNL     1      24.596  44.707  50.210  1.00  0.00    -0.027 A 
HETATM    5  C   UNL     1      24.553  43.255  49.826  1.00  0.00     0.051 C 
HETATM    6  C   UNL     1      23.833  45.624  49.468  1.00  0.00     0.026 A 
HETATM    7  C   UNL     1      23.856  46.993  49.764  1.00  0.00     0.034 A 
HETATM    8  C   UNL     1      24.683  47.457  50.792  1.00  0.00     0.026 A 
ENDROOT
BRANCH   7   9
HETATM    9  C   UNL     1      23.005  47.901  48.943  1.00  0.00     0.270 C 
HETATM   10  N   UNL     1      22.448  48.988  49.586  1.00  0.00    -0.263 N 
HETATM   11  H   UNL     1      22.457  49.129  50.593  1.00  0.00     0.190 HD
HETATM   12  O   UNL     1      22.791  47.661  47.756  1.00  0.00    -0.266 OA
BRANCH  10  13
HETATM   13  N   UNL     1      21.547  49.781  48.866  1.00  0.00    -0.262 N 
HETATM   14  C   UNL     1      20.220  49.793  49.235  1.00  0.00     0.286 C 
HETATM   15  O   UNL     1      19.809  49.132  50.190  1.00  0.00    -0.264 OA
HETATM   16  H   UNL     1      21.926  50.307  48.083  1.00  0.00     0.190 HD
BRANCH  14  17
HETATM   17  C   UNL     1      19.355  50.624  48.429  1.00  0.00     0.102 A 
HETATM   18  N   UNL     1      18.449  50.072  47.546  1.00  0.00    -0.361 N 
HETATM   19  H   UNL     1      18.334  49.075  47.409  1.00  0.00     0.165 HD
HETATM   20  C   UNL     1      17.749  51.058  46.904  1.00  0.00     0.088 A 
HETATM   21  C   UNL     1      18.205  52.269  47.368  1.00  0.00     0.019 A 
HETATM   22  C   UNL     1      19.213  52.000  48.327  1.00  0.00     0.036 A 
ENDBRANCH  14  17
ENDBRANCH  10  13
ENDBRANCH   7   9
BRANCH   3  23
HETATM   23  O   UNL     1      26.068  44.332  52.102  1.00  0.00    -0.346 OA
BRANCH  23  24
HETATM   24  C   UNL     1      27.392  44.102  51.597  1.00  0.00     0.216 C 
BRANCH  24  25
HETATM   25  C   UNL     1      28.381  43.834  52.702  1.00  0.00    -0.017 A 
HETATM   26  C   UNL     1      29.451  42.975  52.461  1.00  0.00     0.125 A 
HETATM   27  N   UNL     1      30.409  42.672  53.365  1.00  0.00    -0.272 NA
HETATM   28  C   UNL     1      30.304  43.259  54.575  1.00  0.00     0.116 A 
HETATM   29  C   UNL     1      29.290  44.137  54.917  1.00  0.00     0.020 A 
HETATM   30  C   UNL     1      28.319  44.432  53.963  1.00  0.00     0.012 A 
ENDBRANCH  24  25
ENDBRANCH  23  24
ENDBRANCH   3  23
TORSDOF 6
ENDMDL
MODEL 10
REMARK VINA RESULT:      -7.9      2.770      4.666
REMARK  6 active torsions:
REMARK  status: ('A' for Active; 'I' for Inactive)
REMARK    1  A    between atoms: C_3  and  O_4 
REMARK    2  A    between atoms: O_4  and  C_5 
REMARK    3  A    between atoms: C_5  and  C_6 
REMARK    4  A    between atoms: C_15  and  C_16 
REMARK       I    between atoms: C_16  and  N_17 
REMARK    5  A    between atoms: N_17  and  N_18 
REMARK       I    between atoms: N_18  and  C_19 
REMARK    6  A    between atoms: C_19  and  C_20 
ROOT
HETATM    1  C   UNL     1      23.482  43.779  48.526  1.00  0.00     0.051 C 
HETATM    2  C   UNL     1      23.686  45.185  49.016  1.00  0.00    -0.027 A 
HETATM    3  C   UNL     1      24.836  45.558  49.735  1.00  0.00     0.081 A 
HETATM    4  C   UNL     1      24.976  46.860  50.242  1.00  0.00    -0.027 A 
HETATM    5  C   UNL     1      26.131  47.271  51.111  1.00  0.00     0.051 C 
HETATM    6  C   UNL     1      24.011  47.823  49.904  1.00  0.00     0.026 A 
HETATM    7  C   UNL     1      22.899  47.489  49.119  1.00  0.00     0.034 A 
HETATM    8  C   UNL     1      22.729  46.165  48.700  1.00  0.00     0.026 A 
ENDROOT
BRANCH   7   9
HETATM    9  C   UNL     1      21.928  48.570  48.787  1.00  0.00     0.270 C 
HETATM   10  N   UNL     1      20.863  48.742  49.649  1.00  0.00    -0.263 N 
HETATM   11  H   UNL     1      20.620  48.099  50.399  1.00  0.00     0.190 HD
HETATM   12  O   UNL     1      22.063  49.248  47.770  1.00  0.00    -0.266 OA
BRANCH  10  13
HETATM   13  N   UNL     1      19.875  49.664  49.291  1.00  0.00    -0.262 N 
HETATM   14  C   UNL     1      18.871  49.956  50.188  1.00  0.00     0.286 C 
HETATM   15  O   UNL     1      18.830  49.434  51.303  1.00  0.00    -0.264 OA
HETATM   16  H   UNL     1      19.942  50.068  48.360  1.00  0.00     0.190 HD
BRANCH  14  17
HETATM   17  C   UNL     1      17.881  50.906  49.732  1.00  0.00     0.102 A 
HETATM   18  N   UNL     1      16.809  50.509  48.958  1.00  0.00    -0.361 N 
HETATM   19  H   UNL     1      16.650  49.551  48.668  1.00  0.00     0.165 HD
HETATM   20  C   UNL     1      16.017  51.583  48.655  1.00  0.00     0.088 A 
HETATM   21  C   UNL     1      16.579  52.696  49.233  1.00  0.00     0.019 A 
HETATM   22  C   UNL     1      17.749  52.274  49.911  1.00  0.00     0.036 A 
ENDBRANCH  14  17
ENDBRANCH  10  13
ENDBRANCH   7   9
BRANCH   3  23
HETATM   23  O   UNL     1      25.774  44.585  49.976  1.00  0.00    -0.346 OA
BRANCH  23  24
HETATM   24  C   UNL     1      25.479  43.832  51.162  1.00  0.00     0.216 C 
BRANCH  24  25
HETATM   25  C   UNL     1      26.619  43.857  52.147  1.00  0.00    -0.017 A 
HETATM   26  C   UNL     1      27.910  43.588  51.697  1.00  0.00     0.125 A 
HETATM   27  N   UNL     1      29.012  43.599  52.480  1.00  0.00    -0.272 NA
HETATM   28  C   UNL     1      28.825  43.899  53.782  1.00  0.00     0.116 A 
HETATM   29  C   UNL     1      27.588  44.194  54.331  1.00  0.00     0.020 A 
HETATM   30  C   UNL     1      26.472  44.178  53.499  1.00  0.00     0.012 A 
ENDBRANCH  24  25
ENDBRANCH  23  24
ENDBRANCH   3  23
TORSDOF 6
ENDMDL
