MODEL 1
REMARK VINA RESULT:      -7.8      0.000      0.000
REMARK  4 active torsions:
REMARK  status: ('A' for Active; 'I' for Inactive)
REMARK    1  A    between atoms: S_2  and  N_3 
REMARK    2  A    between atoms: N_3  and  N_4 
REMARK    3  A    between atoms: C_10  and  C_11 
REMARK    4  A    between atoms: C_14  and  O_15 
ROOT
HETATM    1  N   UNL     1      26.610  42.307  51.288  1.00  0.00    -0.241 N 
HETATM    2  C   UNL     1      27.923  42.005  51.605  1.00  0.00     0.272 C 
HETATM    3  O   UNL     1      28.549  41.114  51.030  1.00  0.00    -0.266 OA
HETATM    4  C   UNL     1      28.509  42.759  52.729  1.00  0.00     0.054 A 
HETATM    5  C   UNL     1      27.621  43.418  53.592  1.00  0.00     0.026 A 
HETATM    6  N   UNL     1      26.235  43.383  53.353  1.00  0.00    -0.265 NA
HETATM    7  C   UNL     1      25.877  43.407  51.925  1.00  0.00     0.217 C 
HETATM    8  C   UNL     1      29.882  42.718  52.986  1.00  0.00     0.019 A 
HETATM    9  C   UNL     1      30.380  43.342  54.128  1.00  0.00     0.001 A 
HETATM   10  C   UNL     1      29.505  43.970  55.016  1.00  0.00     0.002 A 
HETATM   11  C   UNL     1      28.131  43.992  54.759  1.00  0.00     0.024 A 
HETATM   12  H   UNL     1      25.715  44.059  53.899  1.00  0.00     0.130 HD
ENDROOT
BRANCH   7  13
HETATM   13  C   UNL     1      26.145  44.792  51.311  1.00  0.00    -0.020 A 
HETATM   14  C   UNL     1      26.868  44.951  50.115  1.00  0.00     0.013 A 
HETATM   15  C   UNL     1      27.080  46.216  49.552  1.00  0.00     0.037 A 
HETATM   16  C   UNL     1      26.571  47.342  50.184  1.00  0.00     0.065 A 
HETATM   17  C   UNL     1      25.844  47.222  51.357  1.00  0.00     0.037 A 
HETATM   18  C   UNL     1      25.616  45.957  51.908  1.00  0.00     0.013 A 
BRANCH  16  19
HETATM   19  O   UNL     1      26.757  48.592  49.674  1.00  0.00    -0.361 OA
HETATM   20  H   UNL     1      27.630  48.629  49.251  1.00  0.00     0.217 HD
ENDBRANCH  16  19
ENDBRANCH   7  13
BRANCH   1  21
HETATM   21  N   UNL     1      25.820  41.172  50.747  1.00  0.00    -0.123 NA
HETATM   22  H   UNL     1      26.032  40.284  51.221  1.00  0.00     0.165 HD
BRANCH  21  23
HETATM   23  S   UNL     1      25.675  40.969  49.073  1.00  0.00     0.222 S 
HETATM   24  C   UNL     1      26.338  39.327  48.882  1.00  0.00     0.181 C 
HETATM   25  O   UNL     1      26.555  41.904  48.408  1.00  0.00    -0.210 OA
HETATM   26  O   UNL     1      24.262  40.915  48.773  1.00  0.00    -0.210 OA
ENDBRANCH  21  23
ENDBRANCH   1  21
TORSDOF 4
ENDMDL
MODEL 2
REMARK VINA RESULT:      -7.4     11.844     13.933
REMARK  4 active torsions:
REMARK  status: ('A' for Active; 'I' for Inactive)
REMARK    1  A    between atoms: S_2  and  N_3 
REMARK    2  A    between atoms: N_3  and  N_4 
REMARK    3  A    between atoms: C_10  and  C_11 
REMARK    4  A    between atoms: C_14  and  O_15 
ROOT
HETATM    1  N   UNL     1      29.613  48.425  40.428  1.00  0.00    -0.241 N 
HETATM    2  C   UNL     1      28.580  49.309  40.163  1.00  0.00     0.272 C 
HETATM    3  O   UNL     1      27.421  49.089  40.515  1.00  0.00    -0.266 OA
HETATM    4  C   UNL     1      28.933  50.496  39.362  1.00  0.00     0.054 A 
HETATM    5  C   UNL     1      30.137  50.452  38.643  1.00  0.00     0.026 A 
HETATM    6  N   UNL     1      30.979  49.328  38.731  1.00  0.00    -0.265 NA
HETATM    7  C   UNL     1      31.006  48.707  40.066  1.00  0.00     0.217 C 
HETATM    8  C   UNL     1      28.046  51.568  39.234  1.00  0.00     0.019 A 
HETATM    9  C   UNL     1      28.361  52.614  38.370  1.00  0.00     0.001 A 
HETATM   10  C   UNL     1      29.538  52.567  37.620  1.00  0.00     0.002 A 
HETATM   11  C   UNL     1      30.412  51.483  37.743  1.00  0.00     0.024 A 
HETATM   12  H   UNL     1      31.906  49.489  38.355  1.00  0.00     0.130 HD
ENDROOT
BRANCH   7  13
HETATM   13  C   UNL     1      31.760  49.594  41.073  1.00  0.00    -0.020 A 
HETATM   14  C   UNL     1      31.383  49.674  42.426  1.00  0.00     0.013 A 
HETATM   15  C   UNL     1      32.095  50.463  43.337  1.00  0.00     0.037 A 
HETATM   16  C   UNL     1      33.197  51.187  42.903  1.00  0.00     0.065 A 
HETATM   17  C   UNL     1      33.604  51.123  41.581  1.00  0.00     0.037 A 
HETATM   18  C   UNL     1      32.903  50.320  40.675  1.00  0.00     0.013 A 
BRANCH  16  19
HETATM   19  O   UNL     1      33.916  51.971  43.755  1.00  0.00    -0.361 OA
HETATM   20  H   UNL     1      33.380  52.743  43.995  1.00  0.00     0.217 HD
ENDBRANCH  16  19
ENDBRANCH   7  13
BRANCH   1  21
HETATM   21  N   UNL     1      29.204  47.002  40.545  1.00  0.00    -0.123 NA
HETATM   22  H   UNL     1      29.737  46.498  41.264  1.00  0.00     0.165 HD
BRANCH  21  23
HETATM   23  S   UNL     1      28.999  46.069  39.148  1.00  0.00     0.222 S 
HETATM   24  C   UNL     1      27.265  45.679  39.264  1.00  0.00     0.181 C 
HETATM   25  O   UNL     1      29.758  44.846  39.283  1.00  0.00    -0.210 OA
HETATM   26  O   UNL     1      29.180  46.951  38.017  1.00  0.00    -0.210 OA
ENDBRANCH  21  23
ENDBRANCH   1  21
TORSDOF 4
ENDMDL
MODEL 3
REMARK VINA RESULT:      -7.3      7.344      9.845
REMARK  4 active torsions:
REMARK  status: ('A' for Active; 'I' for Inactive)
REMARK    1  A    between atoms: S_2  and  N_3 
REMARK    2  A    between atoms: N_3  and  N_4 
REMARK    3  A    between atoms: C_10  and  C_11 
REMARK    4  A    between atoms: C_14  and  O_15 
ROOT
HETATM    1  N   UNL     1      19.965  47.631  48.868  1.00  0.00    -0.241 N 
HETATM    2  C   UNL     1      19.263  48.475  49.713  1.00  0.00     0.272 C 
HETATM    3  O   UNL     1      18.664  48.060  50.706  1.00  0.00    -0.266 OA
HETATM    4  C   UNL     1      19.206  49.892  49.311  1.00  0.00     0.054 A 
HETATM    5  C   UNL     1      19.524  50.196  47.979  1.00  0.00     0.026 A 
HETATM    6  N   UNL     1      19.920  49.180  47.090  1.00  0.00    -0.265 NA
HETATM    7  C   UNL     1      20.731  48.124  47.718  1.00  0.00     0.217 C 
HETATM    8  C   UNL     1      18.740  50.872  50.192  1.00  0.00     0.019 A 
HETATM    9  C   UNL     1      18.584  52.179  49.737  1.00  0.00     0.001 A 
HETATM   10  C   UNL     1      18.861  52.490  48.404  1.00  0.00     0.002 A 
HETATM   11  C   UNL     1      19.311  51.500  47.526  1.00  0.00     0.024 A 
HETATM   12  H   UNL     1      20.330  49.532  46.234  1.00  0.00     0.130 HD
ENDROOT
BRANCH   7  13
HETATM   13  C   UNL     1      22.139  48.639  48.063  1.00  0.00    -0.020 A 
HETATM   14  C   UNL     1      22.618  49.875  47.589  1.00  0.00     0.013 A 
HETATM   15  C   UNL     1      23.891  50.345  47.933  1.00  0.00     0.037 A 
HETATM   16  C   UNL     1      24.704  49.581  48.759  1.00  0.00     0.065 A 
HETATM   17  C   UNL     1      24.261  48.367  49.254  1.00  0.00     0.037 A 
HETATM   18  C   UNL     1      22.983  47.906  48.925  1.00  0.00     0.013 A 
BRANCH  16  19
HETATM   19  O   UNL     1      25.952  49.999  49.116  1.00  0.00    -0.361 OA
HETATM   20  H   UNL     1      26.550  49.235  49.107  1.00  0.00     0.217 HD
ENDBRANCH  16  19
ENDBRANCH   7  13
BRANCH   1  21
HETATM   21  N   UNL     1      19.457  46.236  48.814  1.00  0.00    -0.123 NA
HETATM   22  H   UNL     1      20.213  45.541  48.865  1.00  0.00     0.165 HD
BRANCH  21  23
HETATM   23  S   UNL     1      18.290  45.810  47.664  1.00  0.00     0.222 S 
HETATM   24  C   UNL     1      19.145  44.514  46.793  1.00  0.00     0.181 C 
HETATM   25  O   UNL     1      18.091  46.922  46.762  1.00  0.00    -0.210 OA
HETATM   26  O   UNL     1      17.188  45.210  48.382  1.00  0.00    -0.210 OA
ENDBRANCH  21  23
ENDBRANCH   1  21
TORSDOF 4
ENDMDL
MODEL 4
REMARK VINA RESULT:      -7.2     11.895     14.026
REMARK  4 active torsions:
REMARK  status: ('A' for Active; 'I' for Inactive)
REMARK    1  A    between atoms: S_2  and  N_3 
REMARK    2  A    between atoms: N_3  and  N_4 
REMARK    3  A    between atoms: C_10  and  C_11 
REMARK    4  A    between atoms: C_14  and  O_15 
ROOT
HETATM    1  N   UNL     1      28.113  50.611  39.926  1.00  0.00    -0.241 N 
HETATM    2  C   UNL     1      27.544  49.899  38.883  1.00  0.00     0.272 C 
HETATM    3  O   UNL     1      27.349  50.401  37.776  1.00  0.00    -0.266 OA
HETATM    4  C   UNL     1      27.108  48.526  39.197  1.00  0.00     0.054 A 
HETATM    5  C   UNL     1      26.962  48.192  40.552  1.00  0.00     0.026 A 
HETATM    6  N   UNL     1      27.263  49.132  41.555  1.00  0.00    -0.265 NA
HETATM    7  C   UNL     1      28.405  50.003  41.229  1.00  0.00     0.217 C 
HETATM    8  C   UNL     1      26.746  47.636  38.183  1.00  0.00     0.019 A 
HETATM    9  C   UNL     1      26.223  46.391  38.523  1.00  0.00     0.001 A 
HETATM   10  C   UNL     1      26.035  46.058  39.867  1.00  0.00     0.002 A 
HETATM   11  C   UNL     1      26.386  46.961  40.874  1.00  0.00     0.024 A 
HETATM   12  H   UNL     1      27.332  48.724  42.479  1.00  0.00     0.130 HD
ENDROOT
BRANCH   7  13
HETATM   13  C   UNL     1      29.730  49.224  41.288  1.00  0.00    -0.020 A 
HETATM   14  C   UNL     1      30.221  48.503  40.184  1.00  0.00     0.013 A 
HETATM   15  C   UNL     1      31.443  47.821  40.242  1.00  0.00     0.037 A 
HETATM   16  C   UNL     1      32.190  47.851  41.411  1.00  0.00     0.065 A 
HETATM   17  C   UNL     1      31.744  48.561  42.514  1.00  0.00     0.037 A 
HETATM   18  C   UNL     1      30.533  49.257  42.449  1.00  0.00     0.013 A 
BRANCH  16  19
HETATM   19  O   UNL     1      33.382  47.198  41.513  1.00  0.00    -0.361 OA
HETATM   20  H   UNL     1      33.246  46.264  41.286  1.00  0.00     0.217 HD
ENDBRANCH  16  19
ENDBRANCH   7  13
BRANCH   1  21
HETATM   21  N   UNL     1      27.881  52.077  39.883  1.00  0.00    -0.123 NA
HETATM   22  H   UNL     1      26.935  52.316  39.558  1.00  0.00     0.165 HD
BRANCH  21  23
HETATM   23  S   UNL     1      29.052  53.095  39.206  1.00  0.00     0.222 S 
HETATM   24  C   UNL     1      30.457  52.001  39.169  1.00  0.00     0.181 C 
HETATM   25  O   UNL     1      29.328  54.173  40.128  1.00  0.00    -0.210 OA
HETATM   26  O   UNL     1      28.653  53.350  37.840  1.00  0.00    -0.210 OA
ENDBRANCH  21  23
ENDBRANCH   1  21
TORSDOF 4
ENDMDL
MODEL 5
REMARK VINA RESULT:      -7.2      7.633     10.425
REMARK  4 active torsions:
REMARK  status: ('A' for Active; 'I' for Inactive)
REMARK    1  A    between atoms: S_2  and  N_3 
REMARK    2  A    between atoms: N_3  and  N_4 
REMARK    3  A    between atoms: C_10  and  C_11 
REMARK    4  A    between atoms: C_14  and  O_15 
ROOT
HETATM    1  N   UNL     1      21.667  48.614  47.922  1.00  0.00    -0.241 N 
HETATM    2  C   UNL     1      21.452  49.972  47.758  1.00  0.00     0.272 C 
HETATM    3  O   UNL     1      22.228  50.688  47.123  1.00  0.00    -0.266 OA
HETATM    4  C   UNL     1      20.280  50.532  48.456  1.00  0.00     0.054 A 
HETATM    5  C   UNL     1      19.719  49.764  49.486  1.00  0.00     0.026 A 
HETATM    6  N   UNL     1      20.243  48.496  49.798  1.00  0.00    -0.265 NA
HETATM    7  C   UNL     1      20.718  47.744  48.624  1.00  0.00     0.217 C 
HETATM    8  C   UNL     1      19.825  51.823  48.177  1.00  0.00     0.019 A 
HETATM    9  C   UNL     1      18.794  52.362  48.942  1.00  0.00     0.001 A 
HETATM   10  C   UNL     1      18.250  51.625  49.996  1.00  0.00     0.002 A 
HETATM   11  C   UNL     1      18.723  50.340  50.278  1.00  0.00     0.024 A 
HETATM   12  H   UNL     1      19.638  47.947  50.397  1.00  0.00     0.130 HD
ENDROOT
BRANCH   7  13
HETATM   13  C   UNL     1      19.537  47.261  47.763  1.00  0.00    -0.020 A 
HETATM   14  C   UNL     1      19.495  47.468  46.371  1.00  0.00     0.013 A 
HETATM   15  C   UNL     1      18.428  46.997  45.596  1.00  0.00     0.037 A 
HETATM   16  C   UNL     1      17.386  46.314  46.206  1.00  0.00     0.065 A 
HETATM   17  C   UNL     1      17.400  46.081  47.571  1.00  0.00     0.037 A 
HETATM   18  C   UNL     1      18.475  46.535  48.342  1.00  0.00     0.013 A 
BRANCH  16  19
HETATM   19  O   UNL     1      16.326  45.843  45.490  1.00  0.00    -0.361 OA
HETATM   20  H   UNL     1      15.574  45.719  46.092  1.00  0.00     0.217 HD
ENDBRANCH  16  19
ENDBRANCH   7  13
BRANCH   1  21
HETATM   21  N   UNL     1      23.092  48.198  47.889  1.00  0.00    -0.123 NA
HETATM   22  H   UNL     1      23.214  47.241  47.532  1.00  0.00     0.165 HD
BRANCH  21  23
HETATM   23  S   UNL     1      24.087  48.498  49.225  1.00  0.00     0.222 S 
HETATM   24  C   UNL     1      25.305  49.572  48.494  1.00  0.00     0.181 C 
HETATM   25  O   UNL     1      24.733  47.266  49.618  1.00  0.00    -0.210 OA
HETATM   26  O   UNL     1      23.313  49.280  50.164  1.00  0.00    -0.210 OA
ENDBRANCH  21  23
ENDBRANCH   1  21
TORSDOF 4
ENDMDL
MODEL 6
REMARK VINA RESULT:      -7.1      2.487      3.371
REMARK  4 active torsions:
REMARK  status: ('A' for Active; 'I' for Inactive)
REMARK    1  A    between atoms: S_2  and  N_3 
REMARK    2  A    between atoms: N_3  and  N_4 
REMARK    3  A    between atoms: C_10  and  C_11 
REMARK    4  A    between atoms: C_14  and  O_15 
ROOT
HETATM    1  N   UNL     1      25.127  44.643  49.489  1.00  0.00    -0.241 N 
HETATM    2  C   UNL     1      26.144  43.971  50.145  1.00  0.00     0.272 C 
HETATM    3  O   UNL     1      26.645  42.939  49.696  1.00  0.00    -0.266 OA
HETATM    4  C   UNL     1      26.543  44.517  51.455  1.00  0.00     0.054 A 
HETATM    5  C   UNL     1      25.652  45.402  52.080  1.00  0.00     0.026 A 
HETATM    6  N   UNL     1      24.451  45.771  51.446  1.00  0.00    -0.265 NA
HETATM    7  C   UNL     1      24.567  45.905  49.984  1.00  0.00     0.217 C 
HETATM    8  C   UNL     1      27.705  44.078  52.095  1.00  0.00     0.019 A 
HETATM    9  C   UNL     1      27.983  44.525  53.384  1.00  0.00     0.001 A 
HETATM   10  C   UNL     1      27.087  45.376  54.035  1.00  0.00     0.002 A 
HETATM   11  C   UNL     1      25.919  45.798  53.392  1.00  0.00     0.024 A 
HETATM   12  H   UNL     1      23.997  46.567  51.878  1.00  0.00     0.130 HD
ENDROOT
BRANCH   7  13
HETATM   13  C   UNL     1      25.379  47.156  49.606  1.00  0.00    -0.020 A 
HETATM   14  C   UNL     1      26.787  47.153  49.583  1.00  0.00     0.013 A 
HETATM   15  C   UNL     1      27.513  48.290  49.209  1.00  0.00     0.037 A 
HETATM   16  C   UNL     1      26.838  49.449  48.855  1.00  0.00     0.065 A 
HETATM   17  C   UNL     1      25.453  49.485  48.855  1.00  0.00     0.037 A 
HETATM   18  C   UNL     1      24.728  48.344  49.210  1.00  0.00     0.013 A 
BRANCH  16  19
HETATM   19  O   UNL     1      27.505  50.580  48.489  1.00  0.00    -0.361 OA
HETATM   20  H   UNL     1      28.400  50.549  48.865  1.00  0.00     0.217 HD
ENDBRANCH  16  19
ENDBRANCH   7  13
BRANCH   1  21
HETATM   21  N   UNL     1      24.259  43.788  48.639  1.00  0.00    -0.123 NA
HETATM   22  H   UNL     1      24.132  44.173  47.694  1.00  0.00     0.165 HD
BRANCH  21  23
HETATM   23  S   UNL     1      22.810  43.176  49.265  1.00  0.00     0.222 S 
HETATM   24  C   UNL     1      21.658  44.409  48.697  1.00  0.00     0.181 C 
HETATM   25  O   UNL     1      22.864  43.222  50.709  1.00  0.00    -0.210 OA
HETATM   26  O   UNL     1      22.528  41.947  48.557  1.00  0.00    -0.210 OA
ENDBRANCH  21  23
ENDBRANCH   1  21
TORSDOF 4
ENDMDL
MODEL 7
REMARK VINA RESULT:      -7.1     11.550     12.654
REMARK  4 active torsions:
REMARK  status: ('A' for Active; 'I' for Inactive)
REMARK    1  A    between atoms: S_2  and  N_3 
REMARK    2  A    between atoms: N_3  and  N_4 
REMARK    3  A    between atoms: C_10  and  C_11 
REMARK    4  A    between atoms: C_14  and  O_15 
ROOT
HETATM    1  N   UNL     1      27.325  48.236  40.778  1.00  0.00    -0.241 N 
HETATM    2  C   UNL     1      28.360  47.407  40.382  1.00  0.00     0.272 C 
HETATM    3  O   UNL     1      28.162  46.354  39.774  1.00  0.00    -0.266 OA
HETATM    4  C   UNL     1      29.714  47.814  40.800  1.00  0.00     0.054 A 
HETATM    5  C   UNL     1      29.811  48.755  41.836  1.00  0.00     0.026 A 
HETATM    6  N   UNL     1      28.650  49.305  42.411  1.00  0.00    -0.265 NA
HETATM    7  C   UNL     1      27.555  49.520  41.449  1.00  0.00     0.217 C 
HETATM    8  C   UNL     1      30.849  47.199  40.264  1.00  0.00     0.019 A 
HETATM    9  C   UNL     1      32.104  47.524  40.773  1.00  0.00     0.001 A 
HETATM   10  C   UNL     1      32.214  48.430  41.830  1.00  0.00     0.002 A 
HETATM   11  C   UNL     1      31.072  49.029  42.370  1.00  0.00     0.024 A 
HETATM   12  H   UNL     1      28.833  50.119  42.985  1.00  0.00     0.130 HD
ENDROOT
BRANCH   7  13
HETATM   13  C   UNL     1      27.875  50.688  40.500  1.00  0.00    -0.020 A 
HETATM   14  C   UNL     1      28.394  51.910  40.968  1.00  0.00     0.013 A 
HETATM   15  C   UNL     1      28.708  52.954  40.089  1.00  0.00     0.037 A 
HETATM   16  C   UNL     1      28.502  52.789  38.727  1.00  0.00     0.065 A 
HETATM   17  C   UNL     1      28.005  51.597  38.229  1.00  0.00     0.037 A 
HETATM   18  C   UNL     1      27.710  50.547  39.105  1.00  0.00     0.013 A 
BRANCH  16  19
HETATM   19  O   UNL     1      28.789  53.781  37.837  1.00  0.00    -0.361 OA
HETATM   20  H   UNL     1      29.473  53.463  37.226  1.00  0.00     0.217 HD
ENDBRANCH  16  19
ENDBRANCH   7  13
BRANCH   1  21
HETATM   21  N   UNL     1      26.032  47.549  41.028  1.00  0.00    -0.123 NA
HETATM   22  H   UNL     1      26.158  46.589  41.376  1.00  0.00     0.165 HD
BRANCH  21  23
HETATM   23  S   UNL     1      24.795  47.639  39.876  1.00  0.00     0.222 S 
HETATM   24  C   UNL     1      24.781  45.963  39.275  1.00  0.00     0.181 C 
HETATM   25  O   UNL     1      25.214  48.513  38.803  1.00  0.00    -0.210 OA
HETATM   26  O   UNL     1      23.561  47.863  40.596  1.00  0.00    -0.210 OA
ENDBRANCH  21  23
ENDBRANCH   1  21
TORSDOF 4
ENDMDL
MODEL 8
REMARK VINA RESULT:      -6.9     16.898     18.425
REMARK  4 active torsions:
REMARK  status: ('A' for Active; 'I' for Inactive)
REMARK    1  A    between atoms: S_2  and  N_3 
REMARK    2  A    between atoms: N_3  and  N_4 
REMARK    3  A    between atoms: C_10  and  C_11 
REMARK    4  A    between atoms: C_14  and  O_15 
ROOT
HETATM    1  N   UNL     1      40.070  44.465  64.016  1.00  0.00    -0.241 N 
HETATM    2  C   UNL     1      40.798  43.408  64.535  1.00  0.00     0.272 C 
HETATM    3  O   UNL     1      41.808  43.579  65.219  1.00  0.00    -0.266 OA
HETATM    4  C   UNL     1      40.341  42.058  64.157  1.00  0.00     0.054 A 
HETATM    5  C   UNL     1      39.483  41.957  63.052  1.00  0.00     0.026 A 
HETATM    6  N   UNL     1      39.055  43.112  62.372  1.00  0.00    -0.265 NA
HETATM    7  C   UNL     1      38.833  44.272  63.252  1.00  0.00     0.217 C 
HETATM    8  C   UNL     1      40.837  40.922  64.802  1.00  0.00     0.019 A 
HETATM    9  C   UNL     1      40.476  39.661  64.335  1.00  0.00     0.001 A 
HETATM   10  C   UNL     1      39.654  39.543  63.213  1.00  0.00     0.002 A 
HETATM   11  C   UNL     1      39.174  40.685  62.564  1.00  0.00     0.024 A 
HETATM   12  H   UNL     1      38.281  42.944  61.741  1.00  0.00     0.130 HD
ENDROOT
BRANCH   7  13
HETATM   13  C   UNL     1      37.574  44.077  64.115  1.00  0.00    -0.020 A 
HETATM   14  C   UNL     1      36.971  42.815  64.282  1.00  0.00     0.013 A 
HETATM   15  C   UNL     1      35.843  42.647  65.093  1.00  0.00     0.037 A 
HETATM   16  C   UNL     1      35.299  43.743  65.748  1.00  0.00     0.065 A 
HETATM   17  C   UNL     1      35.873  44.997  65.617  1.00  0.00     0.037 A 
HETATM   18  C   UNL     1      37.011  45.161  64.822  1.00  0.00     0.013 A 
BRANCH  16  19
HETATM   19  O   UNL     1      34.199  43.625  66.544  1.00  0.00    -0.361 OA
HETATM   20  H   UNL     1      33.816  42.742  66.417  1.00  0.00     0.217 HD
ENDBRANCH  16  19
ENDBRANCH   7  13
BRANCH   1  21
HETATM   21  N   UNL     1      40.856  45.699  63.757  1.00  0.00    -0.123 NA
HETATM   22  H   UNL     1      41.808  45.496  63.425  1.00  0.00     0.165 HD
BRANCH  21  23
HETATM   23  S   UNL     1      40.843  46.957  64.889  1.00  0.00     0.222 S 
HETATM   24  C   UNL     1      42.570  47.031  65.318  1.00  0.00     0.181 C 
HETATM   25  O   UNL     1      40.094  46.537  66.052  1.00  0.00    -0.210 OA
HETATM   26  O   UNL     1      40.512  48.168  64.173  1.00  0.00    -0.210 OA
ENDBRANCH  21  23
ENDBRANCH   1  21
TORSDOF 4
ENDMDL
MODEL 9
REMARK VINA RESULT:      -6.9      7.745      9.986
REMARK  4 active torsions:
REMARK  status: ('A' for Active; 'I' for Inactive)
REMARK    1  A    between atoms: S_2  and  N_3 
REMARK    2  A    between atoms: N_3  and  N_4 
REMARK    3  A    between atoms: C_10  and  C_11 
REMARK    4  A    between atoms: C_14  and  O_15 
ROOT
HETATM    1  N   UNL     1      20.966  47.328  48.526  1.00  0.00    -0.241 N 
HETATM    2  C   UNL     1      21.422  48.593  48.197  1.00  0.00     0.272 C 
HETATM    3  O   UNL     1      22.506  48.777  47.642  1.00  0.00    -0.266 OA
HETATM    4  C   UNL     1      20.571  49.720  48.622  1.00  0.00     0.054 A 
HETATM    5  C   UNL     1      19.608  49.461  49.608  1.00  0.00     0.026 A 
HETATM    6  N   UNL     1      19.449  48.162  50.128  1.00  0.00    -0.265 NA
HETATM    7  C   UNL     1      19.650  47.096  49.132  1.00  0.00     0.217 C 
HETATM    8  C   UNL     1      20.797  51.013  48.145  1.00  0.00     0.019 A 
HETATM    9  C   UNL     1      20.054  52.071  48.663  1.00  0.00     0.001 A 
HETATM   10  C   UNL     1      19.117  51.835  49.672  1.00  0.00     0.002 A 
HETATM   11  C   UNL     1      18.909  50.539  50.155  1.00  0.00     0.024 A 
HETATM   12  H   UNL     1      18.596  48.044  50.662  1.00  0.00     0.130 HD
ENDROOT
BRANCH   7  13
HETATM   13  C   UNL     1      18.485  47.048  48.129  1.00  0.00    -0.020 A 
HETATM   14  C   UNL     1      17.203  47.534  48.451  1.00  0.00     0.013 A 
HETATM   15  C   UNL     1      16.159  47.511  47.518  1.00  0.00     0.037 A 
HETATM   16  C   UNL     1      16.384  46.997  46.249  1.00  0.00     0.065 A 
HETATM   17  C   UNL     1      17.635  46.522  45.893  1.00  0.00     0.037 A 
HETATM   18  C   UNL     1      18.683  46.563  46.819  1.00  0.00     0.013 A 
BRANCH  16  19
HETATM   19  O   UNL     1      15.395  46.952  45.312  1.00  0.00    -0.361 OA
HETATM   20  H   UNL     1      14.595  47.358  45.683  1.00  0.00     0.217 HD
ENDBRANCH  16  19
ENDBRANCH   7  13
BRANCH   1  21
HETATM   21  N   UNL     1      22.032  46.326  48.784  1.00  0.00    -0.123 NA
HETATM   22  H   UNL     1      22.924  46.761  49.052  1.00  0.00     0.165 HD
BRANCH  21  23
HETATM   23  S   UNL     1      22.262  45.045  47.701  1.00  0.00     0.222 S 
HETATM   24  C   UNL     1      23.830  44.416  48.264  1.00  0.00     0.181 C 
HETATM   25  O   UNL     1      22.428  45.579  46.368  1.00  0.00    -0.210 OA
HETATM   26  O   UNL     1      21.253  44.053  47.999  1.00  0.00    -0.210 OA
ENDBRANCH  21  23
ENDBRANCH   1  21
TORSDOF 4
ENDMDL
MODEL 10
REMARK VINA RESULT:      -6.8      7.985     10.551
REMARK  4 active torsions:
REMARK  status: ('A' for Active; 'I' for Inactive)
REMARK    1  A    between atoms: S_2  and  N_3 
REMARK    2  A    between atoms: N_3  and  N_4 
REMARK    3  A    between atoms: C_10  and  C_11 
REMARK    4  A    between atoms: C_14  and  O_15 
ROOT
HETATM    1  N   UNL     1      18.944  49.155  48.562  1.00  0.00    -0.241 N 
HETATM    2  C   UNL     1      18.562  48.439  47.441  1.00  0.00     0.272 C 
HETATM    3  O   UNL     1      17.668  48.827  46.687  1.00  0.00    -0.266 OA
HETATM    4  C   UNL     1      19.232  47.141  47.241  1.00  0.00     0.054 A 
HETATM    5  C   UNL     1      19.893  46.583  48.345  1.00  0.00     0.026 A 
HETATM    6  N   UNL     1      19.939  47.270  49.572  1.00  0.00    -0.265 NA
HETATM    7  C   UNL     1      20.048  48.732  49.431  1.00  0.00     0.217 C 
HETATM    8  C   UNL     1      19.110  46.446  46.035  1.00  0.00     0.019 A 
HETATM    9  C   UNL     1      19.653  45.168  45.927  1.00  0.00     0.001 A 
HETATM   10  C   UNL     1      20.281  44.583  47.029  1.00  0.00     0.002 A 
HETATM   11  C   UNL     1      20.385  45.280  48.236  1.00  0.00     0.024 A 
HETATM   12  H   UNL     1      20.614  46.887  50.222  1.00  0.00     0.130 HD
ENDROOT
BRANCH   7  13
HETATM   13  C   UNL     1      21.446  49.136  48.930  1.00  0.00    -0.020 A 
HETATM   14  C   UNL     1      22.593  48.375  49.225  1.00  0.00     0.013 A 
HETATM   15  C   UNL     1      23.855  48.738  48.739  1.00  0.00     0.037 A 
HETATM   16  C   UNL     1      23.985  49.873  47.950  1.00  0.00     0.065 A 
HETATM   17  C   UNL     1      22.876  50.638  47.628  1.00  0.00     0.037 A 
HETATM   18  C   UNL     1      21.614  50.264  48.099  1.00  0.00     0.013 A 
BRANCH  16  19
HETATM   19  O   UNL     1      25.194  50.265  47.459  1.00  0.00    -0.361 OA
HETATM   20  H   UNL     1      25.164  50.227  46.489  1.00  0.00     0.217 HD
ENDBRANCH  16  19
ENDBRANCH   7  13
BRANCH   1  21
HETATM   21  N   UNL     1      17.877  49.996  49.162  1.00  0.00    -0.123 NA
HETATM   22  H   UNL     1      16.934  49.683  48.895  1.00  0.00     0.165 HD
BRANCH  21  23
HETATM   23  S   UNL     1      18.012  51.683  49.121  1.00  0.00     0.222 S 
HETATM   24  C   UNL     1      16.436  52.155  49.804  1.00  0.00     0.181 C 
HETATM   25  O   UNL     1      18.069  52.117  47.744  1.00  0.00    -0.210 OA
HETATM   26  O   UNL     1      19.036  52.049  50.074  1.00  0.00    -0.210 OA
ENDBRANCH  21  23
ENDBRANCH   1  21
TORSDOF 4
ENDMDL
