MODEL 1
REMARK VINA RESULT:      -9.4      0.000      0.000
REMARK  6 active torsions:
REMARK  status: ('A' for Active; 'I' for Inactive)
REMARK    1  A    between atoms: C_4  and  N_5 
REMARK    2  A    between atoms: C_7  and  C_8 
REMARK       I    between atoms: C_8  and  N_9 
REMARK    3  A    between atoms: N_9  and  N_10 
REMARK       I    between atoms: N_10  and  C_11 
REMARK    4  A    between atoms: C_11  and  C_12 
REMARK    5  A    between atoms: C_12  and  C_13 
REMARK    6  A    between atoms: C_22  and  O_23 
ROOT
HETATM    1  C   UNL     1      25.276  46.066  52.467  1.00  0.00     0.293 C 
HETATM    2  N   UNL     1      25.021  47.244  51.799  1.00  0.00    -0.262 N 
HETATM    3  O   UNL     1      24.715  45.002  52.205  1.00  0.00    -0.264 OA
HETATM    4  H   UNL     1      25.558  48.088  52.009  1.00  0.00     0.190 HD
ENDROOT
BRANCH   1   5
HETATM    5  C   UNL     1      26.283  46.186  53.521  1.00  0.00     0.181 A 
HETATM    6  N   UNL     1      27.238  45.260  53.727  1.00  0.00    -0.159 NA
HETATM    7  N   UNL     1      27.964  45.729  54.787  1.00  0.00    -0.242 N 
HETATM    8  C   UNL     1      27.472  46.933  55.243  1.00  0.00     0.158 A 
HETATM    9  C   UNL     1      26.405  47.237  54.449  1.00  0.00     0.119 A 
BRANCH   7  10
HETATM   10  C   UNL     1      29.076  44.993  55.288  1.00  0.00     0.058 A 
HETATM   11  C   UNL     1      29.487  43.824  54.627  1.00  0.00     0.031 A 
HETATM   12  C   UNL     1      30.576  43.092  55.103  1.00  0.00     0.002 A 
HETATM   13  C   UNL     1      31.261  43.516  56.239  1.00  0.00     0.000 A 
HETATM   14  C   UNL     1      30.859  44.674  56.902  1.00  0.00     0.002 A 
HETATM   15  C   UNL     1      29.770  45.414  56.431  1.00  0.00     0.031 A 
ENDBRANCH   7  10
BRANCH   9  16
HETATM   16  O   UNL     1      25.664  48.348  54.589  1.00  0.00    -0.357 OA
HETATM   17  H   UNL     1      25.393  48.452  55.524  1.00  0.00     0.218 HD
ENDBRANCH   9  16
ENDBRANCH   1   5
BRANCH   2  18
HETATM   18  N   UNL     1      24.129  47.264  50.724  1.00  0.00    -0.267 N 
HETATM   19  C   UNL     1      24.460  48.026  49.621  1.00  0.00     0.240 C 
HETATM   20  O   UNL     1      25.463  48.735  49.581  1.00  0.00    -0.272 OA
HETATM   21  H   UNL     1      23.422  46.530  50.699  1.00  0.00     0.190 HD
BRANCH  19  22
HETATM   22  C   UNL     1      23.480  47.914  48.470  1.00  0.00     0.143 C 
BRANCH  22  23
HETATM   23  C   UNL     1      22.333  48.902  48.470  1.00  0.00    -0.049 A 
HETATM   24  C   UNL     1      20.984  48.522  48.456  1.00  0.00     0.009 A 
HETATM   25  C   UNL     1      19.971  49.487  48.434  1.00  0.00     0.019 A 
HETATM   26  C   UNL     1      20.300  50.840  48.418  1.00  0.00     0.011 A 
HETATM   27 BR   UNL     1      18.930  52.141  48.377  1.00  0.00    -0.051 Br
HETATM   28  C   UNL     1      21.633  51.239  48.423  1.00  0.00     0.019 A 
HETATM   29  C   UNL     1      22.643  50.274  48.448  1.00  0.00     0.009 A 
ENDBRANCH  22  23
ENDBRANCH  19  22
ENDBRANCH   2  18
TORSDOF 6
ENDMDL
MODEL 2
REMARK VINA RESULT:      -9.2      3.598      9.866
REMARK  6 active torsions:
REMARK  status: ('A' for Active; 'I' for Inactive)
REMARK    1  A    between atoms: C_4  and  N_5 
REMARK    2  A    between atoms: C_7  and  C_8 
REMARK       I    between atoms: C_8  and  N_9 
REMARK    3  A    between atoms: N_9  and  N_10 
REMARK       I    between atoms: N_10  and  C_11 
REMARK    4  A    between atoms: C_11  and  C_12 
REMARK    5  A    between atoms: C_12  and  C_13 
REMARK    6  A    between atoms: C_22  and  O_23 
ROOT
HETATM    1  C   UNL     1      25.644  48.039  49.622  1.00  0.00     0.293 C 
HETATM    2  N   UNL     1      25.174  47.050  50.459  1.00  0.00    -0.262 N 
HETATM    3  O   UNL     1      26.832  48.170  49.327  1.00  0.00    -0.264 OA
HETATM    4  H   UNL     1      24.171  46.942  50.624  1.00  0.00     0.190 HD
ENDROOT
BRANCH   1   5
HETATM    5  C   UNL     1      24.603  48.926  49.105  1.00  0.00     0.181 A 
HETATM    6  N   UNL     1      23.340  48.918  49.570  1.00  0.00    -0.159 NA
HETATM    7  N   UNL     1      22.687  49.872  48.840  1.00  0.00    -0.242 N 
HETATM    8  C   UNL     1      23.526  50.473  47.927  1.00  0.00     0.158 A 
HETATM    9  C   UNL     1      24.748  49.884  48.084  1.00  0.00     0.119 A 
BRANCH   7  10
HETATM   10  C   UNL     1      21.307  50.142  49.067  1.00  0.00     0.058 A 
HETATM   11  C   UNL     1      20.457  49.103  49.479  1.00  0.00     0.031 A 
HETATM   12  C   UNL     1      19.102  49.350  49.708  1.00  0.00     0.002 A 
HETATM   13  C   UNL     1      18.584  50.629  49.525  1.00  0.00     0.000 A 
HETATM   14  C   UNL     1      19.420  51.666  49.115  1.00  0.00     0.002 A 
HETATM   15  C   UNL     1      20.778  51.428  48.885  1.00  0.00     0.031 A 
ENDBRANCH   7  10
BRANCH   9  16
HETATM   16  O   UNL     1      25.832  50.213  47.364  1.00  0.00    -0.357 OA
HETATM   17  H   UNL     1      25.817  49.740  46.506  1.00  0.00     0.218 HD
ENDBRANCH   9  16
ENDBRANCH   1   5
BRANCH   2  18
HETATM   18  N   UNL     1      26.049  46.091  50.974  1.00  0.00    -0.267 N 
HETATM   19  C   UNL     1      25.512  45.055  51.714  1.00  0.00     0.240 C 
HETATM   20  O   UNL     1      24.317  44.986  51.990  1.00  0.00    -0.272 OA
HETATM   21  H   UNL     1      26.985  46.058  50.573  1.00  0.00     0.190 HD
BRANCH  19  22
HETATM   22  C   UNL     1      26.524  44.014  52.153  1.00  0.00     0.143 C 
BRANCH  22  23
HETATM   23  C   UNL     1      27.410  44.395  53.320  1.00  0.00    -0.049 A 
HETATM   24  C   UNL     1      27.152  45.483  54.165  1.00  0.00     0.009 A 
HETATM   25  C   UNL     1      28.024  45.796  55.214  1.00  0.00     0.019 A 
HETATM   26  C   UNL     1      29.165  45.026  55.420  1.00  0.00     0.011 A 
HETATM   27 BR   UNL     1      30.348  45.456  56.831  1.00  0.00    -0.051 Br
HETATM   28  C   UNL     1      29.446  43.947  54.589  1.00  0.00     0.019 A 
HETATM   29  C   UNL     1      28.571  43.634  53.544  1.00  0.00     0.009 A 
ENDBRANCH  22  23
ENDBRANCH  19  22
ENDBRANCH   2  18
TORSDOF 6
ENDMDL
MODEL 3
REMARK VINA RESULT:      -9.2      1.726      2.532
REMARK  6 active torsions:
REMARK  status: ('A' for Active; 'I' for Inactive)
REMARK    1  A    between atoms: C_4  and  N_5 
REMARK    2  A    between atoms: C_7  and  C_8 
REMARK       I    between atoms: C_8  and  N_9 
REMARK    3  A    between atoms: N_9  and  N_10 
REMARK       I    between atoms: N_10  and  C_11 
REMARK    4  A    between atoms: C_11  and  C_12 
REMARK    5  A    between atoms: C_12  and  C_13 
REMARK    6  A    between atoms: C_22  and  O_23 
ROOT
HETATM    1  C   UNL     1      25.400  45.462  50.297  1.00  0.00     0.293 C 
HETATM    2  N   UNL     1      24.054  45.744  50.390  1.00  0.00    -0.262 N 
HETATM    3  O   UNL     1      26.093  45.776  49.329  1.00  0.00    -0.264 OA
HETATM    4  H   UNL     1      23.534  45.521  51.241  1.00  0.00     0.190 HD
ENDROOT
BRANCH   1   5
HETATM    5  C   UNL     1      25.943  44.756  51.457  1.00  0.00     0.181 A 
HETATM    6  N   UNL     1      27.042  45.169  52.114  1.00  0.00    -0.159 NA
HETATM    7  N   UNL     1      27.221  44.255  53.116  1.00  0.00    -0.242 N 
HETATM    8  C   UNL     1      26.248  43.280  53.089  1.00  0.00     0.158 A 
HETATM    9  C   UNL     1      25.427  43.585  52.042  1.00  0.00     0.119 A 
BRANCH   7  10
HETATM   10  C   UNL     1      28.309  44.380  54.027  1.00  0.00     0.058 A 
HETATM   11  C   UNL     1      29.268  43.357  54.103  1.00  0.00     0.031 A 
HETATM   12  C   UNL     1      30.342  43.464  54.989  1.00  0.00     0.002 A 
HETATM   13  C   UNL     1      30.467  44.585  55.804  1.00  0.00     0.000 A 
HETATM   14  C   UNL     1      29.519  45.605  55.736  1.00  0.00     0.002 A 
HETATM   15  C   UNL     1      28.441  45.507  54.851  1.00  0.00     0.031 A 
ENDBRANCH   7  10
BRANCH   9  16
HETATM   16  O   UNL     1      24.353  42.856  51.700  1.00  0.00    -0.357 OA
HETATM   17  H   UNL     1      24.638  42.012  51.295  1.00  0.00     0.218 HD
ENDBRANCH   9  16
ENDBRANCH   1   5
BRANCH   2  18
HETATM   18  N   UNL     1      23.417  46.472  49.383  1.00  0.00    -0.267 N 
HETATM   19  C   UNL     1      23.518  47.849  49.415  1.00  0.00     0.240 C 
HETATM   20  O   UNL     1      24.082  48.452  50.326  1.00  0.00    -0.272 OA
HETATM   21  H   UNL     1      23.134  45.957  48.550  1.00  0.00     0.190 HD
BRANCH  19  22
HETATM   22  C   UNL     1      22.875  48.549  48.234  1.00  0.00     0.143 C 
BRANCH  22  23
HETATM   23  C   UNL     1      21.709  49.461  48.552  1.00  0.00    -0.049 A 
HETATM   24  C   UNL     1      21.693  50.830  48.255  1.00  0.00     0.009 A 
HETATM   25  C   UNL     1      20.592  51.623  48.596  1.00  0.00     0.019 A 
HETATM   26  C   UNL     1      19.500  51.052  49.243  1.00  0.00     0.011 A 
HETATM   27 BR   UNL     1      18.017  52.126  49.713  1.00  0.00    -0.051 Br
HETATM   28  C   UNL     1      19.497  49.696  49.555  1.00  0.00     0.019 A 
HETATM   29  C   UNL     1      20.597  48.906  49.210  1.00  0.00     0.009 A 
ENDBRANCH  22  23
ENDBRANCH  19  22
ENDBRANCH   2  18
TORSDOF 6
ENDMDL
MODEL 4
REMARK VINA RESULT:      -9.1      2.116      3.424
REMARK  6 active torsions:
REMARK  status: ('A' for Active; 'I' for Inactive)
REMARK    1  A    between atoms: C_4  and  N_5 
REMARK    2  A    between atoms: C_7  and  C_8 
REMARK       I    between atoms: C_8  and  N_9 
REMARK    3  A    between atoms: N_9  and  N_10 
REMARK       I    between atoms: N_10  and  C_11 
REMARK    4  A    between atoms: C_11  and  C_12 
REMARK    5  A    between atoms: C_12  and  C_13 
REMARK    6  A    between atoms: C_22  and  O_23 
ROOT
HETATM    1  C   UNL     1      24.806  47.694  50.168  1.00  0.00     0.293 C 
HETATM    2  N   UNL     1      23.447  47.904  50.067  1.00  0.00    -0.262 N 
HETATM    3  O   UNL     1      25.648  48.499  49.770  1.00  0.00    -0.264 OA
HETATM    4  H   UNL     1      22.787  47.235  50.469  1.00  0.00     0.190 HD
ENDROOT
BRANCH   1   5
HETATM    5  C   UNL     1      25.167  46.424  50.796  1.00  0.00     0.181 A 
HETATM    6  N   UNL     1      26.337  46.232  51.433  1.00  0.00    -0.159 NA
HETATM    7  N   UNL     1      26.294  44.936  51.870  1.00  0.00    -0.242 N 
HETATM    8  C   UNL     1      25.115  44.321  51.511  1.00  0.00     0.158 A 
HETATM    9  C   UNL     1      24.387  45.253  50.830  1.00  0.00     0.119 A 
BRANCH   7  10
HETATM   10  C   UNL     1      27.385  44.379  52.598  1.00  0.00     0.058 A 
HETATM   11  C   UNL     1      27.615  44.789  53.921  1.00  0.00     0.031 A 
HETATM   12  C   UNL     1      28.678  44.251  54.649  1.00  0.00     0.002 A 
HETATM   13  C   UNL     1      29.519  43.307  54.066  1.00  0.00     0.000 A 
HETATM   14  C   UNL     1      29.298  42.895  52.753  1.00  0.00     0.002 A 
HETATM   15  C   UNL     1      28.235  43.427  52.017  1.00  0.00     0.031 A 
ENDBRANCH   7  10
BRANCH   9  16
HETATM   16  O   UNL     1      23.167  45.020  50.322  1.00  0.00    -0.357 OA
HETATM   17  H   UNL     1      23.030  44.057  50.214  1.00  0.00     0.218 HD
ENDBRANCH   9  16
ENDBRANCH   1   5
BRANCH   2  18
HETATM   18  N   UNL     1      22.958  49.104  49.547  1.00  0.00    -0.267 N 
HETATM   19  C   UNL     1      22.524  49.113  48.236  1.00  0.00     0.240 C 
HETATM   20  O   UNL     1      22.618  48.134  47.499  1.00  0.00    -0.272 OA
HETATM   21  H   UNL     1      22.709  49.830  50.218  1.00  0.00     0.190 HD
BRANCH  19  22
HETATM   22  C   UNL     1      21.926  50.432  47.787  1.00  0.00     0.143 C 
BRANCH  22  23
HETATM   23  C   UNL     1      20.463  50.647  48.112  1.00  0.00    -0.049 A 
HETATM   24  C   UNL     1      19.497  49.635  48.038  1.00  0.00     0.009 A 
HETATM   25  C   UNL     1      18.155  49.905  48.330  1.00  0.00     0.019 A 
HETATM   26  C   UNL     1      17.770  51.193  48.693  1.00  0.00     0.011 A 
HETATM   27 BR   UNL     1      15.956  51.559  49.078  1.00  0.00    -0.051 Br
HETATM   28  C   UNL     1      18.711  52.215  48.766  1.00  0.00     0.019 A 
HETATM   29  C   UNL     1      20.051  51.941  48.476  1.00  0.00     0.009 A 
ENDBRANCH  22  23
ENDBRANCH  19  22
ENDBRANCH   2  18
TORSDOF 6
ENDMDL
MODEL 5
REMARK VINA RESULT:      -9.0      2.051      3.479
REMARK  6 active torsions:
REMARK  status: ('A' for Active; 'I' for Inactive)
REMARK    1  A    between atoms: C_4  and  N_5 
REMARK    2  A    between atoms: C_7  and  C_8 
REMARK       I    between atoms: C_8  and  N_9 
REMARK    3  A    between atoms: N_9  and  N_10 
REMARK       I    between atoms: N_10  and  C_11 
REMARK    4  A    between atoms: C_11  and  C_12 
REMARK    5  A    between atoms: C_12  and  C_13 
REMARK    6  A    between atoms: C_22  and  O_23 
ROOT
HETATM    1  C   UNL     1      24.531  47.908  49.863  1.00  0.00     0.293 C 
HETATM    2  N   UNL     1      23.165  48.074  49.781  1.00  0.00    -0.262 N 
HETATM    3  O   UNL     1      25.331  48.501  49.140  1.00  0.00    -0.264 OA
HETATM    4  H   UNL     1      22.544  47.608  50.446  1.00  0.00     0.190 HD
ENDROOT
BRANCH   1   5
HETATM    5  C   UNL     1      24.955  46.962  50.895  1.00  0.00     0.181 A 
HETATM    6  N   UNL     1      25.886  47.260  51.820  1.00  0.00    -0.159 NA
HETATM    7  N   UNL     1      26.000  46.132  52.585  1.00  0.00    -0.242 N 
HETATM    8  C   UNL     1      25.154  45.137  52.147  1.00  0.00     0.158 A 
HETATM    9  C   UNL     1      24.481  45.650  51.075  1.00  0.00     0.119 A 
BRANCH   7  10
HETATM   10  C   UNL     1      26.911  46.085  53.679  1.00  0.00     0.058 A 
HETATM   11  C   UNL     1      27.664  44.921  53.903  1.00  0.00     0.031 A 
HETATM   12  C   UNL     1      28.563  44.859  54.970  1.00  0.00     0.002 A 
HETATM   13  C   UNL     1      28.717  45.952  55.820  1.00  0.00     0.000 A 
HETATM   14  C   UNL     1      27.972  47.111  55.604  1.00  0.00     0.002 A 
HETATM   15  C   UNL     1      27.071  47.182  54.538  1.00  0.00     0.031 A 
ENDBRANCH   7  10
BRANCH   9  16
HETATM   16  O   UNL     1      23.557  44.968  50.380  1.00  0.00    -0.357 OA
HETATM   17  H   UNL     1      23.366  45.431  49.538  1.00  0.00     0.218 HD
ENDBRANCH   9  16
ENDBRANCH   1   5
BRANCH   2  18
HETATM   18  N   UNL     1      22.621  48.995  48.884  1.00  0.00    -0.267 N 
HETATM   19  C   UNL     1      22.356  50.270  49.345  1.00  0.00     0.240 C 
HETATM   20  O   UNL     1      22.513  50.597  50.519  1.00  0.00    -0.272 OA
HETATM   21  H   UNL     1      22.687  48.767  47.892  1.00  0.00     0.190 HD
BRANCH  19  22
HETATM   22  C   UNL     1      21.856  51.226  48.279  1.00  0.00     0.143 C 
BRANCH  22  23
HETATM   23  C   UNL     1      20.359  51.251  48.055  1.00  0.00    -0.049 A 
HETATM   24  C   UNL     1      19.709  50.477  47.085  1.00  0.00     0.009 A 
HETATM   25  C   UNL     1      18.323  50.565  46.912  1.00  0.00     0.019 A 
HETATM   26  C   UNL     1      17.578  51.433  47.706  1.00  0.00     0.011 A 
HETATM   27 BR   UNL     1      15.707  51.557  47.465  1.00  0.00    -0.051 Br
HETATM   28  C   UNL     1      18.204  52.216  48.670  1.00  0.00     0.019 A 
HETATM   29  C   UNL     1      19.588  52.125  48.842  1.00  0.00     0.009 A 
ENDBRANCH  22  23
ENDBRANCH  19  22
ENDBRANCH   2  18
TORSDOF 6
ENDMDL
MODEL 6
REMARK VINA RESULT:      -8.9      1.957      2.950
REMARK  6 active torsions:
REMARK  status: ('A' for Active; 'I' for Inactive)
REMARK    1  A    between atoms: C_4  and  N_5 
REMARK    2  A    between atoms: C_7  and  C_8 
REMARK       I    between atoms: C_8  and  N_9 
REMARK    3  A    between atoms: N_9  and  N_10 
REMARK       I    between atoms: N_10  and  C_11 
REMARK    4  A    between atoms: C_11  and  C_12 
REMARK    5  A    between atoms: C_12  and  C_13 
REMARK    6  A    between atoms: C_22  and  O_23 
ROOT
HETATM    1  C   UNL     1      26.982  44.430  50.609  1.00  0.00     0.293 C 
HETATM    2  N   UNL     1      26.506  45.708  50.810  1.00  0.00    -0.262 N 
HETATM    3  O   UNL     1      26.976  43.869  49.514  1.00  0.00    -0.264 OA
HETATM    4  H   UNL     1      26.590  46.157  51.725  1.00  0.00     0.190 HD
ENDROOT
BRANCH   1   5
HETATM    5  C   UNL     1      27.505  43.793  51.817  1.00  0.00     0.181 A 
HETATM    6  N   UNL     1      28.292  44.435  52.699  1.00  0.00    -0.159 NA
HETATM    7  N   UNL     1      28.566  43.511  53.670  1.00  0.00    -0.242 N 
HETATM    8  C   UNL     1      27.960  42.303  53.402  1.00  0.00     0.158 A 
HETATM    9  C   UNL     1      27.280  42.466  52.229  1.00  0.00     0.119 A 
BRANCH   7  10
HETATM   10  C   UNL     1      29.387  43.849  54.783  1.00  0.00     0.058 A 
HETATM   11  C   UNL     1      29.186  45.070  55.446  1.00  0.00     0.031 A 
HETATM   12  C   UNL     1      29.981  45.416  56.541  1.00  0.00     0.002 A 
HETATM   13  C   UNL     1      30.981  44.552  56.980  1.00  0.00     0.000 A 
HETATM   14  C   UNL     1      31.188  43.338  56.327  1.00  0.00     0.002 A 
HETATM   15  C   UNL     1      30.396  42.983  55.231  1.00  0.00     0.031 A 
ENDBRANCH   7  10
BRANCH   9  16
HETATM   16  O   UNL     1      26.558  41.497  51.645  1.00  0.00    -0.357 OA
HETATM   17  H   UNL     1      25.933  41.890  51.001  1.00  0.00     0.218 HD
ENDBRANCH   9  16
ENDBRANCH   1   5
BRANCH   2  18
HETATM   18  N   UNL     1      26.036  46.461  49.732  1.00  0.00    -0.267 N 
HETATM   19  C   UNL     1      25.227  47.547  50.003  1.00  0.00     0.240 C 
HETATM   20  O   UNL     1      24.852  47.829  51.139  1.00  0.00    -0.272 OA
HETATM   21  H   UNL     1      26.511  46.333  48.839  1.00  0.00     0.190 HD
BRANCH  19  22
HETATM   22  C   UNL     1      24.842  48.357  48.780  1.00  0.00     0.143 C 
BRANCH  22  23
HETATM   23  C   UNL     1      23.558  49.153  48.883  1.00  0.00    -0.049 A 
HETATM   24  C   UNL     1      23.511  50.553  48.856  1.00  0.00     0.009 A 
HETATM   25  C   UNL     1      22.293  51.229  48.979  1.00  0.00     0.019 A 
HETATM   26  C   UNL     1      21.112  50.509  49.137  1.00  0.00     0.011 A 
HETATM   27 BR   UNL     1      19.468  51.425  49.313  1.00  0.00    -0.051 Br
HETATM   28  C   UNL     1      21.136  49.119  49.175  1.00  0.00     0.019 A 
HETATM   29  C   UNL     1      22.354  48.445  49.049  1.00  0.00     0.009 A 
ENDBRANCH  22  23
ENDBRANCH  19  22
ENDBRANCH   2  18
TORSDOF 6
ENDMDL
MODEL 7
REMARK VINA RESULT:      -8.9      3.699      9.943
REMARK  6 active torsions:
REMARK  status: ('A' for Active; 'I' for Inactive)
REMARK    1  A    between atoms: C_4  and  N_5 
REMARK    2  A    between atoms: C_7  and  C_8 
REMARK       I    between atoms: C_8  and  N_9 
REMARK    3  A    between atoms: N_9  and  N_10 
REMARK       I    between atoms: N_10  and  C_11 
REMARK    4  A    between atoms: C_11  and  C_12 
REMARK    5  A    between atoms: C_12  and  C_13 
REMARK    6  A    between atoms: C_22  and  O_23 
ROOT
HETATM    1  C   UNL     1      26.002  46.187  51.006  1.00  0.00     0.293 C 
HETATM    2  N   UNL     1      26.559  44.975  50.655  1.00  0.00    -0.262 N 
HETATM    3  O   UNL     1      26.445  46.901  51.905  1.00  0.00    -0.264 OA
HETATM    4  H   UNL     1      26.195  44.447  49.859  1.00  0.00     0.190 HD
ENDROOT
BRANCH   1   5
HETATM    5  C   UNL     1      24.832  46.557  50.210  1.00  0.00     0.181 A 
HETATM    6  N   UNL     1      24.325  47.804  50.196  1.00  0.00    -0.159 NA
HETATM    7  N   UNL     1      23.253  47.740  49.348  1.00  0.00    -0.242 N 
HETATM    8  C   UNL     1      23.087  46.472  48.838  1.00  0.00     0.158 A 
HETATM    9  C   UNL     1      24.084  45.708  49.374  1.00  0.00     0.119 A 
BRANCH   7  10
HETATM   10  C   UNL     1      22.463  48.897  49.089  1.00  0.00     0.058 A 
HETATM   11  C   UNL     1      23.097  50.119  48.809  1.00  0.00     0.031 A 
HETATM   12  C   UNL     1      22.338  51.262  48.550  1.00  0.00     0.002 A 
HETATM   13  C   UNL     1      20.947  51.198  48.570  1.00  0.00     0.000 A 
HETATM   14  C   UNL     1      20.311  49.990  48.848  1.00  0.00     0.002 A 
HETATM   15  C   UNL     1      21.062  48.840  49.107  1.00  0.00     0.031 A 
ENDBRANCH   7  10
BRANCH   9  16
HETATM   16  O   UNL     1      24.251  44.404  49.104  1.00  0.00    -0.357 OA
HETATM   17  H   UNL     1      24.537  43.931  49.913  1.00  0.00     0.218 HD
ENDBRANCH   9  16
ENDBRANCH   1   5
BRANCH   2  18
HETATM   18  N   UNL     1      27.720  44.525  51.287  1.00  0.00    -0.267 N 
HETATM   19  C   UNL     1      27.590  43.569  52.276  1.00  0.00     0.240 C 
HETATM   20  O   UNL     1      26.499  43.157  52.662  1.00  0.00    -0.272 OA
HETATM   21  H   UNL     1      28.605  44.727  50.824  1.00  0.00     0.190 HD
BRANCH  19  22
HETATM   22  C   UNL     1      28.908  43.075  52.840  1.00  0.00     0.143 C 
BRANCH  22  23
HETATM   23  C   UNL     1      29.381  43.743  54.114  1.00  0.00    -0.049 A 
HETATM   24  C   UNL     1      30.495  43.311  54.847  1.00  0.00     0.009 A 
HETATM   25  C   UNL     1      30.866  43.959  56.030  1.00  0.00     0.019 A 
HETATM   26  C   UNL     1      30.121  45.041  56.492  1.00  0.00     0.011 A 
HETATM   27 BR   UNL     1      30.618  45.908  58.096  1.00  0.00    -0.051 Br
HETATM   28  C   UNL     1      29.007  45.481  55.785  1.00  0.00     0.019 A 
HETATM   29  C   UNL     1      28.640  44.834  54.602  1.00  0.00     0.009 A 
ENDBRANCH  22  23
ENDBRANCH  19  22
ENDBRANCH   2  18
TORSDOF 6
ENDMDL
MODEL 8
REMARK VINA RESULT:      -8.9      1.803      2.390
REMARK  6 active torsions:
REMARK  status: ('A' for Active; 'I' for Inactive)
REMARK    1  A    between atoms: C_4  and  N_5 
REMARK    2  A    between atoms: C_7  and  C_8 
REMARK       I    between atoms: C_8  and  N_9 
REMARK    3  A    between atoms: N_9  and  N_10 
REMARK       I    between atoms: N_10  and  C_11 
REMARK    4  A    between atoms: C_11  and  C_12 
REMARK    5  A    between atoms: C_12  and  C_13 
REMARK    6  A    between atoms: C_22  and  O_23 
ROOT
HETATM    1  C   UNL     1      25.336  46.580  52.218  1.00  0.00     0.293 C 
HETATM    2  N   UNL     1      24.917  45.333  51.806  1.00  0.00    -0.262 N 
HETATM    3  O   UNL     1      24.972  47.628  51.685  1.00  0.00    -0.264 OA
HETATM    4  H   UNL     1      25.195  44.495  52.320  1.00  0.00     0.190 HD
ENDROOT
BRANCH   1   5
HETATM    5  C   UNL     1      26.254  46.553  53.356  1.00  0.00     0.181 A 
HETATM    6  N   UNL     1      27.204  45.612  53.505  1.00  0.00    -0.159 NA
HETATM    7  N   UNL     1      27.838  45.930  54.675  1.00  0.00    -0.242 N 
HETATM    8  C   UNL     1      27.293  47.054  55.256  1.00  0.00     0.158 A 
HETATM    9  C   UNL     1      26.287  47.464  54.429  1.00  0.00     0.119 A 
BRANCH   7  10
HETATM   10  C   UNL     1      28.918  45.134  55.155  1.00  0.00     0.058 A 
HETATM   11  C   UNL     1      29.228  43.927  54.509  1.00  0.00     0.031 A 
HETATM   12  C   UNL     1      30.285  43.136  54.965  1.00  0.00     0.002 A 
HETATM   13  C   UNL     1      31.037  43.540  56.066  1.00  0.00     0.000 A 
HETATM   14  C   UNL     1      30.735  44.737  56.713  1.00  0.00     0.002 A 
HETATM   15  C   UNL     1      29.679  45.535  56.262  1.00  0.00     0.031 A 
ENDBRANCH   7  10
BRANCH   9  16
HETATM   16  O   UNL     1      25.521  48.541  54.664  1.00  0.00    -0.357 OA
HETATM   17  H   UNL     1      25.256  48.561  55.606  1.00  0.00     0.218 HD
ENDBRANCH   9  16
ENDBRANCH   1   5
BRANCH   2  18
HETATM   18  N   UNL     1      23.987  45.211  50.771  1.00  0.00    -0.267 N 
HETATM   19  C   UNL     1      24.465  45.011  49.491  1.00  0.00     0.240 C 
HETATM   20  O   UNL     1      25.665  45.008  49.223  1.00  0.00    -0.272 OA
HETATM   21  H   UNL     1      23.022  45.020  51.038  1.00  0.00     0.190 HD
BRANCH  19  22
HETATM   22  C   UNL     1      23.384  44.798  48.449  1.00  0.00     0.143 C 
BRANCH  22  23
HETATM   23  C   UNL     1      22.229  45.777  48.475  1.00  0.00    -0.049 A 
HETATM   24  C   UNL     1      22.392  47.167  48.417  1.00  0.00     0.009 A 
HETATM   25  C   UNL     1      21.282  48.018  48.468  1.00  0.00     0.019 A 
HETATM   26  C   UNL     1      20.002  47.484  48.584  1.00  0.00     0.011 A 
HETATM   27 BR   UNL     1      18.506  48.636  48.664  1.00  0.00    -0.051 Br
HETATM   28  C   UNL     1      19.818  46.107  48.651  1.00  0.00     0.019 A 
HETATM   29  C   UNL     1      20.927  45.259  48.596  1.00  0.00     0.009 A 
ENDBRANCH  22  23
ENDBRANCH  19  22
ENDBRANCH   2  18
TORSDOF 6
ENDMDL
MODEL 9
REMARK VINA RESULT:      -8.4      2.651      3.590
REMARK  6 active torsions:
REMARK  status: ('A' for Active; 'I' for Inactive)
REMARK    1  A    between atoms: C_4  and  N_5 
REMARK    2  A    between atoms: C_7  and  C_8 
REMARK       I    between atoms: C_8  and  N_9 
REMARK    3  A    between atoms: N_9  and  N_10 
REMARK       I    between atoms: N_10  and  C_11 
REMARK    4  A    between atoms: C_11  and  C_12 
REMARK    5  A    between atoms: C_12  and  C_13 
REMARK    6  A    between atoms: C_22  and  O_23 
ROOT
HETATM    1  C   UNL     1      27.055  43.805  50.823  1.00  0.00     0.293 C 
HETATM    2  N   UNL     1      25.760  43.371  50.630  1.00  0.00    -0.262 N 
HETATM    3  O   UNL     1      27.643  44.552  50.041  1.00  0.00    -0.264 OA
HETATM    4  H   UNL     1      25.292  42.803  51.339  1.00  0.00     0.190 HD
ENDROOT
BRANCH   1   5
HETATM    5  C   UNL     1      27.675  43.303  52.048  1.00  0.00     0.181 A 
HETATM    6  N   UNL     1      28.374  44.089  52.888  1.00  0.00    -0.159 NA
HETATM    7  N   UNL     1      28.785  43.257  53.893  1.00  0.00    -0.242 N 
HETATM    8  C   UNL     1      28.353  41.965  53.688  1.00  0.00     0.158 A 
HETATM    9  C   UNL     1      27.644  41.977  52.521  1.00  0.00     0.119 A 
BRANCH   7  10
HETATM   10  C   UNL     1      29.563  43.756  54.976  1.00  0.00     0.058 A 
HETATM   11  C   UNL     1      29.268  45.019  55.515  1.00  0.00     0.031 A 
HETATM   12  C   UNL     1      30.019  45.523  56.579  1.00  0.00     0.002 A 
HETATM   13  C   UNL     1      31.068  44.777  57.110  1.00  0.00     0.000 A 
HETATM   14  C   UNL     1      31.369  43.524  56.580  1.00  0.00     0.002 A 
HETATM   15  C   UNL     1      30.621  43.010  55.516  1.00  0.00     0.031 A 
ENDBRANCH   7  10
BRANCH   9  16
HETATM   16  O   UNL     1      27.059  40.891  51.993  1.00  0.00    -0.357 OA
HETATM   17  H   UNL     1      27.741  40.236  51.738  1.00  0.00     0.218 HD
ENDBRANCH   9  16
ENDBRANCH   1   5
BRANCH   2  18
HETATM   18  N   UNL     1      25.023  43.824  49.534  1.00  0.00    -0.267 N 
HETATM   19  C   UNL     1      23.718  44.221  49.750  1.00  0.00     0.240 C 
HETATM   20  O   UNL     1      23.167  44.124  50.845  1.00  0.00    -0.272 OA
HETATM   21  H   UNL     1      25.549  44.079  48.699  1.00  0.00     0.190 HD
BRANCH  19  22
HETATM   22  C   UNL     1      23.027  44.783  48.523  1.00  0.00     0.143 C 
BRANCH  22  23
HETATM   23  C   UNL     1      22.687  46.258  48.565  1.00  0.00    -0.049 A 
HETATM   24  C   UNL     1      21.540  46.805  47.976  1.00  0.00     0.009 A 
HETATM   25  C   UNL     1      21.296  48.182  48.031  1.00  0.00     0.019 A 
HETATM   26  C   UNL     1      22.203  49.023  48.670  1.00  0.00     0.011 A 
HETATM   27 BR   UNL     1      21.877  50.884  48.734  1.00  0.00    -0.051 Br
HETATM   28  C   UNL     1      23.353  48.503  49.254  1.00  0.00     0.019 A 
HETATM   29  C   UNL     1      23.593  47.127  49.201  1.00  0.00     0.009 A 
ENDBRANCH  22  23
ENDBRANCH  19  22
ENDBRANCH   2  18
TORSDOF 6
ENDMDL
MODEL 10
REMARK VINA RESULT:      -8.0      5.723      7.357
REMARK  6 active torsions:
REMARK  status: ('A' for Active; 'I' for Inactive)
REMARK    1  A    between atoms: C_4  and  N_5 
REMARK    2  A    between atoms: C_7  and  C_8 
REMARK       I    between atoms: C_8  and  N_9 
REMARK    3  A    between atoms: N_9  and  N_10 
REMARK       I    between atoms: N_10  and  C_11 
REMARK    4  A    between atoms: C_11  and  C_12 
REMARK    5  A    between atoms: C_12  and  C_13 
REMARK    6  A    between atoms: C_22  and  O_23 
ROOT
HETATM    1  C   UNL     1      25.557  44.370  52.717  1.00  0.00     0.293 C 
HETATM    2  N   UNL     1      26.161  43.210  52.281  1.00  0.00    -0.262 N 
HETATM    3  O   UNL     1      24.427  44.717  52.372  1.00  0.00    -0.264 OA
HETATM    4  H   UNL     1      27.075  42.932  52.645  1.00  0.00     0.190 HD
ENDROOT
BRANCH   1   5
HETATM    5  C   UNL     1      26.376  45.159  53.636  1.00  0.00     0.181 A 
HETATM    6  N   UNL     1      27.323  44.614  54.421  1.00  0.00    -0.159 NA
HETATM    7  N   UNL     1      27.850  45.664  55.122  1.00  0.00    -0.242 N 
HETATM    8  C   UNL     1      27.243  46.853  54.784  1.00  0.00     0.158 A 
HETATM    9  C   UNL     1      26.305  46.550  53.839  1.00  0.00     0.119 A 
BRANCH   7  10
HETATM   10  C   UNL     1      28.897  45.455  56.065  1.00  0.00     0.058 A 
HETATM   11  C   UNL     1      29.962  44.600  55.739  1.00  0.00     0.031 A 
HETATM   12  C   UNL     1      30.998  44.385  56.651  1.00  0.00     0.002 A 
HETATM   13  C   UNL     1      30.978  45.016  57.892  1.00  0.00     0.000 A 
HETATM   14  C   UNL     1      29.924  45.865  58.224  1.00  0.00     0.002 A 
HETATM   15  C   UNL     1      28.884  46.087  57.317  1.00  0.00     0.031 A 
ENDBRANCH   7  10
BRANCH   9  16
HETATM   16  O   UNL     1      25.506  47.462  53.262  1.00  0.00    -0.357 OA
HETATM   17  H   UNL     1      25.847  47.686  52.371  1.00  0.00     0.218 HD
ENDBRANCH   9  16
ENDBRANCH   1   5
BRANCH   2  18
HETATM   18  N   UNL     1      25.469  42.326  51.450  1.00  0.00    -0.267 N 
HETATM   19  C   UNL     1      25.862  42.237  50.129  1.00  0.00     0.240 C 
HETATM   20  O   UNL     1      26.741  42.950  49.648  1.00  0.00    -0.272 OA
HETATM   21  H   UNL     1      24.895  41.619  51.907  1.00  0.00     0.190 HD
BRANCH  19  22
HETATM   22  C   UNL     1      25.117  41.188  49.328  1.00  0.00     0.143 C 
BRANCH  22  23
HETATM   23  C   UNL     1      25.971  40.222  48.534  1.00  0.00    -0.049 A 
HETATM   24  C   UNL     1      26.046  40.225  47.135  1.00  0.00     0.009 A 
HETATM   25  C   UNL     1      26.838  39.289  46.460  1.00  0.00     0.019 A 
HETATM   26  C   UNL     1      27.556  38.339  47.181  1.00  0.00     0.011 A 
HETATM   27 BR   UNL     1      28.617  37.069  46.267  1.00  0.00    -0.051 Br
HETATM   28  C   UNL     1      27.490  38.312  48.570  1.00  0.00     0.019 A 
HETATM   29  C   UNL     1      26.701  39.250  49.242  1.00  0.00     0.009 A 
ENDBRANCH  22  23
ENDBRANCH  19  22
ENDBRANCH   2  18
TORSDOF 6
ENDMDL
