MODEL 1
REMARK VINA RESULT:      -9.5      0.000      0.000
REMARK  5 active torsions:
REMARK  status: ('A' for Active; 'I' for Inactive)
REMARK    1  A    between atoms: C_6  and  C_7 
REMARK    2  A    between atoms: C_7  and  C_8 
REMARK       I    between atoms: C_8  and  N_9 
REMARK    3  A    between atoms: N_9  and  N_10 
REMARK       I    between atoms: N_10  and  C_11 
REMARK    4  A    between atoms: C_11  and  C_12 
REMARK    5  A    between atoms: C_12  and  C_13 
ROOT
HETATM    1  C   UNL     1      24.581  47.191  50.301  1.00  0.00     0.243 C 
HETATM    2  N   UNL     1      23.381  47.523  49.714  1.00  0.00    -0.267 N 
HETATM    3  O   UNL     1      25.549  47.952  50.308  1.00  0.00    -0.271 OA
HETATM    4  H   UNL     1      22.540  46.946  49.813  1.00  0.00     0.190 HD
ENDROOT
BRANCH   1   5
HETATM    5  C   UNL     1      24.603  45.861  51.010  1.00  0.00     0.183 C 
BRANCH   5   6
HETATM    6  C   UNL     1      25.620  45.766  52.113  1.00  0.00     0.116 A 
HETATM    7  N   UNL     1      26.523  44.835  52.084  1.00  0.00    -0.227 NA
HETATM    8  C   UNL     1      27.378  44.839  53.141  1.00  0.00     0.116 A 
HETATM    9  C   UNL     1      27.355  45.695  54.222  1.00  0.00     0.075 A 
HETATM   10  S   UNL     1      28.651  43.719  53.253  1.00  0.00    -0.074 SA
HETATM   11  C   UNL     1      28.397  45.421  55.177  1.00  0.00    -0.031 A 
HETATM   12  C   UNL     1      26.318  46.708  54.239  1.00  0.00     0.260 A 
HETATM   13  C   UNL     1      28.596  46.180  56.450  1.00  0.00     0.050 C 
HETATM   14  C   UNL     1      29.176  44.351  54.755  1.00  0.00    -0.012 A 
HETATM   15  C   UNL     1      30.354  43.735  55.438  1.00  0.00     0.057 C 
HETATM   16  N   UNL     1      25.500  46.688  53.130  1.00  0.00    -0.310 N 
HETATM   17  O   UNL     1      26.149  47.519  55.144  1.00  0.00    -0.267 OA
HETATM   18  H   UNL     1      24.774  47.391  53.127  1.00  0.00     0.170 HD
ENDBRANCH   5   6
ENDBRANCH   1   5
BRANCH   2  19
HETATM   19  N   UNL     1      23.194  48.848  49.295  1.00  0.00    -0.267 N 
HETATM   20  C   UNL     1      22.434  49.044  48.153  1.00  0.00     0.240 C 
HETATM   21  O   UNL     1      22.110  48.122  47.407  1.00  0.00    -0.272 OA
HETATM   22  H   UNL     1      23.200  49.540  50.044  1.00  0.00     0.190 HD
BRANCH  20  23
HETATM   23  C   UNL     1      22.076  50.498  47.902  1.00  0.00     0.148 C 
BRANCH  23  24
HETATM   24  C   UNL     1      20.679  50.843  48.351  1.00  0.00     0.011 A 
HETATM   25  C   UNL     1      20.368  51.164  49.681  1.00  0.00     0.043 A 
HETATM   26 CL   UNL     1      21.587  51.224  50.905  1.00  0.00    -0.084 Cl
HETATM   27  C   UNL     1      19.052  51.456  50.059  1.00  0.00     0.024 A 
HETATM   28  C   UNL     1      18.026  51.428  49.115  1.00  0.00     0.005 A 
HETATM   29  C   UNL     1      18.318  51.107  47.793  1.00  0.00     0.043 A 
HETATM   30  C   UNL     1      19.630  50.817  47.426  1.00  0.00     0.124 A 
HETATM   31  F   UNL     1      19.880  50.519  46.143  1.00  0.00    -0.205 F 
ENDBRANCH  23  24
ENDBRANCH  20  23
ENDBRANCH   2  19
TORSDOF 5
ENDMDL
MODEL 2
REMARK VINA RESULT:      -9.3      4.159     10.229
REMARK  5 active torsions:
REMARK  status: ('A' for Active; 'I' for Inactive)
REMARK    1  A    between atoms: C_6  and  C_7 
REMARK    2  A    between atoms: C_7  and  C_8 
REMARK       I    between atoms: C_8  and  N_9 
REMARK    3  A    between atoms: N_9  and  N_10 
REMARK       I    between atoms: N_10  and  C_11 
REMARK    4  A    between atoms: C_11  and  C_12 
REMARK    5  A    between atoms: C_12  and  C_13 
ROOT
HETATM    1  C   UNL     1      25.253  46.713  51.480  1.00  0.00     0.243 C 
HETATM    2  N   UNL     1      25.170  45.339  51.492  1.00  0.00    -0.267 N 
HETATM    3  O   UNL     1      25.343  47.381  52.510  1.00  0.00    -0.271 OA
HETATM    4  H   UNL     1      25.219  44.776  50.638  1.00  0.00     0.190 HD
ENDROOT
BRANCH   1   5
HETATM    5  C   UNL     1      25.309  47.341  50.111  1.00  0.00     0.183 C 
BRANCH   5   6
HETATM    6  C   UNL     1      23.994  47.889  49.629  1.00  0.00     0.116 A 
HETATM    7  N   UNL     1      23.748  49.159  49.722  1.00  0.00    -0.227 NA
HETATM    8  C   UNL     1      22.524  49.536  49.269  1.00  0.00     0.116 A 
HETATM    9  C   UNL     1      21.539  48.715  48.762  1.00  0.00     0.075 A 
HETATM   10  S   UNL     1      22.042  51.166  49.274  1.00  0.00    -0.074 SA
HETATM   11  C   UNL     1      20.350  49.433  48.381  1.00  0.00    -0.031 A 
HETATM   12  C   UNL     1      21.833  47.297  48.695  1.00  0.00     0.260 A 
HETATM   13  C   UNL     1      19.120  48.793  47.821  1.00  0.00     0.050 C 
HETATM   14  C   UNL     1      20.505  50.793  48.618  1.00  0.00    -0.012 A 
HETATM   15  C   UNL     1      19.526  51.895  48.372  1.00  0.00     0.057 C 
HETATM   16  N   UNL     1      23.099  46.968  49.130  1.00  0.00    -0.310 N 
HETATM   17  O   UNL     1      21.049  46.440  48.299  1.00  0.00    -0.267 OA
HETATM   18  H   UNL     1      23.319  45.983  49.085  1.00  0.00     0.170 HD
ENDBRANCH   5   6
ENDBRANCH   1   5
BRANCH   2  19
HETATM   19  N   UNL     1      25.405  44.673  52.704  1.00  0.00    -0.267 N 
HETATM   20  C   UNL     1      26.681  44.171  52.907  1.00  0.00     0.240 C 
HETATM   21  O   UNL     1      27.518  44.106  52.008  1.00  0.00    -0.272 OA
HETATM   22  H   UNL     1      24.840  44.997  53.489  1.00  0.00     0.190 HD
BRANCH  20  23
HETATM   23  C   UNL     1      26.926  43.684  54.324  1.00  0.00     0.148 C 
BRANCH  23  24
HETATM   24  C   UNL     1      28.311  44.007  54.822  1.00  0.00     0.011 A 
HETATM   25  C   UNL     1      28.655  45.261  55.347  1.00  0.00     0.043 A 
HETATM   26 CL   UNL     1      27.490  46.529  55.497  1.00  0.00    -0.084 Cl
HETATM   27  C   UNL     1      29.961  45.524  55.778  1.00  0.00     0.024 A 
HETATM   28  C   UNL     1      30.944  44.539  55.687  1.00  0.00     0.005 A 
HETATM   29  C   UNL     1      30.619  43.291  55.165  1.00  0.00     0.043 A 
HETATM   30  C   UNL     1      29.318  43.038  54.738  1.00  0.00     0.124 A 
HETATM   31  F   UNL     1      29.034  41.824  54.246  1.00  0.00    -0.205 F 
ENDBRANCH  23  24
ENDBRANCH  20  23
ENDBRANCH   2  19
TORSDOF 5
ENDMDL
MODEL 3
REMARK VINA RESULT:      -9.1      4.311     10.392
REMARK  5 active torsions:
REMARK  status: ('A' for Active; 'I' for Inactive)
REMARK    1  A    between atoms: C_6  and  C_7 
REMARK    2  A    between atoms: C_7  and  C_8 
REMARK       I    between atoms: C_8  and  N_9 
REMARK    3  A    between atoms: N_9  and  N_10 
REMARK       I    between atoms: N_10  and  C_11 
REMARK    4  A    between atoms: C_11  and  C_12 
REMARK    5  A    between atoms: C_12  and  C_13 
ROOT
HETATM    1  C   UNL     1      25.105  46.456  50.726  1.00  0.00     0.243 C 
HETATM    2  N   UNL     1      26.132  46.639  51.625  1.00  0.00    -0.267 N 
HETATM    3  O   UNL     1      24.275  45.553  50.842  1.00  0.00    -0.271 OA
HETATM    4  H   UNL     1      26.747  47.458  51.601  1.00  0.00     0.190 HD
ENDROOT
BRANCH   1   5
HETATM    5  C   UNL     1      25.017  47.489  49.632  1.00  0.00     0.183 C 
BRANCH   5   6
HETATM    6  C   UNL     1      23.625  47.996  49.372  1.00  0.00     0.116 A 
HETATM    7  N   UNL     1      23.356  49.256  49.516  1.00  0.00    -0.227 NA
HETATM    8  C   UNL     1      22.064  49.594  49.268  1.00  0.00     0.116 A 
HETATM    9  C   UNL     1      21.038  48.743  48.916  1.00  0.00     0.075 A 
HETATM   10  S   UNL     1      21.536  51.207  49.368  1.00  0.00    -0.074 SA
HETATM   11  C   UNL     1      19.781  49.422  48.736  1.00  0.00    -0.031 A 
HETATM   12  C   UNL     1      21.363  47.336  48.787  1.00  0.00     0.260 A 
HETATM   13  C   UNL     1      18.499  48.744  48.372  1.00  0.00     0.050 C 
HETATM   14  C   UNL     1      19.927  50.786  48.960  1.00  0.00    -0.012 A 
HETATM   15  C   UNL     1      18.886  51.855  48.885  1.00  0.00     0.057 C 
HETATM   16  N   UNL     1      22.692  47.048  49.012  1.00  0.00    -0.310 N 
HETATM   17  O   UNL     1      20.555  46.455  48.512  1.00  0.00    -0.267 OA
HETATM   18  H   UNL     1      22.934  46.071  48.922  1.00  0.00     0.170 HD
ENDBRANCH   5   6
ENDBRANCH   1   5
BRANCH   2  19
HETATM   19  N   UNL     1      26.106  45.902  52.817  1.00  0.00    -0.267 N 
HETATM   20  C   UNL     1      26.937  44.796  52.891  1.00  0.00     0.240 C 
HETATM   21  O   UNL     1      27.514  44.335  51.907  1.00  0.00    -0.272 OA
HETATM   22  H   UNL     1      25.882  46.444  53.653  1.00  0.00     0.190 HD
BRANCH  20  23
HETATM   23  C   UNL     1      27.034  44.197  54.282  1.00  0.00     0.148 C 
BRANCH  23  24
HETATM   24  C   UNL     1      28.434  44.235  54.839  1.00  0.00     0.011 A 
HETATM   25  C   UNL     1      29.344  43.181  54.676  1.00  0.00     0.043 A 
HETATM   26 CL   UNL     1      28.932  41.761  53.779  1.00  0.00    -0.084 Cl
HETATM   27  C   UNL     1      30.628  43.250  55.230  1.00  0.00     0.024 A 
HETATM   28  C   UNL     1      31.021  44.371  55.960  1.00  0.00     0.005 A 
HETATM   29  C   UNL     1      30.127  45.424  56.134  1.00  0.00     0.043 A 
HETATM   30  C   UNL     1      28.852  45.347  55.579  1.00  0.00     0.124 A 
HETATM   31  F   UNL     1      28.017  46.380  55.759  1.00  0.00    -0.205 F 
ENDBRANCH  23  24
ENDBRANCH  20  23
ENDBRANCH   2  19
TORSDOF 5
ENDMDL
MODEL 4
REMARK VINA RESULT:      -9.1      4.357      9.779
REMARK  5 active torsions:
REMARK  status: ('A' for Active; 'I' for Inactive)
REMARK    1  A    between atoms: C_6  and  C_7 
REMARK    2  A    between atoms: C_7  and  C_8 
REMARK       I    between atoms: C_8  and  N_9 
REMARK    3  A    between atoms: N_9  and  N_10 
REMARK       I    between atoms: N_10  and  C_11 
REMARK    4  A    between atoms: C_11  and  C_12 
REMARK    5  A    between atoms: C_12  and  C_13 
ROOT
HETATM    1  C   UNL     1      24.152  43.596  50.237  1.00  0.00     0.243 C 
HETATM    2  N   UNL     1      25.475  43.345  50.524  1.00  0.00    -0.267 N 
HETATM    3  O   UNL     1      23.253  43.447  51.066  1.00  0.00    -0.271 OA
HETATM    4  H   UNL     1      26.234  43.584  49.880  1.00  0.00     0.190 HD
ENDROOT
BRANCH   1   5
HETATM    5  C   UNL     1      23.887  44.147  48.859  1.00  0.00     0.183 C 
BRANCH   5   6
HETATM    6  C   UNL     1      23.483  45.595  48.840  1.00  0.00     0.116 A 
HETATM    7  N   UNL     1      22.377  45.952  48.263  1.00  0.00    -0.227 NA
HETATM    8  C   UNL     1      22.124  47.286  48.296  1.00  0.00     0.116 A 
HETATM    9  C   UNL     1      22.922  48.269  48.842  1.00  0.00     0.075 A 
HETATM   10  S   UNL     1      20.703  47.934  47.625  1.00  0.00    -0.074 SA
HETATM   11  C   UNL     1      22.367  49.589  48.698  1.00  0.00    -0.031 A 
HETATM   12  C   UNL     1      24.165  47.842  49.457  1.00  0.00     0.260 A 
HETATM   13  C   UNL     1      23.029  50.841  49.180  1.00  0.00     0.050 C 
HETATM   14  C   UNL     1      21.145  49.535  48.040  1.00  0.00    -0.012 A 
HETATM   15  C   UNL     1      20.233  50.663  47.681  1.00  0.00     0.057 C 
HETATM   16  N   UNL     1      24.360  46.477  49.432  1.00  0.00    -0.310 N 
HETATM   17  O   UNL     1      24.992  48.598  49.956  1.00  0.00    -0.267 OA
HETATM   18  H   UNL     1      25.220  46.166  49.861  1.00  0.00     0.170 HD
ENDBRANCH   5   6
ENDBRANCH   1   5
BRANCH   2  19
HETATM   19  N   UNL     1      25.828  43.112  51.861  1.00  0.00    -0.267 N 
HETATM   20  C   UNL     1      26.289  44.199  52.587  1.00  0.00     0.240 C 
HETATM   21  O   UNL     1      26.588  45.269  52.059  1.00  0.00    -0.272 OA
HETATM   22  H   UNL     1      25.311  42.360  52.318  1.00  0.00     0.190 HD
BRANCH  20  23
HETATM   23  C   UNL     1      26.420  43.928  54.075  1.00  0.00     0.148 C 
BRANCH  23  24
HETATM   24  C   UNL     1      27.844  44.018  54.563  1.00  0.00     0.011 A 
HETATM   25  C   UNL     1      28.767  42.975  54.404  1.00  0.00     0.043 A 
HETATM   26 CL   UNL     1      28.344  41.508  53.593  1.00  0.00    -0.084 Cl
HETATM   27  C   UNL     1      30.074  43.094  54.894  1.00  0.00     0.024 A 
HETATM   28  C   UNL     1      30.475  44.255  55.554  1.00  0.00     0.005 A 
HETATM   29  C   UNL     1      29.569  45.297  55.722  1.00  0.00     0.043 A 
HETATM   30  C   UNL     1      28.271  45.170  55.232  1.00  0.00     0.124 A 
HETATM   31  F   UNL     1      27.423  46.195  55.405  1.00  0.00    -0.205 F 
ENDBRANCH  23  24
ENDBRANCH  20  23
ENDBRANCH   2  19
TORSDOF 5
ENDMDL
MODEL 5
REMARK VINA RESULT:      -9.0      6.775      9.158
REMARK  5 active torsions:
REMARK  status: ('A' for Active; 'I' for Inactive)
REMARK    1  A    between atoms: C_6  and  C_7 
REMARK    2  A    between atoms: C_7  and  C_8 
REMARK       I    between atoms: C_8  and  N_9 
REMARK    3  A    between atoms: N_9  and  N_10 
REMARK       I    between atoms: N_10  and  C_11 
REMARK    4  A    between atoms: C_11  and  C_12 
REMARK    5  A    between atoms: C_12  and  C_13 
ROOT
HETATM    1  C   UNL     1      25.640  44.323  52.367  1.00  0.00     0.243 C 
HETATM    2  N   UNL     1      26.420  43.534  51.552  1.00  0.00    -0.267 N 
HETATM    3  O   UNL     1      24.543  43.958  52.792  1.00  0.00    -0.271 OA
HETATM    4  H   UNL     1      27.380  43.782  51.298  1.00  0.00     0.190 HD
ENDROOT
BRANCH   1   5
HETATM    5  C   UNL     1      26.258  45.637  52.771  1.00  0.00     0.183 C 
BRANCH   5   6
HETATM    6  C   UNL     1      27.300  45.523  53.848  1.00  0.00     0.116 A 
HETATM    7  N   UNL     1      28.172  44.564  53.809  1.00  0.00    -0.227 NA
HETATM    8  C   UNL     1      29.054  44.553  54.842  1.00  0.00     0.116 A 
HETATM    9  C   UNL     1      29.089  45.424  55.911  1.00  0.00     0.075 A 
HETATM   10  S   UNL     1      30.293  43.394  54.937  1.00  0.00    -0.074 SA
HETATM   11  C   UNL     1      30.147  45.129  56.842  1.00  0.00    -0.031 A 
HETATM   12  C   UNL     1      28.086  46.471  55.941  1.00  0.00     0.260 A 
HETATM   13  C   UNL     1      30.405  45.898  58.098  1.00  0.00     0.050 C 
HETATM   14  C   UNL     1      30.879  44.028  56.415  1.00  0.00    -0.012 A 
HETATM   15  C   UNL     1      32.055  43.383  57.075  1.00  0.00     0.057 C 
HETATM   16  N   UNL     1      27.238  46.463  54.854  1.00  0.00    -0.310 N 
HETATM   17  O   UNL     1      27.969  47.299  56.839  1.00  0.00    -0.267 OA
HETATM   18  H   UNL     1      26.536  47.189  54.860  1.00  0.00     0.170 HD
ENDBRANCH   5   6
ENDBRANCH   1   5
BRANCH   2  19
HETATM   19  N   UNL     1      26.045  42.194  51.374  1.00  0.00    -0.267 N 
HETATM   20  C   UNL     1      26.510  41.558  50.234  1.00  0.00     0.240 C 
HETATM   21  O   UNL     1      27.042  42.166  49.307  1.00  0.00    -0.272 OA
HETATM   22  H   UNL     1      25.889  41.673  52.237  1.00  0.00     0.190 HD
BRANCH  20  23
HETATM   23  C   UNL     1      26.269  40.059  50.231  1.00  0.00     0.148 C 
BRANCH  23  24
HETATM   24  C   UNL     1      27.306  39.301  49.442  1.00  0.00     0.011 A 
HETATM   25  C   UNL     1      27.058  38.786  48.162  1.00  0.00     0.043 A 
HETATM   26 CL   UNL     1      25.538  39.020  47.372  1.00  0.00    -0.084 Cl
HETATM   27  C   UNL     1      28.044  38.068  47.474  1.00  0.00     0.024 A 
HETATM   28  C   UNL     1      29.292  37.850  48.058  1.00  0.00     0.005 A 
HETATM   29  C   UNL     1      29.552  38.353  49.329  1.00  0.00     0.043 A 
HETATM   30  C   UNL     1      28.564  39.065  50.006  1.00  0.00     0.124 A 
HETATM   31  F   UNL     1      28.848  39.541  51.227  1.00  0.00    -0.205 F 
ENDBRANCH  23  24
ENDBRANCH  20  23
ENDBRANCH   2  19
TORSDOF 5
ENDMDL
MODEL 6
REMARK VINA RESULT:      -8.7      1.979      2.296
REMARK  5 active torsions:
REMARK  status: ('A' for Active; 'I' for Inactive)
REMARK    1  A    between atoms: C_6  and  C_7 
REMARK    2  A    between atoms: C_7  and  C_8 
REMARK       I    between atoms: C_8  and  N_9 
REMARK    3  A    between atoms: N_9  and  N_10 
REMARK       I    between atoms: N_10  and  C_11 
REMARK    4  A    between atoms: C_11  and  C_12 
REMARK    5  A    between atoms: C_12  and  C_13 
ROOT
HETATM    1  C   UNL     1      24.386  44.782  50.039  1.00  0.00     0.243 C 
HETATM    2  N   UNL     1      23.095  45.048  49.641  1.00  0.00    -0.267 N 
HETATM    3  O   UNL     1      25.364  45.327  49.525  1.00  0.00    -0.271 OA
HETATM    4  H   UNL     1      22.278  44.691  50.145  1.00  0.00     0.190 HD
ENDROOT
BRANCH   1   5
HETATM    5  C   UNL     1      24.517  43.836  51.204  1.00  0.00     0.183 C 
BRANCH   5   6
HETATM    6  C   UNL     1      25.653  44.157  52.136  1.00  0.00     0.116 A 
HETATM    7  N   UNL     1      26.525  43.244  52.434  1.00  0.00    -0.227 NA
HETATM    8  C   UNL     1      27.496  43.645  53.295  1.00  0.00     0.116 A 
HETATM    9  C   UNL     1      27.620  44.885  53.886  1.00  0.00     0.075 A 
HETATM   10  S   UNL     1      28.747  42.597  53.770  1.00  0.00    -0.074 SA
HETATM   11  C   UNL     1      28.759  44.980  54.761  1.00  0.00    -0.031 A 
HETATM   12  C   UNL     1      26.616  45.877  53.553  1.00  0.00     0.260 A 
HETATM   13  C   UNL     1      29.123  46.201  55.545  1.00  0.00     0.050 C 
HETATM   14  C   UNL     1      29.459  43.779  54.782  1.00  0.00    -0.012 A 
HETATM   15  C   UNL     1      30.693  43.439  55.552  1.00  0.00     0.057 C 
HETATM   16  N   UNL     1      25.674  45.436  52.648  1.00  0.00    -0.310 N 
HETATM   17  O   UNL     1      26.573  47.011  54.020  1.00  0.00    -0.267 OA
HETATM   18  H   UNL     1      24.970  46.118  52.404  1.00  0.00     0.170 HD
ENDBRANCH   5   6
ENDBRANCH   1   5
BRANCH   2  19
HETATM   19  N   UNL     1      22.880  46.125  48.770  1.00  0.00    -0.267 N 
HETATM   20  C   UNL     1      21.574  46.361  48.373  1.00  0.00     0.240 C 
HETATM   21  O   UNL     1      20.664  45.560  48.581  1.00  0.00    -0.272 OA
HETATM   22  H   UNL     1      23.545  46.893  48.864  1.00  0.00     0.190 HD
BRANCH  20  23
HETATM   23  C   UNL     1      21.389  47.674  47.633  1.00  0.00     0.148 C 
BRANCH  23  24
HETATM   24  C   UNL     1      21.207  48.848  48.562  1.00  0.00     0.011 A 
HETATM   25  C   UNL     1      22.237  49.756  48.845  1.00  0.00     0.043 A 
HETATM   26 CL   UNL     1      23.796  49.614  48.113  1.00  0.00    -0.084 Cl
HETATM   27  C   UNL     1      22.030  50.820  49.732  1.00  0.00     0.024 A 
HETATM   28  C   UNL     1      20.792  50.990  50.351  1.00  0.00     0.005 A 
HETATM   29  C   UNL     1      19.761  50.095  50.082  1.00  0.00     0.043 A 
HETATM   30  C   UNL     1      19.976  49.039  49.199  1.00  0.00     0.124 A 
HETATM   31  F   UNL     1      18.961  48.197  48.956  1.00  0.00    -0.205 F 
ENDBRANCH  23  24
ENDBRANCH  20  23
ENDBRANCH   2  19
TORSDOF 5
ENDMDL
MODEL 7
REMARK VINA RESULT:      -8.6      2.371      2.990
REMARK  5 active torsions:
REMARK  status: ('A' for Active; 'I' for Inactive)
REMARK    1  A    between atoms: C_6  and  C_7 
REMARK    2  A    between atoms: C_7  and  C_8 
REMARK       I    between atoms: C_8  and  N_9 
REMARK    3  A    between atoms: N_9  and  N_10 
REMARK       I    between atoms: N_10  and  C_11 
REMARK    4  A    between atoms: C_11  and  C_12 
REMARK    5  A    between atoms: C_12  and  C_13 
ROOT
HETATM    1  C   UNL     1      22.678  44.943  49.205  1.00  0.00     0.243 C 
HETATM    2  N   UNL     1      22.642  46.317  49.292  1.00  0.00    -0.267 N 
HETATM    3  O   UNL     1      21.658  44.255  49.151  1.00  0.00    -0.271 OA
HETATM    4  H   UNL     1      23.483  46.896  49.213  1.00  0.00     0.190 HD
ENDROOT
BRANCH   1   5
HETATM    5  C   UNL     1      24.056  44.342  49.097  1.00  0.00     0.183 C 
BRANCH   5   6
HETATM    6  C   UNL     1      24.895  44.497  50.335  1.00  0.00     0.116 A 
HETATM    7  N   UNL     1      24.958  45.645  50.936  1.00  0.00    -0.227 NA
HETATM    8  C   UNL     1      25.758  45.669  52.034  1.00  0.00     0.116 A 
HETATM    9  C   UNL     1      26.510  44.627  52.535  1.00  0.00     0.075 A 
HETATM   10  S   UNL     1      25.932  47.076  52.972  1.00  0.00    -0.074 SA
HETATM   11  C   UNL     1      27.260  44.989  53.709  1.00  0.00    -0.031 A 
HETATM   12  C   UNL     1      26.439  43.363  51.826  1.00  0.00     0.260 A 
HETATM   13  C   UNL     1      28.173  44.062  54.447  1.00  0.00     0.050 C 
HETATM   14  C   UNL     1      27.026  46.316  54.047  1.00  0.00    -0.012 A 
HETATM   15  C   UNL     1      27.597  47.098  55.185  1.00  0.00     0.057 C 
HETATM   16  N   UNL     1      25.587  43.378  50.743  1.00  0.00    -0.310 N 
HETATM   17  O   UNL     1      27.072  42.357  52.130  1.00  0.00    -0.267 OA
HETATM   18  H   UNL     1      25.526  42.503  50.242  1.00  0.00     0.170 HD
ENDBRANCH   5   6
ENDBRANCH   1   5
BRANCH   2  19
HETATM   19  N   UNL     1      21.410  46.959  49.103  1.00  0.00    -0.267 N 
HETATM   20  C   UNL     1      21.273  47.732  47.961  1.00  0.00     0.240 C 
HETATM   21  O   UNL     1      22.228  48.032  47.247  1.00  0.00    -0.272 OA
HETATM   22  H   UNL     1      20.607  46.476  49.506  1.00  0.00     0.190 HD
BRANCH  20  23
HETATM   23  C   UNL     1      19.850  48.193  47.704  1.00  0.00     0.148 C 
BRANCH  23  24
HETATM   24  C   UNL     1      19.525  49.498  48.387  1.00  0.00     0.011 A 
HETATM   25  C   UNL     1      18.859  49.562  49.619  1.00  0.00     0.043 A 
HETATM   26 CL   UNL     1      18.392  48.133  50.471  1.00  0.00    -0.084 Cl
HETATM   27  C   UNL     1      18.558  50.797  50.206  1.00  0.00     0.024 A 
HETATM   28  C   UNL     1      18.913  51.986  49.569  1.00  0.00     0.005 A 
HETATM   29  C   UNL     1      19.571  51.937  48.344  1.00  0.00     0.043 A 
HETATM   30  C   UNL     1      19.867  50.704  47.767  1.00  0.00     0.124 A 
HETATM   31  F   UNL     1      20.507  50.691  46.589  1.00  0.00    -0.205 F 
ENDBRANCH  23  24
ENDBRANCH  20  23
ENDBRANCH   2  19
TORSDOF 5
ENDMDL
MODEL 8
REMARK VINA RESULT:      -8.6      2.756      3.509
REMARK  5 active torsions:
REMARK  status: ('A' for Active; 'I' for Inactive)
REMARK    1  A    between atoms: C_6  and  C_7 
REMARK    2  A    between atoms: C_7  and  C_8 
REMARK       I    between atoms: C_8  and  N_9 
REMARK    3  A    between atoms: N_9  and  N_10 
REMARK       I    between atoms: N_10  and  C_11 
REMARK    4  A    between atoms: C_11  and  C_12 
REMARK    5  A    between atoms: C_12  and  C_13 
ROOT
HETATM    1  C   UNL     1      24.246  46.885  49.756  1.00  0.00     0.243 C 
HETATM    2  N   UNL     1      23.661  48.108  49.994  1.00  0.00    -0.267 N 
HETATM    3  O   UNL     1      23.622  45.929  49.293  1.00  0.00    -0.271 OA
HETATM    4  H   UNL     1      24.201  48.936  50.262  1.00  0.00     0.190 HD
ENDROOT
BRANCH   1   5
HETATM    5  C   UNL     1      25.728  46.819  50.025  1.00  0.00     0.183 C 
BRANCH   5   6
HETATM    6  C   UNL     1      26.229  45.450  50.393  1.00  0.00     0.116 A 
HETATM    7  N   UNL     1      26.585  45.197  51.614  1.00  0.00    -0.227 NA
HETATM    8  C   UNL     1      27.034  43.932  51.825  1.00  0.00     0.116 A 
HETATM    9  C   UNL     1      27.170  42.933  50.884  1.00  0.00     0.075 A 
HETATM   10  S   UNL     1      27.507  43.407  53.370  1.00  0.00    -0.074 SA
HETATM   11  C   UNL     1      27.688  41.708  51.435  1.00  0.00    -0.031 A 
HETATM   12  C   UNL     1      26.788  43.254  49.522  1.00  0.00     0.260 A 
HETATM   13  C   UNL     1      27.953  40.469  50.640  1.00  0.00     0.050 C 
HETATM   14  C   UNL     1      27.916  41.845  52.799  1.00  0.00    -0.012 A 
HETATM   15  C   UNL     1      28.448  40.830  53.757  1.00  0.00     0.057 C 
HETATM   16  N   UNL     1      26.304  44.535  49.365  1.00  0.00    -0.310 N 
HETATM   17  O   UNL     1      26.880  42.484  48.572  1.00  0.00    -0.267 OA
HETATM   18  H   UNL     1      26.030  44.771  48.422  1.00  0.00     0.170 HD
ENDBRANCH   5   6
ENDBRANCH   1   5
BRANCH   2  19
HETATM   19  N   UNL     1      22.367  48.329  49.500  1.00  0.00    -0.267 N 
HETATM   20  C   UNL     1      22.265  48.887  48.235  1.00  0.00     0.240 C 
HETATM   21  O   UNL     1      23.230  49.371  47.646  1.00  0.00    -0.272 OA
HETATM   22  H   UNL     1      21.659  47.680  49.843  1.00  0.00     0.190 HD
BRANCH  20  23
HETATM   23  C   UNL     1      20.855  48.872  47.674  1.00  0.00     0.148 C 
BRANCH  23  24
HETATM   24  C   UNL     1      19.901  49.730  48.465  1.00  0.00     0.011 A 
HETATM   25  C   UNL     1      18.750  49.215  49.078  1.00  0.00     0.043 A 
HETATM   26 CL   UNL     1      18.359  47.533  49.001  1.00  0.00    -0.084 Cl
HETATM   27  C   UNL     1      17.878  50.053  49.785  1.00  0.00     0.024 A 
HETATM   28  C   UNL     1      18.143  51.419  49.886  1.00  0.00     0.005 A 
HETATM   29  C   UNL     1      19.279  51.945  49.280  1.00  0.00     0.043 A 
HETATM   30  C   UNL     1      20.140  51.103  48.578  1.00  0.00     0.124 A 
HETATM   31  F   UNL     1      21.230  51.639  48.010  1.00  0.00    -0.205 F 
ENDBRANCH  23  24
ENDBRANCH  20  23
ENDBRANCH   2  19
TORSDOF 5
ENDMDL
MODEL 9
REMARK VINA RESULT:      -8.5      4.076      9.804
REMARK  5 active torsions:
REMARK  status: ('A' for Active; 'I' for Inactive)
REMARK    1  A    between atoms: C_6  and  C_7 
REMARK    2  A    between atoms: C_7  and  C_8 
REMARK       I    between atoms: C_8  and  N_9 
REMARK    3  A    between atoms: N_9  and  N_10 
REMARK       I    between atoms: N_10  and  C_11 
REMARK    4  A    between atoms: C_11  and  C_12 
REMARK    5  A    between atoms: C_12  and  C_13 
ROOT
HETATM    1  C   UNL     1      25.327  47.135  50.061  1.00  0.00     0.243 C 
HETATM    2  N   UNL     1      25.146  47.248  51.421  1.00  0.00    -0.267 N 
HETATM    3  O   UNL     1      25.876  46.162  49.543  1.00  0.00    -0.271 OA
HETATM    4  H   UNL     1      24.583  47.993  51.843  1.00  0.00     0.190 HD
ENDROOT
BRANCH   1   5
HETATM    5  C   UNL     1      24.732  48.250  49.239  1.00  0.00     0.183 C 
BRANCH   5   6
HETATM    6  C   UNL     1      23.230  48.242  49.184  1.00  0.00     0.116 A 
HETATM    7  N   UNL     1      22.603  47.199  48.734  1.00  0.00    -0.227 NA
HETATM    8  C   UNL     1      21.249  47.312  48.717  1.00  0.00     0.116 A 
HETATM    9  C   UNL     1      20.504  48.410  49.094  1.00  0.00     0.075 A 
HETATM   10  S   UNL     1      20.260  46.032  48.198  1.00  0.00    -0.074 SA
HETATM   11  C   UNL     1      19.087  48.207  48.943  1.00  0.00    -0.031 A 
HETATM   12  C   UNL     1      21.234  49.570  49.568  1.00  0.00     0.260 A 
HETATM   13  C   UNL     1      18.048  49.236  49.258  1.00  0.00     0.050 C 
HETATM   14  C   UNL     1      18.827  46.933  48.453  1.00  0.00    -0.012 A 
HETATM   15  C   UNL     1      17.504  46.309  48.147  1.00  0.00     0.057 C 
HETATM   16  N   UNL     1      22.601  49.395  49.602  1.00  0.00    -0.310 N 
HETATM   17  O   UNL     1      20.716  50.629  49.909  1.00  0.00    -0.267 OA
HETATM   18  H   UNL     1      23.122  50.194  49.934  1.00  0.00     0.170 HD
ENDBRANCH   5   6
ENDBRANCH   1   5
BRANCH   2  19
HETATM   19  N   UNL     1      25.409  46.125  52.218  1.00  0.00    -0.267 N 
HETATM   20  C   UNL     1      26.198  46.322  53.340  1.00  0.00     0.240 C 
HETATM   21  O   UNL     1      26.825  47.363  53.534  1.00  0.00    -0.272 OA
HETATM   22  H   UNL     1      24.679  45.413  52.212  1.00  0.00     0.190 HD
BRANCH  20  23
HETATM   23  C   UNL     1      26.238  45.127  54.275  1.00  0.00     0.148 C 
BRANCH  23  24
HETATM   24  C   UNL     1      27.590  44.461  54.316  1.00  0.00     0.011 A 
HETATM   25  C   UNL     1      28.612  44.872  55.184  1.00  0.00     0.043 A 
HETATM   26 CL   UNL     1      28.377  46.162  56.310  1.00  0.00    -0.084 Cl
HETATM   27  C   UNL     1      29.861  44.238  55.172  1.00  0.00     0.024 A 
HETATM   28  C   UNL     1      30.109  43.188  54.289  1.00  0.00     0.005 A 
HETATM   29  C   UNL     1      29.106  42.772  53.419  1.00  0.00     0.043 A 
HETATM   30  C   UNL     1      27.867  43.408  53.437  1.00  0.00     0.124 A 
HETATM   31  F   UNL     1      26.919  42.980  52.591  1.00  0.00    -0.205 F 
ENDBRANCH  23  24
ENDBRANCH  20  23
ENDBRANCH   2  19
TORSDOF 5
ENDMDL
MODEL 10
REMARK VINA RESULT:      -8.4     14.375     16.821
REMARK  5 active torsions:
REMARK  status: ('A' for Active; 'I' for Inactive)
REMARK    1  A    between atoms: C_6  and  C_7 
REMARK    2  A    between atoms: C_7  and  C_8 
REMARK       I    between atoms: C_8  and  N_9 
REMARK    3  A    between atoms: N_9  and  N_10 
REMARK       I    between atoms: N_10  and  C_11 
REMARK    4  A    between atoms: C_11  and  C_12 
REMARK    5  A    between atoms: C_12  and  C_13 
ROOT
HETATM    1  C   UNL     1      35.909  51.897  42.564  1.00  0.00     0.243 C 
HETATM    2  N   UNL     1      35.813  51.981  43.935  1.00  0.00    -0.267 N 
HETATM    3  O   UNL     1      36.197  52.865  41.858  1.00  0.00    -0.271 OA
HETATM    4  H   UNL     1      35.696  51.157  44.531  1.00  0.00     0.190 HD
ENDROOT
BRANCH   1   5
HETATM    5  C   UNL     1      35.717  50.517  41.990  1.00  0.00     0.183 C 
BRANCH   5   6
HETATM    6  C   UNL     1      34.280  50.134  41.769  1.00  0.00     0.116 A 
HETATM    7  N   UNL     1      33.340  51.007  41.961  1.00  0.00    -0.227 NA
HETATM    8  C   UNL     1      32.081  50.544  41.745  1.00  0.00     0.116 A 
HETATM    9  C   UNL     1      31.720  49.264  41.379  1.00  0.00     0.075 A 
HETATM   10  S   UNL     1      30.725  51.556  41.909  1.00  0.00    -0.074 SA
HETATM   11  C   UNL     1      30.296  49.099  41.242  1.00  0.00    -0.031 A 
HETATM   12  C   UNL     1      32.791  48.304  41.196  1.00  0.00     0.260 A 
HETATM   13  C   UNL     1      29.626  47.814  40.875  1.00  0.00     0.050 C 
HETATM   14  C   UNL     1      29.639  50.294  41.512  1.00  0.00    -0.012 A 
HETATM   15  C   UNL     1      28.171  50.570  41.490  1.00  0.00     0.057 C 
HETATM   16  N   UNL     1      34.051  48.829  41.391  1.00  0.00    -0.310 N 
HETATM   17  O   UNL     1      32.628  47.124  40.903  1.00  0.00    -0.267 OA
HETATM   18  H   UNL     1      34.807  48.172  41.263  1.00  0.00     0.170 HD
ENDBRANCH   5   6
ENDBRANCH   1   5
BRANCH   2  19
HETATM   19  N   UNL     1      36.261  53.155  44.558  1.00  0.00    -0.267 N 
HETATM   20  C   UNL     1      37.487  53.096  45.200  1.00  0.00     0.240 C 
HETATM   21  O   UNL     1      38.071  52.035  45.416  1.00  0.00    -0.272 OA
HETATM   22  H   UNL     1      35.939  54.021  44.126  1.00  0.00     0.190 HD
BRANCH  20  23
HETATM   23  C   UNL     1      38.013  54.451  45.637  1.00  0.00     0.148 C 
BRANCH  23  24
HETATM   24  C   UNL     1      39.208  54.349  46.550  1.00  0.00     0.011 A 
HETATM   25  C   UNL     1      40.524  54.516  46.097  1.00  0.00     0.043 A 
HETATM   26 CL   UNL     1      40.872  54.893  44.446  1.00  0.00    -0.084 Cl
HETATM   27  C   UNL     1      41.607  54.390  46.976  1.00  0.00     0.024 A 
HETATM   28  C   UNL     1      41.390  54.091  48.321  1.00  0.00     0.005 A 
HETATM   29  C   UNL     1      40.090  53.920  48.785  1.00  0.00     0.043 A 
HETATM   30  C   UNL     1      39.019  54.046  47.903  1.00  0.00     0.124 A 
HETATM   31  F   UNL     1      37.777  53.881  48.382  1.00  0.00    -0.205 F 
ENDBRANCH  23  24
ENDBRANCH  20  23
ENDBRANCH   2  19
TORSDOF 5
ENDMDL
