MODEL 1
REMARK VINA RESULT:      -9.5      0.000      0.000
REMARK  5 active torsions:
REMARK  status: ('A' for Active; 'I' for Inactive)
REMARK    1  A    between atoms: C_6  and  S_7 
REMARK    2  A    between atoms: S_7  and  C_8 
REMARK    3  A    between atoms: C_8  and  C_9 
REMARK       I    between atoms: C_9  and  N_10 
REMARK    4  A    between atoms: N_10  and  C_11 
REMARK    5  A    between atoms: C_14  and  C_15 
ROOT
HETATM    1  C   UNL     1      25.172  46.997  50.892  1.00  0.00     0.233 C 
HETATM    2  N   UNL     1      24.704  47.272  49.625  1.00  0.00    -0.305 N 
HETATM    3  O   UNL     1      25.074  47.726  51.877  1.00  0.00    -0.272 OA
HETATM    4  H   UNL     1      24.916  46.649  48.861  1.00  0.00     0.171 HD
ENDROOT
BRANCH   2   5
HETATM    5  C   UNL     1      24.010  48.412  49.334  1.00  0.00     0.173 A 
HETATM    6  S   UNL     1      24.918  49.601  48.516  1.00  0.00    -0.061 SA
HETATM    7  C   UNL     1      23.518  50.601  48.467  1.00  0.00     0.085 A 
HETATM    8  C   UNL     1      22.454  49.957  49.072  1.00  0.00     0.076 A 
HETATM    9  N   UNL     1      22.760  48.701  49.571  1.00  0.00    -0.223 NA
BRANCH   8  10
HETATM   10  C   UNL     1      21.100  50.498  49.211  1.00  0.00    -0.007 A 
HETATM   11  C   UNL     1      20.674  51.657  48.543  1.00  0.00     0.015 A 
HETATM   12  C   UNL     1      19.366  52.131  48.700  1.00  0.00     0.020 A 
HETATM   13  C   UNL     1      18.473  51.450  49.523  1.00  0.00     0.011 A 
HETATM   14 BR   UNL     1      16.707  52.091  49.728  1.00  0.00    -0.051 Br
HETATM   15  C   UNL     1      18.874  50.299  50.192  1.00  0.00     0.020 A 
HETATM   16  C   UNL     1      20.180  49.827  50.034  1.00  0.00     0.015 A 
ENDBRANCH   8  10
ENDBRANCH   2   5
BRANCH   1  17
HETATM   17  C   UNL     1      25.766  45.606  51.040  1.00  0.00     0.184 C 
BRANCH  17  18
HETATM   18  S   UNL     1      25.154  44.752  52.524  1.00  0.00    -0.094 SA
BRANCH  18  19
HETATM   19  C   UNL     1      26.633  44.697  53.465  1.00  0.00     0.136 A 
HETATM   20  S   UNL     1      27.134  45.999  54.454  1.00  0.00    -0.061 SA
HETATM   21  C   UNL     1      28.536  45.108  54.910  1.00  0.00     0.036 A 
HETATM   22  C   UNL     1      28.513  43.869  54.263  1.00  0.00     0.075 A 
HETATM   23  C   UNL     1      29.582  45.473  55.774  1.00  0.00     0.021 A 
HETATM   24  C   UNL     1      29.568  42.963  54.494  1.00  0.00     0.033 A 
HETATM   25  N   UNL     1      27.424  43.653  53.436  1.00  0.00    -0.233 NA
HETATM   26  C   UNL     1      30.613  43.318  55.353  1.00  0.00     0.002 A 
HETATM   27  C   UNL     1      30.618  44.558  55.984  1.00  0.00     0.002 A 
ENDBRANCH  18  19
ENDBRANCH  17  18
ENDBRANCH   1  17
TORSDOF 5
ENDMDL
MODEL 2
REMARK VINA RESULT:      -9.4      0.841      1.568
REMARK  5 active torsions:
REMARK  status: ('A' for Active; 'I' for Inactive)
REMARK    1  A    between atoms: C_6  and  S_7 
REMARK    2  A    between atoms: S_7  and  C_8 
REMARK    3  A    between atoms: C_8  and  C_9 
REMARK       I    between atoms: C_9  and  N_10 
REMARK    4  A    between atoms: N_10  and  C_11 
REMARK    5  A    between atoms: C_14  and  C_15 
ROOT
HETATM    1  C   UNL     1      25.135  46.866  50.592  1.00  0.00     0.233 C 
HETATM    2  N   UNL     1      24.480  47.165  49.417  1.00  0.00    -0.305 N 
HETATM    3  O   UNL     1      25.254  47.608  51.565  1.00  0.00    -0.272 OA
HETATM    4  H   UNL     1      24.518  46.523  48.639  1.00  0.00     0.171 HD
ENDROOT
BRANCH   2   5
HETATM    5  C   UNL     1      23.825  48.348  49.224  1.00  0.00     0.173 A 
HETATM    6  S   UNL     1      24.792  49.592  48.573  1.00  0.00    -0.061 SA
HETATM    7  C   UNL     1      23.420  50.631  48.581  1.00  0.00     0.085 A 
HETATM    8  C   UNL     1      22.317  49.955  49.074  1.00  0.00     0.076 A 
HETATM    9  N   UNL     1      22.574  48.645  49.445  1.00  0.00    -0.223 NA
BRANCH   8  10
HETATM   10  C   UNL     1      20.973  50.516  49.221  1.00  0.00    -0.007 A 
HETATM   11  C   UNL     1      20.025  49.990  50.113  1.00  0.00     0.015 A 
HETATM   12  C   UNL     1      18.754  50.566  50.226  1.00  0.00     0.020 A 
HETATM   13  C   UNL     1      18.420  51.673  49.450  1.00  0.00     0.011 A 
HETATM   14 BR   UNL     1      16.705  52.450  49.610  1.00  0.00    -0.051 Br
HETATM   15  C   UNL     1      19.345  52.212  48.562  1.00  0.00     0.020 A 
HETATM   16  C   UNL     1      20.613  51.635  48.451  1.00  0.00     0.015 A 
ENDBRANCH   8  10
ENDBRANCH   2   5
BRANCH   1  17
HETATM   17  C   UNL     1      25.650  45.439  50.664  1.00  0.00     0.184 C 
BRANCH  17  18
HETATM   18  S   UNL     1      25.027  44.557  52.127  1.00  0.00    -0.094 SA
BRANCH  18  19
HETATM   19  C   UNL     1      26.532  44.325  52.996  1.00  0.00     0.136 A 
HETATM   20  S   UNL     1      27.561  42.991  52.700  1.00  0.00    -0.061 SA
HETATM   21  C   UNL     1      28.649  43.568  53.903  1.00  0.00     0.036 A 
HETATM   22  C   UNL     1      28.137  44.750  54.446  1.00  0.00     0.075 A 
HETATM   23  C   UNL     1      29.867  43.020  54.340  1.00  0.00     0.021 A 
HETATM   24  C   UNL     1      28.871  45.408  55.454  1.00  0.00     0.033 A 
HETATM   25  N   UNL     1      26.924  45.165  53.923  1.00  0.00    -0.233 NA
HETATM   26  C   UNL     1      30.084  44.870  55.895  1.00  0.00     0.002 A 
HETATM   27  C   UNL     1      30.573  43.690  55.343  1.00  0.00     0.002 A 
ENDBRANCH  18  19
ENDBRANCH  17  18
ENDBRANCH   1  17
TORSDOF 5
ENDMDL
MODEL 3
REMARK VINA RESULT:      -9.4      1.476      1.986
REMARK  5 active torsions:
REMARK  status: ('A' for Active; 'I' for Inactive)
REMARK    1  A    between atoms: C_6  and  S_7 
REMARK    2  A    between atoms: S_7  and  C_8 
REMARK    3  A    between atoms: C_8  and  C_9 
REMARK       I    between atoms: C_9  and  N_10 
REMARK    4  A    between atoms: N_10  and  C_11 
REMARK    5  A    between atoms: C_14  and  C_15 
ROOT
HETATM    1  C   UNL     1      25.729  46.553  52.372  1.00  0.00     0.233 C 
HETATM    2  N   UNL     1      25.502  46.469  51.015  1.00  0.00    -0.305 N 
HETATM    3  O   UNL     1      25.642  47.567  53.061  1.00  0.00    -0.272 OA
HETATM    4  H   UNL     1      25.690  45.609  50.523  1.00  0.00     0.171 HD
ENDROOT
BRANCH   2   5
HETATM    5  C   UNL     1      25.092  47.541  50.274  1.00  0.00     0.173 A 
HETATM    6  S   UNL     1      26.331  48.294  49.377  1.00  0.00    -0.061 SA
HETATM    7  C   UNL     1      25.172  49.399  48.748  1.00  0.00     0.085 A 
HETATM    8  C   UNL     1      23.918  49.114  49.260  1.00  0.00     0.076 A 
HETATM    9  N   UNL     1      23.896  48.044  50.142  1.00  0.00    -0.223 NA
BRANCH   8  10
HETATM   10  C   UNL     1      22.686  49.837  48.944  1.00  0.00    -0.007 A 
HETATM   11  C   UNL     1      22.100  49.819  47.669  1.00  0.00     0.015 A 
HETATM   12  C   UNL     1      20.915  50.520  47.416  1.00  0.00     0.020 A 
HETATM   13  C   UNL     1      20.304  51.243  48.437  1.00  0.00     0.011 A 
HETATM   14 BR   UNL     1      18.700  52.183  48.093  1.00  0.00    -0.051 Br
HETATM   15  C   UNL     1      20.865  51.273  49.709  1.00  0.00     0.020 A 
HETATM   16  C   UNL     1      22.048  50.572  49.958  1.00  0.00     0.015 A 
ENDBRANCH   8  10
ENDBRANCH   2   5
BRANCH   1  17
HETATM   17  C   UNL     1      26.011  45.214  53.033  1.00  0.00     0.184 C 
BRANCH  17  18
HETATM   18  S   UNL     1      27.569  44.478  52.453  1.00  0.00    -0.094 SA
BRANCH  18  19
HETATM   19  C   UNL     1      28.512  44.581  53.928  1.00  0.00     0.136 A 
HETATM   20  S   UNL     1      28.293  45.840  55.065  1.00  0.00    -0.061 SA
HETATM   21  C   UNL     1      29.533  45.161  56.050  1.00  0.00     0.036 A 
HETATM   22  C   UNL     1      30.025  44.011  55.426  1.00  0.00     0.075 A 
HETATM   23  C   UNL     1      30.037  45.609  57.283  1.00  0.00     0.021 A 
HETATM   24  C   UNL     1      31.052  43.282  56.060  1.00  0.00     0.033 A 
HETATM   25  N   UNL     1      29.438  43.698  54.212  1.00  0.00    -0.233 NA
HETATM   26  C   UNL     1      31.559  43.720  57.287  1.00  0.00     0.002 A 
HETATM   27  C   UNL     1      31.056  44.870  57.889  1.00  0.00     0.002 A 
ENDBRANCH  18  19
ENDBRANCH  17  18
ENDBRANCH   1  17
TORSDOF 5
ENDMDL
MODEL 4
REMARK VINA RESULT:      -9.3      3.987     10.816
REMARK  5 active torsions:
REMARK  status: ('A' for Active; 'I' for Inactive)
REMARK    1  A    between atoms: C_6  and  S_7 
REMARK    2  A    between atoms: S_7  and  C_8 
REMARK    3  A    between atoms: C_8  and  C_9 
REMARK       I    between atoms: C_9  and  N_10 
REMARK    4  A    between atoms: N_10  and  C_11 
REMARK    5  A    between atoms: C_14  and  C_15 
ROOT
HETATM    1  C   UNL     1      25.289  47.312  49.965  1.00  0.00     0.233 C 
HETATM    2  N   UNL     1      24.887  46.738  51.152  1.00  0.00    -0.305 N 
HETATM    3  O   UNL     1      26.309  47.039  49.337  1.00  0.00    -0.272 OA
HETATM    4  H   UNL     1      24.079  47.097  51.640  1.00  0.00     0.171 HD
ENDROOT
BRANCH   2   5
HETATM    5  C   UNL     1      25.585  45.729  51.751  1.00  0.00     0.173 A 
HETATM    6  S   UNL     1      25.111  44.163  51.272  1.00  0.00    -0.061 SA
HETATM    7  C   UNL     1      26.325  43.507  52.300  1.00  0.00     0.085 A 
HETATM    8  C   UNL     1      27.013  44.527  52.932  1.00  0.00     0.076 A 
HETATM    9  N   UNL     1      26.566  45.799  52.608  1.00  0.00    -0.223 NA
BRANCH   8  10
HETATM   10  C   UNL     1      28.120  44.350  53.874  1.00  0.00    -0.007 A 
HETATM   11  C   UNL     1      28.454  45.311  54.841  1.00  0.00     0.015 A 
HETATM   12  C   UNL     1      29.516  45.093  55.727  1.00  0.00     0.020 A 
HETATM   13  C   UNL     1      30.251  43.913  55.655  1.00  0.00     0.011 A 
HETATM   14 BR   UNL     1      31.681  43.621  56.857  1.00  0.00    -0.051 Br
HETATM   15  C   UNL     1      29.936  42.946  54.706  1.00  0.00     0.020 A 
HETATM   16  C   UNL     1      28.875  43.166  53.823  1.00  0.00     0.015 A 
ENDBRANCH   8  10
ENDBRANCH   2   5
BRANCH   1  17
HETATM   17  C   UNL     1      24.285  48.294  49.385  1.00  0.00     0.184 C 
BRANCH  17  18
HETATM   18  S   UNL     1      22.810  47.461  48.728  1.00  0.00    -0.094 SA
BRANCH  18  19
HETATM   19  C   UNL     1      21.660  48.782  48.815  1.00  0.00     0.136 A 
HETATM   20  S   UNL     1      21.925  50.275  48.024  1.00  0.00    -0.061 SA
HETATM   21  C   UNL     1      20.424  50.860  48.636  1.00  0.00     0.036 A 
HETATM   22  C   UNL     1      19.829  49.857  49.407  1.00  0.00     0.075 A 
HETATM   23  C   UNL     1      19.814  52.112  48.451  1.00  0.00     0.021 A 
HETATM   24  C   UNL     1      18.580  50.114  50.007  1.00  0.00     0.033 A 
HETATM   25  N   UNL     1      20.550  48.680  49.506  1.00  0.00    -0.233 NA
HETATM   26  C   UNL     1      17.965  51.357  49.828  1.00  0.00     0.002 A 
HETATM   27  C   UNL     1      18.577  52.343  49.059  1.00  0.00     0.002 A 
ENDBRANCH  18  19
ENDBRANCH  17  18
ENDBRANCH   1  17
TORSDOF 5
ENDMDL
MODEL 5
REMARK VINA RESULT:      -8.9      4.100     10.875
REMARK  5 active torsions:
REMARK  status: ('A' for Active; 'I' for Inactive)
REMARK    1  A    between atoms: C_6  and  S_7 
REMARK    2  A    between atoms: S_7  and  C_8 
REMARK    3  A    between atoms: C_8  and  C_9 
REMARK       I    between atoms: C_9  and  N_10 
REMARK    4  A    between atoms: N_10  and  C_11 
REMARK    5  A    between atoms: C_14  and  C_15 
ROOT
HETATM    1  C   UNL     1      24.778  45.040  50.863  1.00  0.00     0.233 C 
HETATM    2  N   UNL     1      26.087  44.793  50.510  1.00  0.00    -0.305 N 
HETATM    3  O   UNL     1      24.230  44.694  51.907  1.00  0.00    -0.272 OA
HETATM    4  H   UNL     1      26.418  45.038  49.588  1.00  0.00     0.171 HD
ENDROOT
BRANCH   2   5
HETATM    5  C   UNL     1      26.961  44.155  51.343  1.00  0.00     0.173 A 
HETATM    6  S   UNL     1      27.391  42.582  50.844  1.00  0.00    -0.061 SA
HETATM    7  C   UNL     1      28.425  42.455  52.213  1.00  0.00     0.085 A 
HETATM    8  C   UNL     1      28.377  43.623  52.953  1.00  0.00     0.076 A 
HETATM    9  N   UNL     1      27.522  44.586  52.439  1.00  0.00    -0.223 NA
BRANCH   8  10
HETATM   10  C   UNL     1      29.130  43.884  54.181  1.00  0.00    -0.007 A 
HETATM   11  C   UNL     1      30.161  43.045  54.631  1.00  0.00     0.015 A 
HETATM   12  C   UNL     1      30.861  43.340  55.808  1.00  0.00     0.020 A 
HETATM   13  C   UNL     1      30.537  44.478  56.542  1.00  0.00     0.011 A 
HETATM   14 BR   UNL     1      31.488  44.875  58.127  1.00  0.00    -0.051 Br
HETATM   15  C   UNL     1      29.521  45.324  56.114  1.00  0.00     0.020 A 
HETATM   16  C   UNL     1      28.824  45.027  54.939  1.00  0.00     0.015 A 
ENDBRANCH   8  10
ENDBRANCH   2   5
BRANCH   1  17
HETATM   17  C   UNL     1      24.026  45.909  49.868  1.00  0.00     0.184 C 
BRANCH  17  18
HETATM   18  S   UNL     1      24.649  47.616  49.840  1.00  0.00    -0.094 SA
BRANCH  18  19
HETATM   19  C   UNL     1      23.234  48.437  49.209  1.00  0.00     0.136 A 
HETATM   20  S   UNL     1      22.179  47.702  48.081  1.00  0.00    -0.061 SA
HETATM   21  C   UNL     1      21.213  49.127  48.061  1.00  0.00     0.036 A 
HETATM   22  C   UNL     1      21.777  50.068  48.928  1.00  0.00     0.075 A 
HETATM   23  C   UNL     1      20.041  49.399  47.334  1.00  0.00     0.021 A 
HETATM   24  C   UNL     1      21.145  51.319  49.077  1.00  0.00     0.033 A 
HETATM   25  N   UNL     1      22.935  49.662  49.569  1.00  0.00    -0.233 NA
HETATM   26  C   UNL     1      19.979  51.598  48.357  1.00  0.00     0.002 A 
HETATM   27  C   UNL     1      19.436  50.649  47.497  1.00  0.00     0.002 A 
ENDBRANCH  18  19
ENDBRANCH  17  18
ENDBRANCH   1  17
TORSDOF 5
ENDMDL
MODEL 6
REMARK VINA RESULT:      -8.7      4.280      9.988
REMARK  5 active torsions:
REMARK  status: ('A' for Active; 'I' for Inactive)
REMARK    1  A    between atoms: C_6  and  S_7 
REMARK    2  A    between atoms: S_7  and  C_8 
REMARK    3  A    between atoms: C_8  and  C_9 
REMARK       I    between atoms: C_9  and  N_10 
REMARK    4  A    between atoms: N_10  and  C_11 
REMARK    5  A    between atoms: C_14  and  C_15 
ROOT
HETATM    1  C   UNL     1      24.301  44.378  50.070  1.00  0.00     0.233 C 
HETATM    2  N   UNL     1      25.476  45.093  50.173  1.00  0.00    -0.305 N 
HETATM    3  O   UNL     1      23.665  43.892  51.003  1.00  0.00    -0.272 OA
HETATM    4  H   UNL     1      25.972  45.372  49.339  1.00  0.00     0.171 HD
ENDROOT
BRANCH   2   5
HETATM    5  C   UNL     1      26.050  45.389  51.376  1.00  0.00     0.173 A 
HETATM    6  S   UNL     1      25.356  46.724  52.178  1.00  0.00    -0.061 SA
HETATM    7  C   UNL     1      26.455  46.482  53.480  1.00  0.00     0.085 A 
HETATM    8  C   UNL     1      27.270  45.395  53.217  1.00  0.00     0.076 A 
HETATM    9  N   UNL     1      27.025  44.785  51.996  1.00  0.00    -0.223 NA
BRANCH   8  10
HETATM   10  C   UNL     1      28.320  44.885  54.101  1.00  0.00    -0.007 A 
HETATM   11  C   UNL     1      28.943  43.644  53.901  1.00  0.00     0.015 A 
HETATM   12  C   UNL     1      29.950  43.202  54.769  1.00  0.00     0.020 A 
HETATM   13  C   UNL     1      30.343  43.999  55.840  1.00  0.00     0.011 A 
HETATM   14 BR   UNL     1      31.707  43.401  57.005  1.00  0.00    -0.051 Br
HETATM   15  C   UNL     1      29.742  45.234  56.055  1.00  0.00     0.020 A 
HETATM   16  C   UNL     1      28.737  45.672  55.188  1.00  0.00     0.015 A 
ENDBRANCH   8  10
ENDBRANCH   2   5
BRANCH   1  17
HETATM   17  C   UNL     1      23.745  44.306  48.658  1.00  0.00     0.184 C 
BRANCH  17  18
HETATM   18  S   UNL     1      21.967  44.680  48.600  1.00  0.00    -0.094 SA
BRANCH  18  19
HETATM   19  C   UNL     1      22.035  46.431  48.535  1.00  0.00     0.136 A 
HETATM   20  S   UNL     1      20.648  47.388  48.242  1.00  0.00    -0.061 SA
HETATM   21  C   UNL     1      21.613  48.811  48.345  1.00  0.00     0.036 A 
HETATM   22  C   UNL     1      22.938  48.441  48.597  1.00  0.00     0.075 A 
HETATM   23  C   UNL     1      21.232  50.157  48.212  1.00  0.00     0.021 A 
HETATM   24  C   UNL     1      23.911  49.452  48.727  1.00  0.00     0.033 A 
HETATM   25  N   UNL     1      23.163  47.079  48.695  1.00  0.00    -0.233 NA
HETATM   26  C   UNL     1      23.542  50.795  48.596  1.00  0.00     0.002 A 
HETATM   27  C   UNL     1      22.218  51.140  48.342  1.00  0.00     0.002 A 
ENDBRANCH  18  19
ENDBRANCH  17  18
ENDBRANCH   1  17
TORSDOF 5
ENDMDL
MODEL 7
REMARK VINA RESULT:      -8.5      4.279     10.275
REMARK  5 active torsions:
REMARK  status: ('A' for Active; 'I' for Inactive)
REMARK    1  A    between atoms: C_6  and  S_7 
REMARK    2  A    between atoms: S_7  and  C_8 
REMARK    3  A    between atoms: C_8  and  C_9 
REMARK       I    between atoms: C_9  and  N_10 
REMARK    4  A    between atoms: N_10  and  C_11 
REMARK    5  A    between atoms: C_14  and  C_15 
ROOT
HETATM    1  C   UNL     1      25.252  43.569  50.162  1.00  0.00     0.233 C 
HETATM    2  N   UNL     1      26.625  43.483  50.079  1.00  0.00    -0.305 N 
HETATM    3  O   UNL     1      24.571  43.361  51.164  1.00  0.00    -0.272 OA
HETATM    4  H   UNL     1      27.085  43.582  49.186  1.00  0.00     0.171 HD
ENDROOT
BRANCH   2   5
HETATM    5  C   UNL     1      27.407  43.194  51.161  1.00  0.00     0.173 A 
HETATM    6  S   UNL     1      28.063  41.620  51.156  1.00  0.00    -0.061 SA
HETATM    7  C   UNL     1      28.864  41.975  52.637  1.00  0.00     0.085 A 
HETATM    8  C   UNL     1      28.581  43.272  53.030  1.00  0.00     0.076 A 
HETATM    9  N   UNL     1      27.734  43.953  52.169  1.00  0.00    -0.223 NA
BRANCH   8  10
HETATM   10  C   UNL     1      29.092  43.926  54.236  1.00  0.00    -0.007 A 
HETATM   11  C   UNL     1      28.484  45.057  54.801  1.00  0.00     0.015 A 
HETATM   12  C   UNL     1      29.005  45.643  55.962  1.00  0.00     0.020 A 
HETATM   13  C   UNL     1      30.135  45.101  56.568  1.00  0.00     0.011 A 
HETATM   14 BR   UNL     1      30.831  45.892  58.137  1.00  0.00    -0.051 Br
HETATM   15  C   UNL     1      30.752  43.979  56.026  1.00  0.00     0.020 A 
HETATM   16  C   UNL     1      30.231  43.396  54.867  1.00  0.00     0.015 A 
ENDBRANCH   8  10
ENDBRANCH   2   5
BRANCH   1  17
HETATM   17  C   UNL     1      24.588  44.067  48.889  1.00  0.00     0.184 C 
BRANCH  17  18
HETATM   18  S   UNL     1      22.836  44.481  49.145  1.00  0.00    -0.094 SA
BRANCH  18  19
HETATM   19  C   UNL     1      22.909  46.220  48.933  1.00  0.00     0.136 A 
HETATM   20  S   UNL     1      24.226  47.154  49.497  1.00  0.00    -0.061 SA
HETATM   21  C   UNL     1      23.467  48.579  48.898  1.00  0.00     0.036 A 
HETATM   22  C   UNL     1      22.250  48.228  48.307  1.00  0.00     0.075 A 
HETATM   23  C   UNL     1      23.910  49.912  48.946  1.00  0.00     0.021 A 
HETATM   24  C   UNL     1      21.453  49.243  47.739  1.00  0.00     0.033 A 
HETATM   25  N   UNL     1      21.942  46.879  48.342  1.00  0.00    -0.233 NA
HETATM   26  C   UNL     1      21.886  50.572  47.782  1.00  0.00     0.002 A 
HETATM   27  C   UNL     1      23.099  50.900  48.379  1.00  0.00     0.002 A 
ENDBRANCH  18  19
ENDBRANCH  17  18
ENDBRANCH   1  17
TORSDOF 5
ENDMDL
MODEL 8
REMARK VINA RESULT:      -8.2      3.732     10.768
REMARK  5 active torsions:
REMARK  status: ('A' for Active; 'I' for Inactive)
REMARK    1  A    between atoms: C_6  and  S_7 
REMARK    2  A    between atoms: S_7  and  C_8 
REMARK    3  A    between atoms: C_8  and  C_9 
REMARK       I    between atoms: C_9  and  N_10 
REMARK    4  A    between atoms: N_10  and  C_11 
REMARK    5  A    between atoms: C_14  and  C_15 
ROOT
HETATM    1  C   UNL     1      24.158  48.187  49.497  1.00  0.00     0.233 C 
HETATM    2  N   UNL     1      23.893  46.978  50.105  1.00  0.00    -0.305 N 
HETATM    3  O   UNL     1      25.235  48.779  49.499  1.00  0.00    -0.272 OA
HETATM    4  H   UNL     1      22.951  46.618  50.125  1.00  0.00     0.171 HD
ENDROOT
BRANCH   2   5
HETATM    5  C   UNL     1      24.855  46.260  50.756  1.00  0.00     0.173 A 
HETATM    6  S   UNL     1      25.400  44.884  49.910  1.00  0.00    -0.061 SA
HETATM    7  C   UNL     1      26.499  44.559  51.195  1.00  0.00     0.085 A 
HETATM    8  C   UNL     1      26.379  45.527  52.176  1.00  0.00     0.076 A 
HETATM    9  N   UNL     1      25.421  46.492  51.907  1.00  0.00    -0.223 NA
BRANCH   8  10
HETATM   10  C   UNL     1      27.158  45.583  53.415  1.00  0.00    -0.007 A 
HETATM   11  C   UNL     1      28.035  44.560  53.806  1.00  0.00     0.015 A 
HETATM   12  C   UNL     1      28.767  44.662  54.996  1.00  0.00     0.020 A 
HETATM   13  C   UNL     1      28.630  45.789  55.802  1.00  0.00     0.011 A 
HETATM   14 BR   UNL     1      29.624  45.926  57.404  1.00  0.00    -0.051 Br
HETATM   15  C   UNL     1      27.769  46.816  55.431  1.00  0.00     0.020 A 
HETATM   16  C   UNL     1      27.039  46.711  54.244  1.00  0.00     0.015 A 
ENDBRANCH   8  10
ENDBRANCH   2   5
BRANCH   1  17
HETATM   17  C   UNL     1      22.997  48.736  48.686  1.00  0.00     0.184 C 
BRANCH  17  18
HETATM   18  S   UNL     1      22.884  50.548  48.789  1.00  0.00    -0.094 SA
BRANCH  18  19
HETATM   19  C   UNL     1      21.145  50.743  48.674  1.00  0.00     0.136 A 
HETATM   20  S   UNL     1      20.215  49.954  47.475  1.00  0.00    -0.061 SA
HETATM   21  C   UNL     1      18.789  50.690  48.102  1.00  0.00     0.036 A 
HETATM   22  C   UNL     1      19.137  51.492  49.193  1.00  0.00     0.075 A 
HETATM   23  C   UNL     1      17.459  50.570  47.665  1.00  0.00     0.021 A 
HETATM   24  C   UNL     1      18.120  52.192  49.872  1.00  0.00     0.033 A 
HETATM   25  N   UNL     1      20.487  51.517  49.502  1.00  0.00    -0.233 NA
HETATM   26  C   UNL     1      16.793  52.079  49.444  1.00  0.00     0.002 A 
HETATM   27  C   UNL     1      16.470  51.278  48.353  1.00  0.00     0.002 A 
ENDBRANCH  18  19
ENDBRANCH  17  18
ENDBRANCH   1  17
TORSDOF 5
ENDMDL
MODEL 9
REMARK VINA RESULT:      -8.2      4.486     10.713
REMARK  5 active torsions:
REMARK  status: ('A' for Active; 'I' for Inactive)
REMARK    1  A    between atoms: C_6  and  S_7 
REMARK    2  A    between atoms: S_7  and  C_8 
REMARK    3  A    between atoms: C_8  and  C_9 
REMARK       I    between atoms: C_9  and  N_10 
REMARK    4  A    between atoms: N_10  and  C_11 
REMARK    5  A    between atoms: C_14  and  C_15 
ROOT
HETATM    1  C   UNL     1      23.797  44.502  49.196  1.00  0.00     0.233 C 
HETATM    2  N   UNL     1      25.158  44.484  48.974  1.00  0.00    -0.305 N 
HETATM    3  O   UNL     1      23.199  43.897  50.083  1.00  0.00    -0.272 OA
HETATM    4  H   UNL     1      25.544  44.941  48.161  1.00  0.00     0.171 HD
ENDROOT
BRANCH   2   5
HETATM    5  C   UNL     1      26.022  43.801  49.782  1.00  0.00     0.173 A 
HETATM    6  S   UNL     1      26.322  42.195  49.295  1.00  0.00    -0.061 SA
HETATM    7  C   UNL     1      27.403  42.021  50.623  1.00  0.00     0.085 A 
HETATM    8  C   UNL     1      27.466  43.201  51.342  1.00  0.00     0.076 A 
HETATM    9  N   UNL     1      26.657  44.211  50.845  1.00  0.00    -0.223 NA
BRANCH   8  10
HETATM   10  C   UNL     1      28.287  43.430  52.532  1.00  0.00    -0.007 A 
HETATM   11  C   UNL     1      27.878  44.258  53.588  1.00  0.00     0.015 A 
HETATM   12  C   UNL     1      28.695  44.439  54.711  1.00  0.00     0.020 A 
HETATM   13  C   UNL     1      29.925  43.792  54.789  1.00  0.00     0.011 A 
HETATM   14 BR   UNL     1      31.021  44.035  56.309  1.00  0.00    -0.051 Br
HETATM   15  C   UNL     1      30.349  42.964  53.755  1.00  0.00     0.020 A 
HETATM   16  C   UNL     1      29.532  42.785  52.635  1.00  0.00     0.015 A 
ENDBRANCH   8  10
ENDBRANCH   2   5
BRANCH   1  17
HETATM   17  C   UNL     1      23.038  45.455  48.288  1.00  0.00     0.184 C 
BRANCH  17  18
HETATM   18  S   UNL     1      21.237  45.266  48.447  1.00  0.00    -0.094 SA
BRANCH  18  19
HETATM   19  C   UNL     1      20.754  46.949  48.358  1.00  0.00     0.136 A 
HETATM   20  S   UNL     1      19.255  47.435  47.692  1.00  0.00    -0.061 SA
HETATM   21  C   UNL     1      19.653  49.081  48.008  1.00  0.00     0.036 A 
HETATM   22  C   UNL     1      20.916  49.134  48.604  1.00  0.00     0.075 A 
HETATM   23  C   UNL     1      18.908  50.243  47.747  1.00  0.00     0.021 A 
HETATM   24  C   UNL     1      21.447  50.391  48.958  1.00  0.00     0.033 A 
HETATM   25  N   UNL     1      21.535  47.910  48.791  1.00  0.00    -0.233 NA
HETATM   26  C   UNL     1      20.712  51.553  48.703  1.00  0.00     0.002 A 
HETATM   27  C   UNL     1      19.458  51.477  48.104  1.00  0.00     0.002 A 
ENDBRANCH  18  19
ENDBRANCH  17  18
ENDBRANCH   1  17
TORSDOF 5
ENDMDL
MODEL 10
REMARK VINA RESULT:      -7.9      6.842      9.684
REMARK  5 active torsions:
REMARK  status: ('A' for Active; 'I' for Inactive)
REMARK    1  A    between atoms: C_6  and  S_7 
REMARK    2  A    between atoms: S_7  and  C_8 
REMARK    3  A    between atoms: C_8  and  C_9 
REMARK       I    between atoms: C_9  and  N_10 
REMARK    4  A    between atoms: N_10  and  C_11 
REMARK    5  A    between atoms: C_14  and  C_15 
ROOT
HETATM    1  C   UNL     1      25.552  41.721  48.697  1.00  0.00     0.233 C 
HETATM    2  N   UNL     1      26.581  42.635  48.775  1.00  0.00    -0.305 N 
HETATM    3  O   UNL     1      24.818  41.375  49.620  1.00  0.00    -0.272 OA
HETATM    4  H   UNL     1      27.187  42.784  47.982  1.00  0.00     0.171 HD
ENDROOT
BRANCH   2   5
HETATM    5  C   UNL     1      26.870  43.315  49.923  1.00  0.00     0.173 A 
HETATM    6  S   UNL     1      25.908  44.698  50.185  1.00  0.00    -0.061 SA
HETATM    7  C   UNL     1      26.739  44.966  51.668  1.00  0.00     0.085 A 
HETATM    8  C   UNL     1      27.688  43.979  51.865  1.00  0.00     0.076 A 
HETATM    9  N   UNL     1      27.752  43.042  50.844  1.00  0.00    -0.223 NA
BRANCH   8  10
HETATM   10  C   UNL     1      28.580  43.875  53.021  1.00  0.00    -0.007 A 
HETATM   11  C   UNL     1      29.632  42.948  53.087  1.00  0.00     0.015 A 
HETATM   12  C   UNL     1      30.466  42.892  54.210  1.00  0.00     0.020 A 
HETATM   13  C   UNL     1      30.257  43.764  55.276  1.00  0.00     0.011 A 
HETATM   14 BR   UNL     1      31.388  43.689  56.788  1.00  0.00    -0.051 Br
HETATM   15  C   UNL     1      29.222  44.693  55.230  1.00  0.00     0.020 A 
HETATM   16  C   UNL     1      28.392  44.746  54.107  1.00  0.00     0.015 A 
ENDBRANCH   8  10
ENDBRANCH   2   5
BRANCH   1  17
HETATM   17  C   UNL     1      25.291  41.206  47.291  1.00  0.00     0.184 C 
BRANCH  17  18
HETATM   18  S   UNL     1      26.818  40.678  46.459  1.00  0.00    -0.094 SA
BRANCH  18  19
HETATM   19  C   UNL     1      27.457  39.590  47.676  1.00  0.00     0.136 A 
HETATM   20  S   UNL     1      26.705  38.101  48.055  1.00  0.00    -0.061 SA
HETATM   21  C   UNL     1      27.924  37.791  49.233  1.00  0.00     0.036 A 
HETATM   22  C   UNL     1      28.822  38.862  49.247  1.00  0.00     0.075 A 
HETATM   23  C   UNL     1      28.077  36.684  50.085  1.00  0.00     0.021 A 
HETATM   24  C   UNL     1      29.913  38.820  50.138  1.00  0.00     0.033 A 
HETATM   25  N   UNL     1      28.538  39.884  48.358  1.00  0.00    -0.233 NA
HETATM   26  C   UNL     1      30.074  37.723  50.990  1.00  0.00     0.002 A 
HETATM   27  C   UNL     1      29.166  36.669  50.962  1.00  0.00     0.002 A 
ENDBRANCH  18  19
ENDBRANCH  17  18
ENDBRANCH   1  17
TORSDOF 5
ENDMDL
