MODEL 1
REMARK VINA RESULT:      -8.6      0.000      0.000
REMARK  8 active torsions:
REMARK  status: ('A' for Active; 'I' for Inactive)
REMARK    1  A    between atoms: C_8  and  C_9 
REMARK       I    between atoms: C_9  and  N_10 
REMARK    2  A    between atoms: N_10  and  N_11 
REMARK    3  A    between atoms: N_11  and  C_12 
REMARK    4  A    between atoms: C_12  and  N_13 
REMARK    5  A    between atoms: N_13  and  C_14 
REMARK    6  A    between atoms: C_15  and  O_16 
REMARK    7  A    between atoms: C_19  and  O_20 
REMARK    8  A    between atoms: C_26  and  C_27 
ROOT
HETATM    1  C   UNL     1      24.501  45.441  50.575  1.00  0.00     0.275 C 
HETATM    2  N   UNL     1      25.699  45.101  51.172  1.00  0.00    -0.263 N 
HETATM    3  O   UNL     1      23.543  44.672  50.522  1.00  0.00    -0.266 OA
HETATM    4  H   UNL     1      26.547  45.631  50.982  1.00  0.00     0.190 HD
ENDROOT
BRANCH   2   5
HETATM    5  N   UNL     1      25.827  43.849  51.783  1.00  0.00    -0.273 N 
HETATM    6  H   UNL     1      24.960  43.311  51.829  1.00  0.00     0.189 HD
BRANCH   5   7
HETATM    7  C   UNL     1      27.001  43.143  51.737  1.00  0.00     0.191 C 
HETATM    8  S   UNL     1      27.114  41.516  51.352  1.00  0.00    -0.039 SA
BRANCH   7   9
HETATM    9  N   UNL     1      28.146  43.821  52.044  1.00  0.00    -0.330 N 
HETATM   10  H   UNL     1      28.514  44.396  51.289  1.00  0.00     0.168 HD
BRANCH   9  11
HETATM   11  C   UNL     1      28.863  43.956  53.256  1.00  0.00     0.068 A 
HETATM   12  C   UNL     1      28.403  44.927  54.171  1.00  0.00     0.097 A 
HETATM   13  C   UNL     1      29.038  45.084  55.411  1.00  0.00     0.075 A 
HETATM   14  C   UNL     1      30.122  44.272  55.753  1.00  0.00     0.070 A 
HETATM   15  C   UNL     1      30.563  43.304  54.852  1.00  0.00     0.039 A 
HETATM   16  C   UNL     1      29.934  43.137  53.617  1.00  0.00     0.035 A 
BRANCH  12  17
HETATM   17  O   UNL     1      27.317  45.662  53.749  1.00  0.00    -0.354 OA
HETATM   18  C   UNL     1      27.137  46.949  54.325  1.00  0.00     0.210 C 
ENDBRANCH  12  17
BRANCH  14  19
HETATM   19  O   UNL     1      30.824  44.312  56.926  1.00  0.00    -0.356 OA
HETATM   20  C   UNL     1      31.803  43.301  57.133  1.00  0.00     0.210 C 
ENDBRANCH  14  19
ENDBRANCH   9  11
ENDBRANCH   7   9
ENDBRANCH   5   7
ENDBRANCH   2   5
BRANCH   1  21
HETATM   21  C   UNL     1      24.472  46.772  50.013  1.00  0.00     0.098 A 
HETATM   22  C   UNL     1      23.419  47.439  49.413  1.00  0.00     0.138 A 
HETATM   23  N   UNL     1      22.148  47.081  49.102  1.00  0.00    -0.370 N 
HETATM   24  N   UNL     1      23.913  48.668  49.057  1.00  0.00    -0.240 N 
HETATM   25  C   UNL     1      21.247  47.985  48.386  1.00  0.00     0.081 C 
HETATM   26  H   UNL     1      21.838  46.111  49.173  1.00  0.00     0.161 HD
HETATM   27  C   UNL     1      20.282  47.164  47.531  1.00  0.00     0.032 C 
HETATM   28  C   UNL     1      22.051  48.959  47.512  1.00  0.00     0.061 C 
HETATM   29  C   UNL     1      23.157  49.662  48.319  1.00  0.00     0.221 C 
HETATM   30  N   UNL     1      25.225  48.821  49.296  1.00  0.00    -0.181 NA
HETATM   31  C   UNL     1      25.561  47.671  49.889  1.00  0.00     0.160 A 
BRANCH  29  32
HETATM   32  C   UNL     1      22.618  50.708  49.267  1.00  0.00     0.409 C 
HETATM   33  F   UNL     1      21.617  51.445  48.737  1.00  0.00    -0.169 F 
HETATM   34  F   UNL     1      22.170  50.181  50.426  1.00  0.00    -0.169 F 
HETATM   35  F   UNL     1      23.607  51.579  49.598  1.00  0.00    -0.169 F 
ENDBRANCH  29  32
ENDBRANCH   1  21
TORSDOF 8
ENDMDL
MODEL 2
REMARK VINA RESULT:      -8.5      4.635     10.040
REMARK  8 active torsions:
REMARK  status: ('A' for Active; 'I' for Inactive)
REMARK    1  A    between atoms: C_8  and  C_9 
REMARK       I    between atoms: C_9  and  N_10 
REMARK    2  A    between atoms: N_10  and  N_11 
REMARK    3  A    between atoms: N_11  and  C_12 
REMARK    4  A    between atoms: C_12  and  N_13 
REMARK    5  A    between atoms: N_13  and  C_14 
REMARK    6  A    between atoms: C_15  and  O_16 
REMARK    7  A    between atoms: C_19  and  O_20 
REMARK    8  A    between atoms: C_26  and  C_27 
ROOT
HETATM    1  C   UNL     1      25.051  46.799  50.877  1.00  0.00     0.275 C 
HETATM    2  N   UNL     1      24.198  46.919  49.797  1.00  0.00    -0.263 N 
HETATM    3  O   UNL     1      25.026  47.571  51.833  1.00  0.00    -0.266 OA
HETATM    4  H   UNL     1      24.400  46.449  48.917  1.00  0.00     0.190 HD
ENDROOT
BRANCH   2   5
HETATM    5  N   UNL     1      23.233  47.932  49.799  1.00  0.00    -0.273 N 
HETATM    6  H   UNL     1      22.874  48.171  50.725  1.00  0.00     0.189 HD
BRANCH   5   7
HETATM    7  C   UNL     1      23.224  48.919  48.848  1.00  0.00     0.191 C 
HETATM    8  S   UNL     1      24.571  49.808  48.394  1.00  0.00    -0.039 SA
BRANCH   7   9
HETATM    9  N   UNL     1      22.029  49.196  48.251  1.00  0.00    -0.330 N 
HETATM   10  H   UNL     1      21.915  48.795  47.322  1.00  0.00     0.168 HD
BRANCH   9  11
HETATM   11  C   UNL     1      20.870  49.855  48.726  1.00  0.00     0.068 A 
HETATM   12  C   UNL     1      19.863  49.050  49.300  1.00  0.00     0.097 A 
HETATM   13  C   UNL     1      18.708  49.639  49.833  1.00  0.00     0.075 A 
HETATM   14  C   UNL     1      18.553  51.027  49.809  1.00  0.00     0.070 A 
HETATM   15  C   UNL     1      19.557  51.819  49.255  1.00  0.00     0.039 A 
HETATM   16  C   UNL     1      20.713  51.242  48.726  1.00  0.00     0.035 A 
BRANCH  12  17
HETATM   17  O   UNL     1      20.119  47.696  49.294  1.00  0.00    -0.354 OA
HETATM   18  C   UNL     1      19.193  46.860  48.613  1.00  0.00     0.210 C 
ENDBRANCH  12  17
BRANCH  14  19
HETATM   19  O   UNL     1      17.487  51.730  50.299  1.00  0.00    -0.356 OA
HETATM   20  C   UNL     1      16.885  52.686  49.435  1.00  0.00     0.210 C 
ENDBRANCH  14  19
ENDBRANCH   9  11
ENDBRANCH   7   9
ENDBRANCH   5   7
ENDBRANCH   2   5
BRANCH   1  21
HETATM   21  C   UNL     1      25.978  45.694  50.783  1.00  0.00     0.098 A 
HETATM   22  C   UNL     1      26.639  45.027  51.798  1.00  0.00     0.138 A 
HETATM   23  N   UNL     1      26.699  45.203  53.143  1.00  0.00    -0.370 N 
HETATM   24  N   UNL     1      27.394  44.063  51.180  1.00  0.00    -0.240 N 
HETATM   25  C   UNL     1      27.556  44.374  53.991  1.00  0.00     0.081 C 
HETATM   26  H   UNL     1      26.312  46.037  53.586  1.00  0.00     0.161 HD
HETATM   27  C   UNL     1      28.026  45.194  55.191  1.00  0.00     0.032 C 
HETATM   28  C   UNL     1      28.758  43.852  53.188  1.00  0.00     0.061 C 
HETATM   29  C   UNL     1      28.314  43.183  51.875  1.00  0.00     0.221 C 
HETATM   30  N   UNL     1      27.346  44.107  49.839  1.00  0.00    -0.181 NA
HETATM   31  C   UNL     1      26.474  45.093  49.600  1.00  0.00     0.160 A 
BRANCH  29  32
HETATM   32  C   UNL     1      27.671  41.833  52.093  1.00  0.00     0.409 C 
HETATM   33  F   UNL     1      27.759  41.397  53.368  1.00  0.00    -0.169 F 
HETATM   34  F   UNL     1      26.368  41.813  51.742  1.00  0.00    -0.169 F 
HETATM   35  F   UNL     1      28.291  40.901  51.321  1.00  0.00    -0.169 F 
ENDBRANCH  29  32
ENDBRANCH   1  21
TORSDOF 8
ENDMDL
MODEL 3
REMARK VINA RESULT:      -8.4      4.697      7.819
REMARK  8 active torsions:
REMARK  status: ('A' for Active; 'I' for Inactive)
REMARK    1  A    between atoms: C_8  and  C_9 
REMARK       I    between atoms: C_9  and  N_10 
REMARK    2  A    between atoms: N_10  and  N_11 
REMARK    3  A    between atoms: N_11  and  C_12 
REMARK    4  A    between atoms: C_12  and  N_13 
REMARK    5  A    between atoms: N_13  and  C_14 
REMARK    6  A    between atoms: C_15  and  O_16 
REMARK    7  A    between atoms: C_19  and  O_20 
REMARK    8  A    between atoms: C_26  and  C_27 
ROOT
HETATM    1  C   UNL     1      28.927  42.143  53.309  1.00  0.00     0.275 C 
HETATM    2  N   UNL     1      27.572  41.876  53.352  1.00  0.00    -0.263 N 
HETATM    3  O   UNL     1      29.700  41.536  52.570  1.00  0.00    -0.266 OA
HETATM    4  H   UNL     1      27.002  42.191  54.134  1.00  0.00     0.190 HD
ENDROOT
BRANCH   2   5
HETATM    5  N   UNL     1      27.038  40.908  52.494  1.00  0.00    -0.273 N 
HETATM    6  H   UNL     1      26.552  40.145  52.969  1.00  0.00     0.189 HD
BRANCH   5   7
HETATM    7  C   UNL     1      26.626  41.221  51.226  1.00  0.00     0.191 C 
HETATM    8  S   UNL     1      27.162  40.450  49.837  1.00  0.00    -0.039 SA
BRANCH   7   9
HETATM    9  N   UNL     1      25.730  42.243  51.098  1.00  0.00    -0.330 N 
HETATM   10  H   UNL     1      24.795  42.034  51.445  1.00  0.00     0.168 HD
BRANCH   9  11
HETATM   11  C   UNL     1      25.885  43.582  50.667  1.00  0.00     0.068 A 
HETATM   12  C   UNL     1      24.718  44.373  50.594  1.00  0.00     0.097 A 
HETATM   13  C   UNL     1      24.803  45.721  50.218  1.00  0.00     0.075 A 
HETATM   14  C   UNL     1      26.043  46.292  49.926  1.00  0.00     0.070 A 
HETATM   15  C   UNL     1      27.194  45.510  50.014  1.00  0.00     0.039 A 
HETATM   16  C   UNL     1      27.121  44.168  50.392  1.00  0.00     0.035 A 
BRANCH  12  17
HETATM   17  O   UNL     1      23.548  43.724  50.921  1.00  0.00    -0.354 OA
HETATM   18  C   UNL     1      22.518  43.701  49.941  1.00  0.00     0.210 C 
ENDBRANCH  12  17
BRANCH  14  19
HETATM   19  O   UNL     1      26.271  47.589  49.557  1.00  0.00    -0.356 OA
HETATM   20  C   UNL     1      27.571  47.912  49.082  1.00  0.00     0.210 C 
ENDBRANCH  14  19
ENDBRANCH   9  11
ENDBRANCH   7   9
ENDBRANCH   5   7
ENDBRANCH   2   5
BRANCH   1  21
HETATM   21  C   UNL     1      29.356  43.188  54.210  1.00  0.00     0.098 A 
HETATM   22  C   UNL     1      28.714  44.367  54.540  1.00  0.00     0.138 A 
HETATM   23  N   UNL     1      27.564  44.951  54.116  1.00  0.00    -0.370 N 
HETATM   24  N   UNL     1      29.538  45.002  55.434  1.00  0.00    -0.240 N 
HETATM   25  C   UNL     1      27.149  46.270  54.595  1.00  0.00     0.081 C 
HETATM   26  H   UNL     1      27.055  44.593  53.308  1.00  0.00     0.161 HD
HETATM   27  C   UNL     1      26.362  46.982  53.495  1.00  0.00     0.032 C 
HETATM   28  C   UNL     1      28.374  47.100  55.008  1.00  0.00     0.061 C 
HETATM   29  C   UNL     1      29.283  46.322  55.977  1.00  0.00     0.221 C 
HETATM   30  N   UNL     1      30.706  44.373  55.643  1.00  0.00    -0.181 NA
HETATM   31  C   UNL     1      30.588  43.263  54.906  1.00  0.00     0.160 A 
BRANCH  29  32
HETATM   32  C   UNL     1      28.697  46.205  57.365  1.00  0.00     0.409 C 
HETATM   33  F   UNL     1      27.851  47.211  57.676  1.00  0.00    -0.169 F 
HETATM   34  F   UNL     1      28.038  45.042  57.556  1.00  0.00    -0.169 F 
HETATM   35  F   UNL     1      29.694  46.238  58.287  1.00  0.00    -0.169 F 
ENDBRANCH  29  32
ENDBRANCH   1  21
TORSDOF 8
ENDMDL
MODEL 4
REMARK VINA RESULT:      -8.3      4.388      9.642
REMARK  8 active torsions:
REMARK  status: ('A' for Active; 'I' for Inactive)
REMARK    1  A    between atoms: C_8  and  C_9 
REMARK       I    between atoms: C_9  and  N_10 
REMARK    2  A    between atoms: N_10  and  N_11 
REMARK    3  A    between atoms: N_11  and  C_12 
REMARK    4  A    between atoms: C_12  and  N_13 
REMARK    5  A    between atoms: N_13  and  C_14 
REMARK    6  A    between atoms: C_15  and  O_16 
REMARK    7  A    between atoms: C_19  and  O_20 
REMARK    8  A    between atoms: C_26  and  C_27 
ROOT
HETATM    1  C   UNL     1      24.765  45.043  51.910  1.00  0.00     0.275 C 
HETATM    2  N   UNL     1      25.009  46.391  51.739  1.00  0.00    -0.263 N 
HETATM    3  O   UNL     1      23.867  44.449  51.316  1.00  0.00    -0.266 OA
HETATM    4  H   UNL     1      25.566  46.912  52.413  1.00  0.00     0.190 HD
ENDROOT
BRANCH   2   5
HETATM    5  N   UNL     1      24.238  47.114  50.822  1.00  0.00    -0.273 N 
HETATM    6  H   UNL     1      23.361  47.475  51.201  1.00  0.00     0.189 HD
BRANCH   5   7
HETATM    7  C   UNL     1      24.813  47.815  49.794  1.00  0.00     0.191 C 
HETATM    8  S   UNL     1      26.459  48.093  49.641  1.00  0.00    -0.039 SA
BRANCH   7   9
HETATM    9  N   UNL     1      23.975  48.329  48.847  1.00  0.00    -0.330 N 
HETATM   10  H   UNL     1      24.189  48.046  47.893  1.00  0.00     0.168 HD
BRANCH   9  11
HETATM   11  C   UNL     1      22.795  49.102  48.955  1.00  0.00     0.068 A 
HETATM   12  C   UNL     1      21.567  48.407  48.939  1.00  0.00     0.097 A 
HETATM   13  C   UNL     1      20.360  49.105  49.087  1.00  0.00     0.075 A 
HETATM   14  C   UNL     1      20.367  50.490  49.264  1.00  0.00     0.070 A 
HETATM   15  C   UNL     1      21.583  51.170  49.294  1.00  0.00     0.039 A 
HETATM   16  C   UNL     1      22.790  50.484  49.152  1.00  0.00     0.035 A 
BRANCH  12  17
HETATM   17  O   UNL     1      21.668  47.042  48.780  1.00  0.00    -0.354 OA
HETATM   18  C   UNL     1      20.652  46.396  48.024  1.00  0.00     0.210 C 
ENDBRANCH  12  17
BRANCH  14  19
HETATM   19  O   UNL     1      19.270  51.290  49.429  1.00  0.00    -0.356 OA
HETATM   20  C   UNL     1      19.106  52.366  48.515  1.00  0.00     0.210 C 
ENDBRANCH  14  19
ENDBRANCH   9  11
ENDBRANCH   7   9
ENDBRANCH   5   7
ENDBRANCH   2   5
BRANCH   1  21
HETATM   21  C   UNL     1      25.649  44.393  52.852  1.00  0.00     0.098 A 
HETATM   22  C   UNL     1      26.671  43.494  52.604  1.00  0.00     0.138 A 
HETATM   23  N   UNL     1      27.131  42.896  51.476  1.00  0.00    -0.370 N 
HETATM   24  N   UNL     1      27.198  43.184  53.832  1.00  0.00    -0.240 N 
HETATM   25  C   UNL     1      28.209  41.907  51.514  1.00  0.00     0.081 C 
HETATM   26  H   UNL     1      26.619  42.958  50.596  1.00  0.00     0.161 HD
HETATM   27  C   UNL     1      28.010  40.898  50.384  1.00  0.00     0.032 C 
HETATM   28  C   UNL     1      28.234  41.196  52.877  1.00  0.00     0.061 C 
HETATM   29  C   UNL     1      28.246  42.204  54.040  1.00  0.00     0.221 C 
HETATM   30  N   UNL     1      26.543  43.739  54.864  1.00  0.00    -0.181 NA
HETATM   31  C   UNL     1      25.608  44.484  54.265  1.00  0.00     0.160 A 
BRANCH  29  32
HETATM   32  C   UNL     1      29.578  42.899  54.200  1.00  0.00     0.409 C 
HETATM   33  F   UNL     1      30.528  42.437  53.359  1.00  0.00    -0.169 F 
HETATM   34  F   UNL     1      29.492  44.236  54.028  1.00  0.00    -0.169 F 
HETATM   35  F   UNL     1      30.048  42.704  55.460  1.00  0.00    -0.169 F 
ENDBRANCH  29  32
ENDBRANCH   1  21
TORSDOF 8
ENDMDL
MODEL 5
REMARK VINA RESULT:      -8.2      2.052      2.621
REMARK  8 active torsions:
REMARK  status: ('A' for Active; 'I' for Inactive)
REMARK    1  A    between atoms: C_8  and  C_9 
REMARK       I    between atoms: C_9  and  N_10 
REMARK    2  A    between atoms: N_10  and  N_11 
REMARK    3  A    between atoms: N_11  and  C_12 
REMARK    4  A    between atoms: C_12  and  N_13 
REMARK    5  A    between atoms: N_13  and  C_14 
REMARK    6  A    between atoms: C_15  and  O_16 
REMARK    7  A    between atoms: C_19  and  O_20 
REMARK    8  A    between atoms: C_26  and  C_27 
ROOT
HETATM    1  C   UNL     1      25.463  48.168  49.389  1.00  0.00     0.275 C 
HETATM    2  N   UNL     1      25.074  47.536  50.554  1.00  0.00    -0.263 N 
HETATM    3  O   UNL     1      26.578  48.019  48.892  1.00  0.00    -0.266 OA
HETATM    4  H   UNL     1      24.268  47.864  51.082  1.00  0.00     0.190 HD
ENDROOT
BRANCH   2   5
HETATM    5  N   UNL     1      25.960  46.654  51.181  1.00  0.00    -0.273 N 
HETATM    6  H   UNL     1      26.859  47.067  51.434  1.00  0.00     0.189 HD
BRANCH   5   7
HETATM    7  C   UNL     1      25.512  45.610  51.948  1.00  0.00     0.191 C 
HETATM    8  S   UNL     1      24.678  44.284  51.350  1.00  0.00    -0.039 SA
BRANCH   7   9
HETATM    9  N   UNL     1      25.754  45.676  53.290  1.00  0.00    -0.330 N 
HETATM   10  H   UNL     1      24.918  45.717  53.870  1.00  0.00     0.168 HD
BRANCH   9  11
HETATM   11  C   UNL     1      26.954  45.593  54.034  1.00  0.00     0.068 A 
HETATM   12  C   UNL     1      27.303  46.714  54.818  1.00  0.00     0.097 A 
HETATM   13  C   UNL     1      28.456  46.684  55.616  1.00  0.00     0.075 A 
HETATM   14  C   UNL     1      29.258  45.542  55.649  1.00  0.00     0.070 A 
HETATM   15  C   UNL     1      28.901  44.432  54.885  1.00  0.00     0.039 A 
HETATM   16  C   UNL     1      27.753  44.449  54.091  1.00  0.00     0.035 A 
BRANCH  12  17
HETATM   17  O   UNL     1      26.438  47.782  54.732  1.00  0.00    -0.354 OA
HETATM   18  C   UNL     1      26.319  48.619  55.875  1.00  0.00     0.210 C 
ENDBRANCH  12  17
BRANCH  14  19
HETATM   19  O   UNL     1      30.398  45.374  56.386  1.00  0.00    -0.356 OA
HETATM   20  C   UNL     1      30.385  45.858  57.723  1.00  0.00     0.210 C 
ENDBRANCH  14  19
ENDBRANCH   9  11
ENDBRANCH   7   9
ENDBRANCH   5   7
ENDBRANCH   2   5
BRANCH   1  21
HETATM   21  C   UNL     1      24.452  49.024  48.809  1.00  0.00     0.098 A 
HETATM   22  C   UNL     1      23.086  48.826  48.737  1.00  0.00     0.138 A 
HETATM   23  N   UNL     1      22.273  47.802  49.100  1.00  0.00    -0.370 N 
HETATM   24  N   UNL     1      22.584  49.930  48.096  1.00  0.00    -0.240 N 
HETATM   25  C   UNL     1      20.834  47.829  48.835  1.00  0.00     0.081 C 
HETATM   26  H   UNL     1      22.654  46.898  49.384  1.00  0.00     0.161 HD
HETATM   27  C   UNL     1      20.334  46.403  48.611  1.00  0.00     0.032 C 
HETATM   28  C   UNL     1      20.532  48.709  47.612  1.00  0.00     0.061 C 
HETATM   29  C   UNL     1      21.189  50.095  47.736  1.00  0.00     0.221 C 
HETATM   30  N   UNL     1      23.524  50.788  47.666  1.00  0.00    -0.181 NA
HETATM   31  C   UNL     1      24.660  50.240  48.112  1.00  0.00     0.160 A 
BRANCH  29  32
HETATM   32  C   UNL     1      20.498  50.984  48.743  1.00  0.00     0.409 C 
HETATM   33  F   UNL     1      21.101  50.994  49.952  1.00  0.00    -0.169 F 
HETATM   34  F   UNL     1      20.394  52.263  48.325  1.00  0.00    -0.169 F 
HETATM   35  F   UNL     1      19.229  50.543  48.949  1.00  0.00    -0.169 F 
ENDBRANCH  29  32
ENDBRANCH   1  21
TORSDOF 8
ENDMDL
MODEL 6
REMARK VINA RESULT:      -8.2      4.675     10.085
REMARK  8 active torsions:
REMARK  status: ('A' for Active; 'I' for Inactive)
REMARK    1  A    between atoms: C_8  and  C_9 
REMARK       I    between atoms: C_9  and  N_10 
REMARK    2  A    between atoms: N_10  and  N_11 
REMARK    3  A    between atoms: N_11  and  C_12 
REMARK    4  A    between atoms: C_12  and  N_13 
REMARK    5  A    between atoms: N_13  and  C_14 
REMARK    6  A    between atoms: C_15  and  O_16 
REMARK    7  A    between atoms: C_19  and  O_20 
REMARK    8  A    between atoms: C_26  and  C_27 
ROOT
HETATM    1  C   UNL     1      25.029  47.633  50.113  1.00  0.00     0.275 C 
HETATM    2  N   UNL     1      23.666  47.412  50.087  1.00  0.00    -0.263 N 
HETATM    3  O   UNL     1      25.552  48.620  49.600  1.00  0.00    -0.266 OA
HETATM    4  H   UNL     1      23.282  46.489  50.276  1.00  0.00     0.190 HD
ENDROOT
BRANCH   2   5
HETATM    5  N   UNL     1      22.830  48.365  49.493  1.00  0.00    -0.273 N 
HETATM    6  H   UNL     1      23.322  49.162  49.086  1.00  0.00     0.189 HD
BRANCH   5   7
HETATM    7  C   UNL     1      21.627  48.018  48.935  1.00  0.00     0.191 C 
HETATM    8  S   UNL     1      21.458  47.215  47.473  1.00  0.00    -0.039 SA
BRANCH   7   9
HETATM    9  N   UNL     1      20.500  48.371  49.619  1.00  0.00    -0.330 N 
HETATM   10  H   UNL     1      20.211  47.704  50.332  1.00  0.00     0.168 HD
BRANCH   9  11
HETATM   11  C   UNL     1      19.714  49.546  49.593  1.00  0.00     0.068 A 
HETATM   12  C   UNL     1      18.323  49.394  49.781  1.00  0.00     0.097 A 
HETATM   13  C   UNL     1      17.488  50.520  49.813  1.00  0.00     0.075 A 
HETATM   14  C   UNL     1      18.029  51.799  49.670  1.00  0.00     0.070 A 
HETATM   15  C   UNL     1      19.405  51.946  49.500  1.00  0.00     0.039 A 
HETATM   16  C   UNL     1      20.245  50.831  49.472  1.00  0.00     0.035 A 
BRANCH  12  17
HETATM   17  O   UNL     1      17.890  48.095  49.932  1.00  0.00    -0.354 OA
HETATM   18  C   UNL     1      17.105  47.542  48.884  1.00  0.00     0.210 C 
ENDBRANCH  12  17
BRANCH  14  19
HETATM   19  O   UNL     1      17.336  52.978  49.690  1.00  0.00    -0.356 OA
HETATM   20  C   UNL     1      15.927  52.901  49.869  1.00  0.00     0.210 C 
ENDBRANCH  14  19
ENDBRANCH   9  11
ENDBRANCH   7   9
ENDBRANCH   5   7
ENDBRANCH   2   5
BRANCH   1  21
HETATM   21  C   UNL     1      25.786  46.603  50.787  1.00  0.00     0.098 A 
HETATM   22  C   UNL     1      26.061  46.470  52.136  1.00  0.00     0.138 A 
HETATM   23  N   UNL     1      25.792  47.240  53.220  1.00  0.00    -0.370 N 
HETATM   24  N   UNL     1      26.809  45.326  52.251  1.00  0.00    -0.240 N 
HETATM   25  C   UNL     1      26.275  46.885  54.555  1.00  0.00     0.081 C 
HETATM   26  H   UNL     1      25.422  48.185  53.120  1.00  0.00     0.161 HD
HETATM   27  C   UNL     1      26.525  48.161  55.358  1.00  0.00     0.032 C 
HETATM   28  C   UNL     1      27.560  46.049  54.454  1.00  0.00     0.061 C 
HETATM   29  C   UNL     1      27.385  44.857  53.497  1.00  0.00     0.221 C 
HETATM   30  N   UNL     1      27.119  44.754  51.077  1.00  0.00    -0.181 NA
HETATM   31  C   UNL     1      26.485  45.526  50.187  1.00  0.00     0.160 A 
BRANCH  29  32
HETATM   32  C   UNL     1      26.527  43.757  54.079  1.00  0.00     0.409 C 
HETATM   33  F   UNL     1      26.979  42.517  53.792  1.00  0.00    -0.169 F 
HETATM   34  F   UNL     1      26.403  43.848  55.420  1.00  0.00    -0.169 F 
HETATM   35  F   UNL     1      25.270  43.839  53.570  1.00  0.00    -0.169 F 
ENDBRANCH  29  32
ENDBRANCH   1  21
TORSDOF 8
ENDMDL
MODEL 7
REMARK VINA RESULT:      -8.1      4.535     10.104
REMARK  8 active torsions:
REMARK  status: ('A' for Active; 'I' for Inactive)
REMARK    1  A    between atoms: C_8  and  C_9 
REMARK       I    between atoms: C_9  and  N_10 
REMARK    2  A    between atoms: N_10  and  N_11 
REMARK    3  A    between atoms: N_11  and  C_12 
REMARK    4  A    between atoms: C_12  and  N_13 
REMARK    5  A    between atoms: N_13  and  C_14 
REMARK    6  A    between atoms: C_15  and  O_16 
REMARK    7  A    between atoms: C_19  and  O_20 
REMARK    8  A    between atoms: C_26  and  C_27 
ROOT
HETATM    1  C   UNL     1      25.507  46.806  50.875  1.00  0.00     0.275 C 
HETATM    2  N   UNL     1      24.255  47.371  50.729  1.00  0.00    -0.263 N 
HETATM    3  O   UNL     1      26.245  46.570  49.920  1.00  0.00    -0.266 OA
HETATM    4  H   UNL     1      23.567  47.319  51.478  1.00  0.00     0.190 HD
ENDROOT
BRANCH   2   5
HETATM    5  N   UNL     1      23.813  47.733  49.452  1.00  0.00    -0.273 N 
HETATM    6  H   UNL     1      23.294  47.003  48.962  1.00  0.00     0.189 HD
BRANCH   5   7
HETATM    7  C   UNL     1      23.516  49.033  49.137  1.00  0.00     0.191 C 
HETATM    8  S   UNL     1      24.460  50.010  48.155  1.00  0.00    -0.039 SA
BRANCH   7   9
HETATM    9  N   UNL     1      22.379  49.560  49.679  1.00  0.00    -0.330 N 
HETATM   10  H   UNL     1      22.433  49.747  50.678  1.00  0.00     0.168 HD
BRANCH   9  11
HETATM   11  C   UNL     1      21.169  49.994  49.089  1.00  0.00     0.068 A 
HETATM   12  C   UNL     1      20.201  49.005  48.806  1.00  0.00     0.097 A 
HETATM   13  C   UNL     1      18.960  49.369  48.262  1.00  0.00     0.075 A 
HETATM   14  C   UNL     1      18.671  50.711  48.008  1.00  0.00     0.070 A 
HETATM   15  C   UNL     1      19.624  51.684  48.303  1.00  0.00     0.039 A 
HETATM   16  C   UNL     1      20.860  51.334  48.849  1.00  0.00     0.035 A 
BRANCH  12  17
HETATM   17  O   UNL     1      20.574  47.715  49.111  1.00  0.00    -0.354 OA
HETATM   18  C   UNL     1      19.776  46.663  48.584  1.00  0.00     0.210 C 
ENDBRANCH  12  17
BRANCH  14  19
HETATM   19  O   UNL     1      17.505  51.203  47.492  1.00  0.00    -0.356 OA
HETATM   20  C   UNL     1      17.602  52.038  46.345  1.00  0.00     0.210 C 
ENDBRANCH  14  19
ENDBRANCH   9  11
ENDBRANCH   7   9
ENDBRANCH   5   7
ENDBRANCH   2   5
BRANCH   1  21
HETATM   21  C   UNL     1      25.871  46.511  52.243  1.00  0.00     0.098 A 
HETATM   22  C   UNL     1      26.662  45.485  52.728  1.00  0.00     0.138 A 
HETATM   23  N   UNL     1      27.280  44.429  52.141  1.00  0.00    -0.370 N 
HETATM   24  N   UNL     1      26.696  45.654  54.089  1.00  0.00    -0.240 N 
HETATM   25  C   UNL     1      28.012  43.433  52.924  1.00  0.00     0.081 C 
HETATM   26  H   UNL     1      27.091  44.177  51.170  1.00  0.00     0.161 HD
HETATM   27  C   UNL     1      27.921  42.076  52.228  1.00  0.00     0.032 C 
HETATM   28  C   UNL     1      27.444  43.350  54.349  1.00  0.00     0.061 C 
HETATM   29  C   UNL     1      27.352  44.740  55.003  1.00  0.00     0.221 C 
HETATM   30  N   UNL     1      25.918  46.653  54.535  1.00  0.00    -0.181 NA
HETATM   31  C   UNL     1      25.426  47.181  53.409  1.00  0.00     0.160 A 
BRANCH  29  32
HETATM   32  C   UNL     1      28.701  45.291  55.403  1.00  0.00     0.409 C 
HETATM   33  F   UNL     1      29.701  44.388  55.297  1.00  0.00    -0.169 F 
HETATM   34  F   UNL     1      29.054  46.379  54.686  1.00  0.00    -0.169 F 
HETATM   35  F   UNL     1      28.669  45.681  56.704  1.00  0.00    -0.169 F 
ENDBRANCH  29  32
ENDBRANCH   1  21
TORSDOF 8
ENDMDL
MODEL 8
REMARK VINA RESULT:      -8.0      4.343      9.547
REMARK  8 active torsions:
REMARK  status: ('A' for Active; 'I' for Inactive)
REMARK    1  A    between atoms: C_8  and  C_9 
REMARK       I    between atoms: C_9  and  N_10 
REMARK    2  A    between atoms: N_10  and  N_11 
REMARK    3  A    between atoms: N_11  and  C_12 
REMARK    4  A    between atoms: C_12  and  N_13 
REMARK    5  A    between atoms: N_13  and  C_14 
REMARK    6  A    between atoms: C_15  and  O_16 
REMARK    7  A    between atoms: C_19  and  O_20 
REMARK    8  A    between atoms: C_26  and  C_27 
ROOT
HETATM    1  C   UNL     1      25.621  47.029  50.971  1.00  0.00     0.275 C 
HETATM    2  N   UNL     1      24.273  47.221  50.739  1.00  0.00    -0.263 N 
HETATM    3  O   UNL     1      26.467  47.111  50.082  1.00  0.00    -0.266 OA
HETATM    4  H   UNL     1      23.577  46.899  51.408  1.00  0.00     0.190 HD
ENDROOT
BRANCH   2   5
HETATM    5  N   UNL     1      23.843  47.564  49.453  1.00  0.00    -0.273 N 
HETATM    6  H   UNL     1      24.566  47.979  48.863  1.00  0.00     0.189 HD
BRANCH   5   7
HETATM    7  C   UNL     1      22.838  46.877  48.823  1.00  0.00     0.191 C 
HETATM    8  S   UNL     1      22.738  45.205  48.745  1.00  0.00    -0.039 SA
BRANCH   7   9
HETATM    9  N   UNL     1      21.869  47.617  48.209  1.00  0.00    -0.330 N 
HETATM   10  H   UNL     1      21.556  47.246  47.314  1.00  0.00     0.168 HD
BRANCH   9  11
HETATM   11  C   UNL     1      21.141  48.753  48.636  1.00  0.00     0.068 A 
HETATM   12  C   UNL     1      21.595  50.012  48.188  1.00  0.00     0.097 A 
HETATM   13  C   UNL     1      20.896  51.177  48.534  1.00  0.00     0.075 A 
HETATM   14  C   UNL     1      19.740  51.097  49.314  1.00  0.00     0.070 A 
HETATM   15  C   UNL     1      19.288  49.849  49.741  1.00  0.00     0.039 A 
HETATM   16  C   UNL     1      19.974  48.683  49.397  1.00  0.00     0.035 A 
BRANCH  12  17
HETATM   17  O   UNL     1      22.731  49.984  47.408  1.00  0.00    -0.354 OA
HETATM   18  C   UNL     1      23.857  50.720  47.868  1.00  0.00     0.210 C 
ENDBRANCH  12  17
BRANCH  14  19
HETATM   19  O   UNL     1      18.961  52.146  49.715  1.00  0.00    -0.356 OA
HETATM   20  C   UNL     1      17.563  51.911  49.831  1.00  0.00     0.210 C 
ENDBRANCH  14  19
ENDBRANCH   9  11
ENDBRANCH   7   9
ENDBRANCH   5   7
ENDBRANCH   2   5
BRANCH   1  21
HETATM   21  C   UNL     1      25.951  46.719  52.344  1.00  0.00     0.098 A 
HETATM   22  C   UNL     1      26.679  45.653  52.842  1.00  0.00     0.138 A 
HETATM   23  N   UNL     1      27.245  44.563  52.265  1.00  0.00    -0.370 N 
HETATM   24  N   UNL     1      26.703  45.824  54.202  1.00  0.00    -0.240 N 
HETATM   25  C   UNL     1      27.912  43.531  53.060  1.00  0.00     0.081 C 
HETATM   26  H   UNL     1      27.056  44.319  51.292  1.00  0.00     0.161 HD
HETATM   27  C   UNL     1      27.756  42.179  52.366  1.00  0.00     0.032 C 
HETATM   28  C   UNL     1      27.322  43.483  54.478  1.00  0.00     0.061 C 
HETATM   29  C   UNL     1      27.297  44.878  55.127  1.00  0.00     0.221 C 
HETATM   30  N   UNL     1      25.975  46.865  54.637  1.00  0.00    -0.181 NA
HETATM   31  C   UNL     1      25.528  47.415  53.503  1.00  0.00     0.160 A 
BRANCH  29  32
HETATM   32  C   UNL     1      28.669  45.356  55.544  1.00  0.00     0.409 C 
HETATM   33  F   UNL     1      29.153  46.343  54.759  1.00  0.00    -0.169 F 
HETATM   34  F   UNL     1      28.703  45.792  56.821  1.00  0.00    -0.169 F 
HETATM   35  F   UNL     1      29.555  44.328  55.465  1.00  0.00    -0.169 F 
ENDBRANCH  29  32
ENDBRANCH   1  21
TORSDOF 8
ENDMDL
MODEL 9
REMARK VINA RESULT:      -8.0      1.927      2.577
REMARK  8 active torsions:
REMARK  status: ('A' for Active; 'I' for Inactive)
REMARK    1  A    between atoms: C_8  and  C_9 
REMARK       I    between atoms: C_9  and  N_10 
REMARK    2  A    between atoms: N_10  and  N_11 
REMARK    3  A    between atoms: N_11  and  C_12 
REMARK    4  A    between atoms: C_12  and  N_13 
REMARK    5  A    between atoms: N_13  and  C_14 
REMARK    6  A    between atoms: C_15  and  O_16 
REMARK    7  A    between atoms: C_19  and  O_20 
REMARK    8  A    between atoms: C_26  and  C_27 
ROOT
HETATM    1  C   UNL     1      24.488  47.024  49.843  1.00  0.00     0.275 C 
HETATM    2  N   UNL     1      25.642  47.351  50.529  1.00  0.00    -0.263 N 
HETATM    3  O   UNL     1      24.076  45.869  49.750  1.00  0.00    -0.266 OA
HETATM    4  H   UNL     1      26.102  48.246  50.380  1.00  0.00     0.190 HD
ENDROOT
BRANCH   2   5
HETATM    5  N   UNL     1      26.356  46.343  51.185  1.00  0.00    -0.273 N 
HETATM    6  H   UNL     1      27.233  46.083  50.731  1.00  0.00     0.189 HD
BRANCH   5   7
HETATM    7  C   UNL     1      26.280  46.175  52.543  1.00  0.00     0.191 C 
HETATM    8  S   UNL     1      25.832  47.377  53.623  1.00  0.00    -0.039 SA
BRANCH   7   9
HETATM    9  N   UNL     1      26.608  44.945  53.037  1.00  0.00    -0.330 N 
HETATM   10  H   UNL     1      25.970  44.197  52.771  1.00  0.00     0.168 HD
BRANCH   9  11
HETATM   11  C   UNL     1      27.733  44.495  53.767  1.00  0.00     0.068 A 
HETATM   12  C   UNL     1      28.285  43.250  53.394  1.00  0.00     0.097 A 
HETATM   13  C   UNL     1      29.428  42.762  54.044  1.00  0.00     0.075 A 
HETATM   14  C   UNL     1      30.033  43.511  55.056  1.00  0.00     0.070 A 
HETATM   15  C   UNL     1      29.493  44.746  55.410  1.00  0.00     0.039 A 
HETATM   16  C   UNL     1      28.358  45.243  54.765  1.00  0.00     0.035 A 
BRANCH  12  17
HETATM   17  O   UNL     1      27.628  42.599  52.373  1.00  0.00    -0.354 OA
HETATM   18  C   UNL     1      28.347  41.595  51.670  1.00  0.00     0.210 C 
ENDBRANCH  12  17
BRANCH  14  19
HETATM   19  O   UNL     1      31.150  43.161  55.762  1.00  0.00    -0.356 OA
HETATM   20  C   UNL     1      31.388  43.847  56.985  1.00  0.00     0.210 C 
ENDBRANCH  14  19
ENDBRANCH   9  11
ENDBRANCH   7   9
ENDBRANCH   5   7
ENDBRANCH   2   5
BRANCH   1  21
HETATM   21  C   UNL     1      23.814  48.151  49.240  1.00  0.00     0.098 A 
HETATM   22  C   UNL     1      22.468  48.312  48.967  1.00  0.00     0.138 A 
HETATM   23  N   UNL     1      21.388  47.501  49.099  1.00  0.00    -0.370 N 
HETATM   24  N   UNL     1      22.350  49.555  48.399  1.00  0.00    -0.240 N 
HETATM   25  C   UNL     1      20.056  47.913  48.654  1.00  0.00     0.081 C 
HETATM   26  H   UNL     1      21.493  46.511  49.323  1.00  0.00     0.161 HD
HETATM   27  C   UNL     1      19.271  46.683  48.201  1.00  0.00     0.032 C 
HETATM   28  C   UNL     1      20.167  48.936  47.512  1.00  0.00     0.061 C 
HETATM   29  C   UNL     1      21.108  50.096  47.882  1.00  0.00     0.221 C 
HETATM   30  N   UNL     1      23.523  50.178  48.199  1.00  0.00    -0.181 NA
HETATM   31  C   UNL     1      24.411  49.327  48.722  1.00  0.00     0.160 A 
BRANCH  29  32
HETATM   32  C   UNL     1      20.501  51.047  48.887  1.00  0.00     0.409 C 
HETATM   33  F   UNL     1      20.408  52.316  48.434  1.00  0.00    -0.169 F 
HETATM   34  F   UNL     1      19.271  50.664  49.290  1.00  0.00    -0.169 F 
HETATM   35  F   UNL     1      21.276  51.090  50.003  1.00  0.00    -0.169 F 
ENDBRANCH  29  32
ENDBRANCH   1  21
TORSDOF 8
ENDMDL
MODEL 10
REMARK VINA RESULT:      -7.8      5.949      7.729
REMARK  8 active torsions:
REMARK  status: ('A' for Active; 'I' for Inactive)
REMARK    1  A    between atoms: C_8  and  C_9 
REMARK       I    between atoms: C_9  and  N_10 
REMARK    2  A    between atoms: N_10  and  N_11 
REMARK    3  A    between atoms: N_11  and  C_12 
REMARK    4  A    between atoms: C_12  and  N_13 
REMARK    5  A    between atoms: N_13  and  C_14 
REMARK    6  A    between atoms: C_15  and  O_16 
REMARK    7  A    between atoms: C_19  and  O_20 
REMARK    8  A    between atoms: C_26  and  C_27 
ROOT
HETATM    1  C   UNL     1      26.680  43.255  49.993  1.00  0.00     0.275 C 
HETATM    2  N   UNL     1      26.910  43.656  51.295  1.00  0.00    -0.263 N 
HETATM    3  O   UNL     1      26.475  44.052  49.079  1.00  0.00    -0.266 OA
HETATM    4  H   UNL     1      26.818  43.000  52.067  1.00  0.00     0.190 HD
ENDROOT
BRANCH   2   5
HETATM    5  N   UNL     1      26.956  45.022  51.592  1.00  0.00    -0.273 N 
HETATM    6  H   UNL     1      26.856  45.634  50.779  1.00  0.00     0.189 HD
BRANCH   5   7
HETATM    7  C   UNL     1      26.531  45.510  52.800  1.00  0.00     0.191 C 
HETATM    8  S   UNL     1      25.688  46.945  52.999  1.00  0.00    -0.039 SA
BRANCH   7   9
HETATM    9  N   UNL     1      26.838  44.775  53.909  1.00  0.00    -0.330 N 
HETATM   10  H   UNL     1      26.072  44.207  54.266  1.00  0.00     0.168 HD
BRANCH   9  11
HETATM   11  C   UNL     1      28.058  44.575  54.597  1.00  0.00     0.068 A 
HETATM   12  C   UNL     1      28.727  43.351  54.377  1.00  0.00     0.097 A 
HETATM   13  C   UNL     1      29.963  43.104  54.991  1.00  0.00     0.075 A 
HETATM   14  C   UNL     1      30.545  44.071  55.813  1.00  0.00     0.070 A 
HETATM   15  C   UNL     1      29.887  45.283  56.016  1.00  0.00     0.039 A 
HETATM   16  C   UNL     1      28.658  45.541  55.405  1.00  0.00     0.035 A 
BRANCH  12  17
HETATM   17  O   UNL     1      28.081  42.473  53.534  1.00  0.00    -0.354 OA
HETATM   18  C   UNL     1      28.761  41.270  53.201  1.00  0.00     0.210 C 
ENDBRANCH  12  17
BRANCH  14  19
HETATM   19  O   UNL     1      31.743  43.965  56.463  1.00  0.00    -0.356 OA
HETATM   20  C   UNL     1      31.742  44.174  57.870  1.00  0.00     0.210 C 
ENDBRANCH  14  19
ENDBRANCH   9  11
ENDBRANCH   7   9
ENDBRANCH   5   7
ENDBRANCH   2   5
BRANCH   1  21
HETATM   21  C   UNL     1      26.695  41.823  49.799  1.00  0.00     0.098 A 
HETATM   22  C   UNL     1      27.150  41.099  48.712  1.00  0.00     0.138 A 
HETATM   23  N   UNL     1      27.647  41.454  47.500  1.00  0.00    -0.370 N 
HETATM   24  N   UNL     1      26.943  39.781  49.030  1.00  0.00    -0.240 N 
HETATM   25  C   UNL     1      27.992  40.455  46.487  1.00  0.00     0.081 C 
HETATM   26  H   UNL     1      27.612  42.420  47.175  1.00  0.00     0.161 HD
HETATM   27  C   UNL     1      27.772  41.049  45.097  1.00  0.00     0.032 C 
HETATM   28  C   UNL     1      27.144  39.188  46.676  1.00  0.00     0.061 C 
HETATM   29  C   UNL     1      27.204  38.678  48.126  1.00  0.00     0.221 C 
HETATM   30  N   UNL     1      26.308  39.594  50.199  1.00  0.00    -0.181 NA
HETATM   31  C   UNL     1      26.169  40.837  50.671  1.00  0.00     0.160 A 
BRANCH  29  32
HETATM   32  C   UNL     1      28.528  38.034  48.468  1.00  0.00     0.409 C 
HETATM   33  F   UNL     1      29.117  37.428  47.414  1.00  0.00    -0.169 F 
HETATM   34  F   UNL     1      29.416  38.910  48.986  1.00  0.00    -0.169 F 
HETATM   35  F   UNL     1      28.341  37.074  49.411  1.00  0.00    -0.169 F 
ENDBRANCH  29  32
ENDBRANCH   1  21
TORSDOF 8
ENDMDL
