MODEL 1
REMARK VINA RESULT:      -9.6      0.000      0.000
REMARK  4 active torsions:
REMARK  status: ('A' for Active; 'I' for Inactive)
REMARK    1  A    between atoms: C_6  and  C_7 
REMARK    2  A    between atoms: C_7  and  N_8 
REMARK       I    between atoms: N_8  and  C_9 
REMARK    3  A    between atoms: C_9  and  C_10 
REMARK    4  A    between atoms: C_14  and  C_15 
ROOT
HETATM    1  N   UNL     1      24.768  45.815  50.321  1.00  0.00    -0.349 N 
HETATM    2  C   UNL     1      24.683  45.027  51.435  1.00  0.00     0.270 C 
HETATM    3  O   UNL     1      23.766  44.225  51.598  1.00  0.00    -0.266 OA
HETATM    4  H   UNL     1      25.504  46.500  50.204  1.00  0.00     0.163 HD
ENDROOT
BRANCH   2   5
HETATM    5  C   UNL     1      25.728  45.202  52.404  1.00  0.00     0.120 A 
HETATM    6  N   UNL     1      25.875  46.374  53.090  1.00  0.00    -0.272 N 
HETATM    7  H   UNL     1      25.298  47.205  53.000  1.00  0.00     0.189 HD
HETATM    8  N   UNL     1      26.903  46.386  53.949  1.00  0.00    -0.174 NA
HETATM    9  C   UNL     1      27.447  45.163  53.846  1.00  0.00     0.089 A 
HETATM   10  C   UNL     1      26.740  44.391  52.879  1.00  0.00     0.071 A 
BRANCH   9  11
HETATM   11  C   UNL     1      28.609  44.773  54.653  1.00  0.00    -0.006 A 
HETATM   12  C   UNL     1      29.124  45.622  55.645  1.00  0.00     0.015 A 
HETATM   13  C   UNL     1      30.235  45.239  56.405  1.00  0.00     0.024 A 
HETATM   14  C   UNL     1      30.839  44.004  56.179  1.00  0.00     0.034 A 
HETATM   15 CL   UNL     1      32.205  43.536  57.114  1.00  0.00    -0.084 Cl
HETATM   16  C   UNL     1      30.344  43.149  55.200  1.00  0.00     0.024 A 
HETATM   17  C   UNL     1      29.236  43.534  54.439  1.00  0.00     0.015 A 
ENDBRANCH   9  11
ENDBRANCH   2   5
BRANCH   1  18
HETATM   18  C   UNL     1      23.773  45.751  49.282  1.00  0.00     0.201 C 
BRANCH  18  19
HETATM   19  C   UNL     1      23.155  47.097  49.127  1.00  0.00     0.123 A 
HETATM   20  N   UNL     1      23.773  48.264  49.119  1.00  0.00    -0.232 NA
HETATM   21  C   UNL     1      22.783  49.204  48.960  1.00  0.00     0.085 A 
HETATM   22  C   UNL     1      21.535  48.599  48.866  1.00  0.00     0.062 A 
HETATM   23  C   UNL     1      22.873  50.602  48.890  1.00  0.00     0.034 A 
HETATM   24  C   UNL     1      20.346  49.313  48.700  1.00  0.00     0.032 A 
HETATM   25  N   UNL     1      21.799  47.258  48.973  1.00  0.00    -0.341 N 
HETATM   26  C   UNL     1      20.455  50.706  48.631  1.00  0.00     0.002 A 
HETATM   27  C   UNL     1      21.695  51.342  48.725  1.00  0.00     0.002 A 
HETATM   28  H   UNL     1      21.112  46.518  48.946  1.00  0.00     0.167 HD
ENDBRANCH  18  19
ENDBRANCH   1  18
TORSDOF 4
ENDMDL
MODEL 2
REMARK VINA RESULT:      -9.5      3.844      9.578
REMARK  4 active torsions:
REMARK  status: ('A' for Active; 'I' for Inactive)
REMARK    1  A    between atoms: C_6  and  C_7 
REMARK    2  A    between atoms: C_7  and  N_8 
REMARK       I    between atoms: N_8  and  C_9 
REMARK    3  A    between atoms: C_9  and  C_10 
REMARK    4  A    between atoms: C_14  and  C_15 
ROOT
HETATM    1  N   UNL     1      26.152  44.620  51.545  1.00  0.00    -0.349 N 
HETATM    2  C   UNL     1      26.454  45.122  50.310  1.00  0.00     0.270 C 
HETATM    3  O   UNL     1      27.221  44.547  49.542  1.00  0.00    -0.266 OA
HETATM    4  H   UNL     1      25.547  45.112  52.191  1.00  0.00     0.163 HD
ENDROOT
BRANCH   2   5
HETATM    5  C   UNL     1      25.825  46.369  49.972  1.00  0.00     0.120 A 
HETATM    6  N   UNL     1      26.558  47.499  49.746  1.00  0.00    -0.272 N 
HETATM    7  H   UNL     1      27.570  47.583  49.787  1.00  0.00     0.189 HD
HETATM    8  N   UNL     1      25.827  48.583  49.454  1.00  0.00    -0.174 NA
HETATM    9  C   UNL     1      24.556  48.149  49.465  1.00  0.00     0.089 A 
HETATM   10  C   UNL     1      24.514  46.763  49.794  1.00  0.00     0.071 A 
BRANCH   9  11
HETATM   11  C   UNL     1      23.438  49.053  49.174  1.00  0.00    -0.006 A 
HETATM   12  C   UNL     1      23.653  50.410  48.892  1.00  0.00     0.015 A 
HETATM   13  C   UNL     1      22.577  51.262  48.619  1.00  0.00     0.024 A 
HETATM   14  C   UNL     1      21.276  50.762  48.624  1.00  0.00     0.034 A 
HETATM   15 CL   UNL     1      19.955  51.812  48.289  1.00  0.00    -0.084 Cl
HETATM   16  C   UNL     1      21.042  49.419  48.901  1.00  0.00     0.024 A 
HETATM   17  C   UNL     1      22.118  48.570  49.178  1.00  0.00     0.015 A 
ENDBRANCH   9  11
ENDBRANCH   2   5
BRANCH   1  18
HETATM   18  C   UNL     1      26.731  43.387  52.013  1.00  0.00     0.201 C 
BRANCH  18  19
HETATM   19  C   UNL     1      27.751  43.700  53.050  1.00  0.00     0.123 A 
HETATM   20  N   UNL     1      28.774  42.949  53.419  1.00  0.00    -0.232 NA
HETATM   21  C   UNL     1      29.413  43.657  54.408  1.00  0.00     0.085 A 
HETATM   22  C   UNL     1      28.771  44.866  54.647  1.00  0.00     0.062 A 
HETATM   23  C   UNL     1      30.554  43.328  55.155  1.00  0.00     0.034 A 
HETATM   24  C   UNL     1      29.203  45.790  55.602  1.00  0.00     0.032 A 
HETATM   25  N   UNL     1      27.718  44.870  53.770  1.00  0.00    -0.341 N 
HETATM   26  C   UNL     1      30.343  45.445  56.338  1.00  0.00     0.002 A 
HETATM   27  C   UNL     1      31.008  44.236  56.120  1.00  0.00     0.002 A 
HETATM   28  H   UNL     1      27.034  45.608  53.673  1.00  0.00     0.167 HD
ENDBRANCH  18  19
ENDBRANCH   1  18
TORSDOF 4
ENDMDL
MODEL 3
REMARK VINA RESULT:      -9.2      1.948      2.944
REMARK  4 active torsions:
REMARK  status: ('A' for Active; 'I' for Inactive)
REMARK    1  A    between atoms: C_6  and  C_7 
REMARK    2  A    between atoms: C_7  and  N_8 
REMARK       I    between atoms: N_8  and  C_9 
REMARK    3  A    between atoms: C_9  and  C_10 
REMARK    4  A    between atoms: C_14  and  C_15 
ROOT
HETATM    1  N   UNL     1      22.856  46.617  49.159  1.00  0.00    -0.349 N 
HETATM    2  C   UNL     1      23.966  47.285  49.593  1.00  0.00     0.270 C 
HETATM    3  O   UNL     1      24.371  48.305  49.041  1.00  0.00    -0.266 OA
HETATM    4  H   UNL     1      22.543  45.757  49.593  1.00  0.00     0.163 HD
ENDROOT
BRANCH   2   5
HETATM    5  C   UNL     1      24.633  46.714  50.730  1.00  0.00     0.120 A 
HETATM    6  N   UNL     1      24.287  45.486  51.217  1.00  0.00    -0.272 N 
HETATM    7  H   UNL     1      23.565  44.872  50.854  1.00  0.00     0.189 HD
HETATM    8  N   UNL     1      24.993  45.098  52.288  1.00  0.00    -0.174 NA
HETATM    9  C   UNL     1      25.858  46.101  52.508  1.00  0.00     0.089 A 
HETATM   10  C   UNL     1      25.659  47.139  51.553  1.00  0.00     0.071 A 
BRANCH   9  11
HETATM   11  C   UNL     1      26.829  46.045  53.606  1.00  0.00    -0.006 A 
HETATM   12  C   UNL     1      27.048  47.151  54.442  1.00  0.00     0.015 A 
HETATM   13  C   UNL     1      27.980  47.084  55.484  1.00  0.00     0.024 A 
HETATM   14  C   UNL     1      28.700  45.911  55.699  1.00  0.00     0.034 A 
HETATM   15 CL   UNL     1      29.845  45.833  56.980  1.00  0.00    -0.084 Cl
HETATM   16  C   UNL     1      28.498  44.804  54.881  1.00  0.00     0.024 A 
HETATM   17  C   UNL     1      27.569  44.873  53.838  1.00  0.00     0.015 A 
ENDBRANCH   9  11
ENDBRANCH   2   5
BRANCH   1  18
HETATM   18  C   UNL     1      22.107  47.073  48.017  1.00  0.00     0.201 C 
BRANCH  18  19
HETATM   19  C   UNL     1      21.220  48.191  48.441  1.00  0.00     0.123 A 
HETATM   20  N   UNL     1      20.143  48.112  49.203  1.00  0.00    -0.232 NA
HETATM   21  C   UNL     1      19.666  49.396  49.300  1.00  0.00     0.085 A 
HETATM   22  C   UNL     1      20.467  50.279  48.586  1.00  0.00     0.062 A 
HETATM   23  C   UNL     1      18.544  49.890  49.982  1.00  0.00     0.034 A 
HETATM   24  C   UNL     1      20.219  51.651  48.508  1.00  0.00     0.032 A 
HETATM   25  N   UNL     1      21.450  49.487  48.050  1.00  0.00    -0.341 N 
HETATM   26  C   UNL     1      19.095  52.126  49.195  1.00  0.00     0.002 A 
HETATM   27  C   UNL     1      18.270  51.262  49.920  1.00  0.00     0.002 A 
HETATM   28  H   UNL     1      22.210  49.806  47.465  1.00  0.00     0.167 HD
ENDBRANCH  18  19
ENDBRANCH   1  18
TORSDOF 4
ENDMDL
MODEL 4
REMARK VINA RESULT:      -8.9      1.594      1.827
REMARK  4 active torsions:
REMARK  status: ('A' for Active; 'I' for Inactive)
REMARK    1  A    between atoms: C_6  and  C_7 
REMARK    2  A    between atoms: C_7  and  N_8 
REMARK       I    between atoms: N_8  and  C_9 
REMARK    3  A    between atoms: C_9  and  C_10 
REMARK    4  A    between atoms: C_14  and  C_15 
ROOT
HETATM    1  N   UNL     1      23.896  44.796  49.666  1.00  0.00    -0.349 N 
HETATM    2  C   UNL     1      23.813  43.799  50.597  1.00  0.00     0.270 C 
HETATM    3  O   UNL     1      22.768  43.190  50.809  1.00  0.00    -0.266 OA
HETATM    4  H   UNL     1      24.749  45.321  49.517  1.00  0.00     0.163 HD
ENDROOT
BRANCH   2   5
HETATM    5  C   UNL     1      25.023  43.515  51.317  1.00  0.00     0.120 A 
HETATM    6  N   UNL     1      25.721  42.359  51.111  1.00  0.00    -0.272 N 
HETATM    7  H   UNL     1      25.481  41.614  50.464  1.00  0.00     0.189 HD
HETATM    8  N   UNL     1      26.820  42.235  51.866  1.00  0.00    -0.174 NA
HETATM    9  C   UNL     1      26.866  43.366  52.589  1.00  0.00     0.089 A 
HETATM   10  C   UNL     1      25.750  44.194  52.276  1.00  0.00     0.071 A 
BRANCH   9  11
HETATM   11  C   UNL     1      27.952  43.618  53.544  1.00  0.00    -0.006 A 
HETATM   12  C   UNL     1      27.982  44.787  54.319  1.00  0.00     0.015 A 
HETATM   13  C   UNL     1      29.025  45.016  55.224  1.00  0.00     0.024 A 
HETATM   14  C   UNL     1      30.045  44.077  55.360  1.00  0.00     0.034 A 
HETATM   15 CL   UNL     1      31.326  44.362  56.473  1.00  0.00    -0.084 Cl
HETATM   16  C   UNL     1      30.034  42.912  54.601  1.00  0.00     0.024 A 
HETATM   17  C   UNL     1      28.993  42.686  53.694  1.00  0.00     0.015 A 
ENDBRANCH   9  11
ENDBRANCH   2   5
BRANCH   1  18
HETATM   18  C   UNL     1      22.750  45.192  48.890  1.00  0.00     0.201 C 
BRANCH  18  19
HETATM   19  C   UNL     1      22.696  46.679  48.838  1.00  0.00     0.123 A 
HETATM   20  N   UNL     1      23.718  47.514  48.785  1.00  0.00    -0.232 NA
HETATM   21  C   UNL     1      23.164  48.772  48.763  1.00  0.00     0.085 A 
HETATM   22  C   UNL     1      21.776  48.704  48.801  1.00  0.00     0.062 A 
HETATM   23  C   UNL     1      23.786  50.028  48.714  1.00  0.00     0.034 A 
HETATM   24  C   UNL     1      20.951  49.831  48.791  1.00  0.00     0.032 A 
HETATM   25  N   UNL     1      21.504  47.361  48.847  1.00  0.00    -0.341 N 
HETATM   26  C   UNL     1      21.590  51.075  48.742  1.00  0.00     0.002 A 
HETATM   27  C   UNL     1      22.983  51.175  48.704  1.00  0.00     0.002 A 
HETATM   28  H   UNL     1      20.582  46.948  48.884  1.00  0.00     0.167 HD
ENDBRANCH  18  19
ENDBRANCH   1  18
TORSDOF 4
ENDMDL
MODEL 5
REMARK VINA RESULT:      -8.8      1.890      2.283
REMARK  4 active torsions:
REMARK  status: ('A' for Active; 'I' for Inactive)
REMARK    1  A    between atoms: C_6  and  C_7 
REMARK    2  A    between atoms: C_7  and  N_8 
REMARK       I    between atoms: N_8  and  C_9 
REMARK    3  A    between atoms: C_9  and  C_10 
REMARK    4  A    between atoms: C_14  and  C_15 
ROOT
HETATM    1  N   UNL     1      23.477  45.507  48.997  1.00  0.00    -0.349 N 
HETATM    2  C   UNL     1      23.999  44.269  49.246  1.00  0.00     0.270 C 
HETATM    3  O   UNL     1      23.420  43.238  48.913  1.00  0.00    -0.266 OA
HETATM    4  H   UNL     1      23.938  46.355  49.302  1.00  0.00     0.163 HD
ENDROOT
BRANCH   2   5
HETATM    5  C   UNL     1      25.263  44.250  49.928  1.00  0.00     0.120 A 
HETATM    6  N   UNL     1      26.416  44.630  49.303  1.00  0.00    -0.272 N 
HETATM    7  H   UNL     1      26.508  44.951  48.344  1.00  0.00     0.189 HD
HETATM    8  N   UNL     1      27.513  44.545  50.068  1.00  0.00    -0.174 NA
HETATM    9  C   UNL     1      27.065  44.112  51.258  1.00  0.00     0.089 A 
HETATM   10  C   UNL     1      25.656  43.908  51.208  1.00  0.00     0.071 A 
BRANCH   9  11
HETATM   11  C   UNL     1      27.979  43.902  52.387  1.00  0.00    -0.006 A 
HETATM   12  C   UNL     1      27.796  44.574  53.605  1.00  0.00     0.015 A 
HETATM   13  C   UNL     1      28.677  44.367  54.673  1.00  0.00     0.024 A 
HETATM   14  C   UNL     1      29.747  43.486  54.530  1.00  0.00     0.034 A 
HETATM   15 CL   UNL     1      30.829  43.233  55.844  1.00  0.00    -0.084 Cl
HETATM   16  C   UNL     1      29.945  42.811  53.330  1.00  0.00     0.024 A 
HETATM   17  C   UNL     1      29.066  43.021  52.263  1.00  0.00     0.015 A 
ENDBRANCH   9  11
ENDBRANCH   2   5
BRANCH   1  18
HETATM   18  C   UNL     1      22.207  45.664  48.336  1.00  0.00     0.201 C 
BRANCH  18  19
HETATM   19  C   UNL     1      21.783  47.087  48.444  1.00  0.00     0.123 A 
HETATM   20  N   UNL     1      22.229  48.109  47.735  1.00  0.00    -0.232 NA
HETATM   21  C   UNL     1      21.548  49.207  48.205  1.00  0.00     0.085 A 
HETATM   22  C   UNL     1      20.668  48.849  49.218  1.00  0.00     0.062 A 
HETATM   23  C   UNL     1      21.631  50.551  47.813  1.00  0.00     0.034 A 
HETATM   24  C   UNL     1      19.846  49.764  49.881  1.00  0.00     0.032 A 
HETATM   25  N   UNL     1      20.836  47.495  49.351  1.00  0.00    -0.341 N 
HETATM   26  C   UNL     1      19.943  51.100  49.478  1.00  0.00     0.002 A 
HETATM   27  C   UNL     1      20.819  51.490  48.462  1.00  0.00     0.002 A 
HETATM   28  H   UNL     1      20.346  46.902  50.006  1.00  0.00     0.167 HD
ENDBRANCH  18  19
ENDBRANCH   1  18
TORSDOF 4
ENDMDL
MODEL 6
REMARK VINA RESULT:      -8.8      3.931      9.784
REMARK  4 active torsions:
REMARK  status: ('A' for Active; 'I' for Inactive)
REMARK    1  A    between atoms: C_6  and  C_7 
REMARK    2  A    between atoms: C_7  and  N_8 
REMARK       I    between atoms: N_8  and  C_9 
REMARK    3  A    between atoms: C_9  and  C_10 
REMARK    4  A    between atoms: C_14  and  C_15 
ROOT
HETATM    1  N   UNL     1      26.061  44.739  50.597  1.00  0.00    -0.349 N 
HETATM    2  C   UNL     1      25.130  44.925  49.614  1.00  0.00     0.270 C 
HETATM    3  O   UNL     1      24.835  44.037  48.818  1.00  0.00    -0.266 OA
HETATM    4  H   UNL     1      26.329  45.483  51.231  1.00  0.00     0.163 HD
ENDROOT
BRANCH   2   5
HETATM    5  C   UNL     1      24.526  46.227  49.565  1.00  0.00     0.120 A 
HETATM    6  N   UNL     1      25.185  47.336  50.014  1.00  0.00    -0.272 N 
HETATM    7  H   UNL     1      26.120  47.367  50.409  1.00  0.00     0.189 HD
HETATM    8  N   UNL     1      24.484  48.474  49.913  1.00  0.00    -0.174 NA
HETATM    9  C   UNL     1      23.320  48.108  49.353  1.00  0.00     0.089 A 
HETATM   10  C   UNL     1      23.306  46.702  49.125  1.00  0.00     0.071 A 
BRANCH   9  11
HETATM   11  C   UNL     1      22.270  49.091  49.061  1.00  0.00    -0.006 A 
HETATM   12  C   UNL     1      20.944  48.694  48.835  1.00  0.00     0.015 A 
HETATM   13  C   UNL     1      19.953  49.643  48.554  1.00  0.00     0.024 A 
HETATM   14  C   UNL     1      20.282  50.995  48.499  1.00  0.00     0.034 A 
HETATM   15 CL   UNL     1      19.063  52.159  48.153  1.00  0.00    -0.084 Cl
HETATM   16  C   UNL     1      21.592  51.409  48.720  1.00  0.00     0.024 A 
HETATM   17  C   UNL     1      22.581  50.460  48.996  1.00  0.00     0.015 A 
ENDBRANCH   9  11
ENDBRANCH   2   5
BRANCH   1  18
HETATM   18  C   UNL     1      26.755  43.486  50.743  1.00  0.00     0.201 C 
BRANCH  18  19
HETATM   19  C   UNL     1      27.688  43.586  51.898  1.00  0.00     0.123 A 
HETATM   20  N   UNL     1      28.758  42.845  52.128  1.00  0.00    -0.232 NA
HETATM   21  C   UNL     1      29.277  43.307  53.313  1.00  0.00     0.085 A 
HETATM   22  C   UNL     1      28.512  44.352  53.817  1.00  0.00     0.062 A 
HETATM   23  C   UNL     1      30.407  42.879  54.027  1.00  0.00     0.034 A 
HETATM   24  C   UNL     1      28.806  45.013  55.012  1.00  0.00     0.032 A 
HETATM   25  N   UNL     1      27.508  44.510  52.898  1.00  0.00    -0.341 N 
HETATM   26  C   UNL     1      29.936  44.573  55.711  1.00  0.00     0.002 A 
HETATM   27  C   UNL     1      30.724  43.524  55.229  1.00  0.00     0.002 A 
HETATM   28  H   UNL     1      26.762  45.190  52.951  1.00  0.00     0.167 HD
ENDBRANCH  18  19
ENDBRANCH   1  18
TORSDOF 4
ENDMDL
MODEL 7
REMARK VINA RESULT:      -8.6      3.836      9.643
REMARK  4 active torsions:
REMARK  status: ('A' for Active; 'I' for Inactive)
REMARK    1  A    between atoms: C_6  and  C_7 
REMARK    2  A    between atoms: C_7  and  N_8 
REMARK       I    between atoms: N_8  and  C_9 
REMARK    3  A    between atoms: C_9  and  C_10 
REMARK    4  A    between atoms: C_14  and  C_15 
ROOT
HETATM    1  N   UNL     1      28.259  43.727  52.358  1.00  0.00    -0.349 N 
HETATM    2  C   UNL     1      27.277  43.082  51.660  1.00  0.00     0.270 C 
HETATM    3  O   UNL     1      27.334  41.879  51.414  1.00  0.00    -0.266 OA
HETATM    4  H   UNL     1      28.228  44.725  52.530  1.00  0.00     0.163 HD
ENDROOT
BRANCH   2   5
HETATM    5  C   UNL     1      26.179  43.900  51.226  1.00  0.00     0.120 A 
HETATM    6  N   UNL     1      24.895  43.626  51.599  1.00  0.00    -0.272 N 
HETATM    7  H   UNL     1      24.586  42.861  52.192  1.00  0.00     0.189 HD
HETATM    8  N   UNL     1      23.982  44.473  51.103  1.00  0.00    -0.174 NA
HETATM    9  C   UNL     1      24.694  45.359  50.388  1.00  0.00     0.089 A 
HETATM   10  C   UNL     1      26.079  45.029  50.435  1.00  0.00     0.071 A 
BRANCH   9  11
HETATM   11  C   UNL     1      24.044  46.473  49.688  1.00  0.00    -0.006 A 
HETATM   12  C   UNL     1      22.958  46.256  48.826  1.00  0.00     0.015 A 
HETATM   13  C   UNL     1      22.350  47.328  48.162  1.00  0.00     0.024 A 
HETATM   14  C   UNL     1      22.823  48.624  48.355  1.00  0.00     0.034 A 
HETATM   15 CL   UNL     1      22.074  49.939  47.536  1.00  0.00    -0.084 Cl
HETATM   16  C   UNL     1      23.899  48.859  49.204  1.00  0.00     0.024 A 
HETATM   17  C   UNL     1      24.508  47.787  49.865  1.00  0.00     0.015 A 
ENDBRANCH   9  11
ENDBRANCH   2   5
BRANCH   1  18
HETATM   18  C   UNL     1      29.423  43.025  52.834  1.00  0.00     0.201 C 
BRANCH  18  19
HETATM   19  C   UNL     1      29.795  43.564  54.170  1.00  0.00     0.123 A 
HETATM   20  N   UNL     1      30.675  43.061  55.018  1.00  0.00    -0.232 NA
HETATM   21  C   UNL     1      30.658  43.900  56.106  1.00  0.00     0.085 A 
HETATM   22  C   UNL     1      29.753  44.938  55.919  1.00  0.00     0.062 A 
HETATM   23  C   UNL     1      31.391  43.839  57.300  1.00  0.00     0.034 A 
HETATM   24  C   UNL     1      29.527  45.941  56.865  1.00  0.00     0.032 A 
HETATM   25  N   UNL     1      29.218  44.702  54.679  1.00  0.00    -0.341 N 
HETATM   26  C   UNL     1      30.267  45.863  58.050  1.00  0.00     0.002 A 
HETATM   27  C   UNL     1      31.184  44.831  58.267  1.00  0.00     0.002 A 
HETATM   28  H   UNL     1      28.517  45.268  54.222  1.00  0.00     0.167 HD
ENDBRANCH  18  19
ENDBRANCH   1  18
TORSDOF 4
ENDMDL
MODEL 8
REMARK VINA RESULT:      -8.5      3.764      9.416
REMARK  4 active torsions:
REMARK  status: ('A' for Active; 'I' for Inactive)
REMARK    1  A    between atoms: C_6  and  C_7 
REMARK    2  A    between atoms: C_7  and  N_8 
REMARK       I    between atoms: N_8  and  C_9 
REMARK    3  A    between atoms: C_9  and  C_10 
REMARK    4  A    between atoms: C_14  and  C_15 
ROOT
HETATM    1  N   UNL     1      25.899  43.470  51.108  1.00  0.00    -0.349 N 
HETATM    2  C   UNL     1      26.125  44.269  50.022  1.00  0.00     0.270 C 
HETATM    3  O   UNL     1      27.197  44.266  49.422  1.00  0.00    -0.266 OA
HETATM    4  H   UNL     1      25.027  43.498  51.623  1.00  0.00     0.163 HD
ENDROOT
BRANCH   2   5
HETATM    5  C   UNL     1      25.033  45.116  49.633  1.00  0.00     0.120 A 
HETATM    6  N   UNL     1      23.933  44.614  48.997  1.00  0.00    -0.272 N 
HETATM    7  H   UNL     1      23.769  43.644  48.743  1.00  0.00     0.189 HD
HETATM    8  N   UNL     1      23.007  45.532  48.688  1.00  0.00    -0.174 NA
HETATM    9  C   UNL     1      23.502  46.687  49.158  1.00  0.00     0.089 A 
HETATM   10  C   UNL     1      24.778  46.468  49.753  1.00  0.00     0.071 A 
BRANCH   9  11
HETATM   11  C   UNL     1      22.762  47.947  49.024  1.00  0.00    -0.006 A 
HETATM   12  C   UNL     1      23.410  49.187  49.128  1.00  0.00     0.015 A 
HETATM   13  C   UNL     1      22.690  50.381  49.001  1.00  0.00     0.024 A 
HETATM   14  C   UNL     1      21.317  50.343  48.768  1.00  0.00     0.034 A 
HETATM   15 CL   UNL     1      20.435  51.812  48.612  1.00  0.00    -0.084 Cl
HETATM   16  C   UNL     1      20.656  49.124  48.661  1.00  0.00     0.024 A 
HETATM   17  C   UNL     1      21.376  47.932  48.792  1.00  0.00     0.015 A 
ENDBRANCH   9  11
ENDBRANCH   2   5
BRANCH   1  18
HETATM   18  C   UNL     1      26.919  42.587  51.613  1.00  0.00     0.201 C 
BRANCH  18  19
HETATM   19  C   UNL     1      27.651  43.278  52.709  1.00  0.00     0.123 A 
HETATM   20  N   UNL     1      27.362  44.449  53.250  1.00  0.00    -0.232 NA
HETATM   21  C   UNL     1      28.326  44.660  54.206  1.00  0.00     0.085 A 
HETATM   22  C   UNL     1      29.221  43.598  54.252  1.00  0.00     0.062 A 
HETATM   23  C   UNL     1      28.506  45.745  55.077  1.00  0.00     0.034 A 
HETATM   24  C   UNL     1      30.305  43.544  55.132  1.00  0.00     0.032 A 
HETATM   25  N   UNL     1      28.769  42.731  53.292  1.00  0.00    -0.341 N 
HETATM   26  C   UNL     1      30.468  44.635  55.994  1.00  0.00     0.002 A 
HETATM   27  C   UNL     1      29.586  45.718  55.969  1.00  0.00     0.002 A 
HETATM   28  H   UNL     1      29.189  41.844  53.053  1.00  0.00     0.167 HD
ENDBRANCH  18  19
ENDBRANCH   1  18
TORSDOF 4
ENDMDL
MODEL 9
REMARK VINA RESULT:      -8.5      8.101     11.708
REMARK  4 active torsions:
REMARK  status: ('A' for Active; 'I' for Inactive)
REMARK    1  A    between atoms: C_6  and  C_7 
REMARK    2  A    between atoms: C_7  and  N_8 
REMARK       I    between atoms: N_8  and  C_9 
REMARK    3  A    between atoms: C_9  and  C_10 
REMARK    4  A    between atoms: C_14  and  C_15 
ROOT
HETATM    1  N   UNL     1      15.560  53.121  50.871  1.00  0.00    -0.349 N 
HETATM    2  C   UNL     1      16.060  52.903  49.618  1.00  0.00     0.270 C 
HETATM    3  O   UNL     1      15.499  53.326  48.610  1.00  0.00    -0.266 OA
HETATM    4  H   UNL     1      16.004  52.743  51.699  1.00  0.00     0.163 HD
ENDROOT
BRANCH   2   5
HETATM    5  C   UNL     1      17.276  52.142  49.555  1.00  0.00     0.120 A 
HETATM    6  N   UNL     1      17.351  50.875  50.058  1.00  0.00    -0.272 N 
HETATM    7  H   UNL     1      16.602  50.356  50.507  1.00  0.00     0.189 HD
HETATM    8  N   UNL     1      18.556  50.302  49.935  1.00  0.00    -0.174 NA
HETATM    9  C   UNL     1      19.306  51.219  49.303  1.00  0.00     0.089 A 
HETATM   10  C   UNL     1      18.538  52.393  49.053  1.00  0.00     0.071 A 
BRANCH   9  11
HETATM   11  C   UNL     1      20.710  50.957  48.967  1.00  0.00    -0.006 A 
HETATM   12  C   UNL     1      21.730  51.135  49.914  1.00  0.00     0.015 A 
HETATM   13  C   UNL     1      23.066  50.884  49.578  1.00  0.00     0.024 A 
HETATM   14  C   UNL     1      23.391  50.453  48.294  1.00  0.00     0.034 A 
HETATM   15 CL   UNL     1      25.033  50.146  47.884  1.00  0.00    -0.084 Cl
HETATM   16  C   UNL     1      22.394  50.271  47.341  1.00  0.00     0.024 A 
HETATM   17  C   UNL     1      21.060  50.525  47.677  1.00  0.00     0.015 A 
ENDBRANCH   9  11
ENDBRANCH   2   5
BRANCH   1  18
HETATM   18  C   UNL     1      14.336  53.853  51.071  1.00  0.00     0.201 C 
BRANCH  18  19
HETATM   19  C   UNL     1      14.646  55.118  51.793  1.00  0.00     0.123 A 
HETATM   20  N   UNL     1      14.500  56.351  51.344  1.00  0.00    -0.232 NA
HETATM   21  C   UNL     1      14.928  57.167  52.363  1.00  0.00     0.085 A 
HETATM   22  C   UNL     1      15.342  56.419  53.458  1.00  0.00     0.062 A 
HETATM   23  C   UNL     1      14.995  58.567  52.426  1.00  0.00     0.034 A 
HETATM   24  C   UNL     1      15.827  56.987  54.639  1.00  0.00     0.032 A 
HETATM   25  N   UNL     1      15.151  55.118  53.071  1.00  0.00    -0.341 N 
HETATM   26  C   UNL     1      15.887  58.384  54.683  1.00  0.00     0.002 A 
HETATM   27  C   UNL     1      15.480  59.164  53.598  1.00  0.00     0.002 A 
HETATM   28  H   UNL     1      15.352  54.301  53.630  1.00  0.00     0.167 HD
ENDBRANCH  18  19
ENDBRANCH   1  18
TORSDOF 4
ENDMDL
MODEL 10
REMARK VINA RESULT:      -8.4      5.103     10.799
REMARK  4 active torsions:
REMARK  status: ('A' for Active; 'I' for Inactive)
REMARK    1  A    between atoms: C_6  and  C_7 
REMARK    2  A    between atoms: C_7  and  N_8 
REMARK       I    between atoms: N_8  and  C_9 
REMARK    3  A    between atoms: C_9  and  C_10 
REMARK    4  A    between atoms: C_14  and  C_15 
ROOT
HETATM    1  N   UNL     1      23.507  48.176  49.651  1.00  0.00    -0.349 N 
HETATM    2  C   UNL     1      23.044  49.386  49.216  1.00  0.00     0.270 C 
HETATM    3  O   UNL     1      23.796  50.252  48.774  1.00  0.00    -0.266 OA
HETATM    4  H   UNL     1      22.891  47.477  50.047  1.00  0.00     0.163 HD
ENDROOT
BRANCH   2   5
HETATM    5  C   UNL     1      21.625  49.584  49.315  1.00  0.00     0.120 A 
HETATM    6  N   UNL     1      20.783  48.557  49.633  1.00  0.00    -0.272 N 
HETATM    7  H   UNL     1      21.046  47.595  49.825  1.00  0.00     0.189 HD
HETATM    8  N   UNL     1      19.488  48.898  49.675  1.00  0.00    -0.174 NA
HETATM    9  C   UNL     1      19.472  50.211  49.395  1.00  0.00     0.089 A 
HETATM   10  C   UNL     1      20.797  50.678  49.156  1.00  0.00     0.071 A 
BRANCH   9  11
HETATM   11  C   UNL     1      18.216  50.969  49.357  1.00  0.00    -0.006 A 
HETATM   12  C   UNL     1      17.052  50.421  48.796  1.00  0.00     0.015 A 
HETATM   13  C   UNL     1      15.861  51.157  48.764  1.00  0.00     0.024 A 
HETATM   14  C   UNL     1      15.826  52.445  49.294  1.00  0.00     0.034 A 
HETATM   15 CL   UNL     1      14.361  53.346  49.253  1.00  0.00    -0.084 Cl
HETATM   16  C   UNL     1      16.969  53.005  49.854  1.00  0.00     0.024 A 
HETATM   17  C   UNL     1      18.159  52.270  49.882  1.00  0.00     0.015 A 
ENDBRANCH   9  11
ENDBRANCH   2   5
BRANCH   1  18
HETATM   18  C   UNL     1      24.911  47.859  49.623  1.00  0.00     0.201 C 
BRANCH  18  19
HETATM   19  C   UNL     1      25.262  47.123  50.868  1.00  0.00     0.123 A 
HETATM   20  N   UNL     1      26.037  47.541  51.853  1.00  0.00    -0.232 NA
HETATM   21  C   UNL     1      26.063  46.513  52.764  1.00  0.00     0.085 A 
HETATM   22  C   UNL     1      25.285  45.446  52.330  1.00  0.00     0.062 A 
HETATM   23  C   UNL     1      26.734  46.416  53.992  1.00  0.00     0.034 A 
HETATM   24  C   UNL     1      25.128  44.263  53.057  1.00  0.00     0.032 A 
HETATM   25  N   UNL     1      24.785  45.860  51.122  1.00  0.00    -0.341 N 
HETATM   26  C   UNL     1      25.805  44.184  54.279  1.00  0.00     0.002 A 
HETATM   27  C   UNL     1      26.595  45.240  54.741  1.00  0.00     0.002 A 
HETATM   28  H   UNL     1      24.174  45.323  50.523  1.00  0.00     0.167 HD
ENDBRANCH  18  19
ENDBRANCH   1  18
TORSDOF 4
ENDMDL
