MODEL 1
REMARK VINA RESULT:      -9.5      0.000      0.000
REMARK  5 active torsions:
REMARK  status: ('A' for Active; 'I' for Inactive)
REMARK    1  A    between atoms: C_6  and  O_7 
REMARK    2  A    between atoms: O_7  and  C_8 
REMARK    3  A    between atoms: C_12  and  C_13 
REMARK       I    between atoms: C_13  and  N_14 
REMARK    4  A    between atoms: N_14  and  C_15 
REMARK    5  A    between atoms: C_15  and  C_16 
ROOT
HETATM    1  C   UNL     1      26.501  50.009  48.121  1.00  0.00     0.002 A 
HETATM    2  C   UNL     1      25.108  49.962  48.193  1.00  0.00     0.025 A 
HETATM    3  C   UNL     1      24.476  49.031  49.028  1.00  0.00     0.078 A 
HETATM    4  C   UNL     1      23.043  48.999  49.076  1.00  0.00     0.102 C 
HETATM    5  N   UNL     1      21.882  48.990  49.089  1.00  0.00    -0.191 NA
HETATM    6  C   UNL     1      25.247  48.148  49.800  1.00  0.00     0.096 A 
HETATM    7  C   UNL     1      26.645  48.185  49.705  1.00  0.00     0.039 A 
HETATM    8  C   UNL     1      27.266  49.119  48.873  1.00  0.00     0.003 A 
ENDROOT
BRANCH   6   9
HETATM    9  O   UNL     1      24.562  47.245  50.589  1.00  0.00    -0.308 OA
BRANCH   9  10
HETATM   10  C   UNL     1      25.281  46.302  51.284  1.00  0.00     0.098 A 
HETATM   11  C   UNL     1      25.658  45.066  50.740  1.00  0.00     0.068 A 
HETATM   12 CL   UNL     1      25.216  44.596  49.138  1.00  0.00    -0.081 Cl
HETATM   13  C   UNL     1      26.448  44.185  51.484  1.00  0.00     0.044 A 
HETATM   14  C   UNL     1      26.882  44.552  52.765  1.00  0.00     0.033 A 
HETATM   15  C   UNL     1      26.537  45.804  53.289  1.00  0.00     0.020 A 
HETATM   16  C   UNL     1      25.737  46.677  52.550  1.00  0.00     0.040 A 
BRANCH  14  17
HETATM   17  C   UNL     1      27.770  43.671  53.563  1.00  0.00     0.251 C 
HETATM   18  N   UNL     1      29.065  44.107  53.735  1.00  0.00    -0.353 N 
HETATM   19  H   UNL     1      29.412  44.871  53.171  1.00  0.00     0.163 HD
HETATM   20  O   UNL     1      27.339  42.612  54.004  1.00  0.00    -0.268 OA
BRANCH  18  21
HETATM   21  C   UNL     1      30.041  43.308  54.445  1.00  0.00     0.161 C 
BRANCH  21  22
HETATM   22  C   UNL     1      30.432  43.943  55.751  1.00  0.00    -0.038 A 
HETATM   23  C   UNL     1      31.368  43.344  56.597  1.00  0.00     0.028 A 
HETATM   24  C   UNL     1      31.684  43.975  57.791  1.00  0.00     0.116 A 
HETATM   25  N   UNL     1      31.133  45.138  58.197  1.00  0.00    -0.273 NA
HETATM   26  C   UNL     1      30.226  45.699  57.369  1.00  0.00     0.116 A 
HETATM   27  C   UNL     1      29.847  45.147  56.157  1.00  0.00     0.028 A 
ENDBRANCH  21  22
ENDBRANCH  18  21
ENDBRANCH  14  17
ENDBRANCH   9  10
ENDBRANCH   6   9
TORSDOF 5
ENDMDL
MODEL 2
REMARK VINA RESULT:      -8.8      2.215      9.084
REMARK  5 active torsions:
REMARK  status: ('A' for Active; 'I' for Inactive)
REMARK    1  A    between atoms: C_6  and  O_7 
REMARK    2  A    between atoms: O_7  and  C_8 
REMARK    3  A    between atoms: C_12  and  C_13 
REMARK       I    between atoms: C_13  and  N_14 
REMARK    4  A    between atoms: N_14  and  C_15 
REMARK    5  A    between atoms: C_15  and  C_16 
ROOT
HETATM    1  C   UNL     1      30.275  42.811  53.428  1.00  0.00     0.002 A 
HETATM    2  C   UNL     1      29.946  43.808  54.347  1.00  0.00     0.025 A 
HETATM    3  C   UNL     1      28.629  44.280  54.432  1.00  0.00     0.078 A 
HETATM    4  C   UNL     1      28.319  45.312  55.380  1.00  0.00     0.102 C 
HETATM    5  N   UNL     1      28.099  46.153  56.150  1.00  0.00    -0.191 NA
HETATM    6  C   UNL     1      27.638  43.743  53.597  1.00  0.00     0.096 A 
HETATM    7  C   UNL     1      27.982  42.758  52.660  1.00  0.00     0.039 A 
HETATM    8  C   UNL     1      29.295  42.291  52.585  1.00  0.00     0.003 A 
ENDROOT
BRANCH   6   9
HETATM    9  O   UNL     1      26.364  44.263  53.721  1.00  0.00    -0.308 OA
BRANCH   9  10
HETATM   10  C   UNL     1      25.889  45.081  52.724  1.00  0.00     0.098 A 
HETATM   11  C   UNL     1      25.133  44.614  51.640  1.00  0.00     0.068 A 
HETATM   12 CL   UNL     1      24.757  42.941  51.437  1.00  0.00    -0.081 Cl
HETATM   13  C   UNL     1      24.626  45.517  50.700  1.00  0.00     0.044 A 
HETATM   14  C   UNL     1      24.854  46.889  50.859  1.00  0.00     0.033 A 
HETATM   15  C   UNL     1      25.575  47.356  51.966  1.00  0.00     0.020 A 
HETATM   16  C   UNL     1      26.092  46.453  52.896  1.00  0.00     0.040 A 
BRANCH  14  17
HETATM   17  C   UNL     1      24.282  47.884  49.916  1.00  0.00     0.251 C 
HETATM   18  N   UNL     1      22.926  47.799  49.692  1.00  0.00    -0.353 N 
HETATM   19  H   UNL     1      22.422  46.979  49.997  1.00  0.00     0.163 HD
HETATM   20  O   UNL     1      25.018  48.699  49.374  1.00  0.00    -0.268 OA
BRANCH  18  21
HETATM   21  C   UNL     1      22.264  48.675  48.750  1.00  0.00     0.161 C 
BRANCH  21  22
HETATM   22  C   UNL     1      21.010  49.268  49.332  1.00  0.00    -0.038 A 
HETATM   23  C   UNL     1      19.892  48.476  49.606  1.00  0.00     0.028 A 
HETATM   24  C   UNL     1      18.764  49.083  50.138  1.00  0.00     0.116 A 
HETATM   25  N   UNL     1      18.672  50.402  50.403  1.00  0.00    -0.273 NA
HETATM   26  C   UNL     1      19.760  51.152  50.127  1.00  0.00     0.116 A 
HETATM   27  C   UNL     1      20.933  50.639  49.597  1.00  0.00     0.028 A 
ENDBRANCH  21  22
ENDBRANCH  18  21
ENDBRANCH  14  17
ENDBRANCH   9  10
ENDBRANCH   6   9
TORSDOF 5
ENDMDL
MODEL 3
REMARK VINA RESULT:      -8.4      2.402      3.813
REMARK  5 active torsions:
REMARK  status: ('A' for Active; 'I' for Inactive)
REMARK    1  A    between atoms: C_6  and  O_7 
REMARK    2  A    between atoms: O_7  and  C_8 
REMARK    3  A    between atoms: C_12  and  C_13 
REMARK       I    between atoms: C_13  and  N_14 
REMARK    4  A    between atoms: N_14  and  C_15 
REMARK    5  A    between atoms: C_15  and  C_16 
ROOT
HETATM    1  C   UNL     1      20.184  50.870  49.449  1.00  0.00     0.002 A 
HETATM    2  C   UNL     1      21.440  51.106  48.886  1.00  0.00     0.025 A 
HETATM    3  C   UNL     1      22.220  50.034  48.431  1.00  0.00     0.078 A 
HETATM    4  C   UNL     1      23.510  50.303  47.864  1.00  0.00     0.102 C 
HETATM    5  N   UNL     1      24.554  50.549  47.419  1.00  0.00    -0.191 NA
HETATM    6  C   UNL     1      21.734  48.722  48.533  1.00  0.00     0.096 A 
HETATM    7  C   UNL     1      20.481  48.492  49.121  1.00  0.00     0.039 A 
HETATM    8  C   UNL     1      19.710  49.566  49.569  1.00  0.00     0.003 A 
ENDROOT
BRANCH   6   9
HETATM    9  O   UNL     1      22.558  47.710  48.081  1.00  0.00    -0.308 OA
BRANCH   9  10
HETATM   10  C   UNL     1      23.134  46.870  49.002  1.00  0.00     0.098 A 
HETATM   11  C   UNL     1      22.897  45.488  49.038  1.00  0.00     0.068 A 
HETATM   12 CL   UNL     1      21.817  44.714  47.935  1.00  0.00    -0.081 Cl
HETATM   13  C   UNL     1      23.572  44.686  49.963  1.00  0.00     0.044 A 
HETATM   14  C   UNL     1      24.503  45.263  50.836  1.00  0.00     0.033 A 
HETATM   15  C   UNL     1      24.767  46.637  50.770  1.00  0.00     0.020 A 
HETATM   16  C   UNL     1      24.083  47.438  49.855  1.00  0.00     0.040 A 
BRANCH  14  17
HETATM   17  C   UNL     1      25.283  44.437  51.792  1.00  0.00     0.251 C 
HETATM   18  N   UNL     1      26.613  44.767  51.936  1.00  0.00    -0.353 N 
HETATM   19  H   UNL     1      27.045  45.393  51.271  1.00  0.00     0.163 HD
HETATM   20  O   UNL     1      24.739  43.510  52.379  1.00  0.00    -0.268 OA
BRANCH  18  21
HETATM   21  C   UNL     1      27.489  44.000  52.794  1.00  0.00     0.161 C 
BRANCH  21  22
HETATM   22  C   UNL     1      27.981  44.817  53.957  1.00  0.00    -0.038 A 
HETATM   23  C   UNL     1      29.053  44.388  54.743  1.00  0.00     0.028 A 
HETATM   24  C   UNL     1      29.457  45.184  55.805  1.00  0.00     0.116 A 
HETATM   25  N   UNL     1      28.871  46.353  56.136  1.00  0.00    -0.273 NA
HETATM   26  C   UNL     1      27.834  46.748  55.369  1.00  0.00     0.116 A 
HETATM   27  C   UNL     1      27.358  46.025  54.287  1.00  0.00     0.028 A 
ENDBRANCH  21  22
ENDBRANCH  18  21
ENDBRANCH  14  17
ENDBRANCH   9  10
ENDBRANCH   6   9
TORSDOF 5
ENDMDL
MODEL 4
REMARK VINA RESULT:      -8.1      2.335      9.032
REMARK  5 active torsions:
REMARK  status: ('A' for Active; 'I' for Inactive)
REMARK    1  A    between atoms: C_6  and  O_7 
REMARK    2  A    between atoms: O_7  and  C_8 
REMARK    3  A    between atoms: C_12  and  C_13 
REMARK       I    between atoms: C_13  and  N_14 
REMARK    4  A    between atoms: N_14  and  C_15 
REMARK    5  A    between atoms: C_15  and  C_16 
ROOT
HETATM    1  C   UNL     1      31.034  43.394  54.976  1.00  0.00     0.002 A 
HETATM    2  C   UNL     1      30.633  44.333  55.928  1.00  0.00     0.025 A 
HETATM    3  C   UNL     1      29.313  44.804  55.941  1.00  0.00     0.078 A 
HETATM    4  C   UNL     1      28.930  45.775  56.925  1.00  0.00     0.102 C 
HETATM    5  N   UNL     1      28.650  46.567  57.726  1.00  0.00    -0.191 NA
HETATM    6  C   UNL     1      28.390  44.324  54.999  1.00  0.00     0.096 A 
HETATM    7  C   UNL     1      28.806  43.399  54.032  1.00  0.00     0.039 A 
HETATM    8  C   UNL     1      30.122  42.933  54.028  1.00  0.00     0.003 A 
ENDROOT
BRANCH   6   9
HETATM    9  O   UNL     1      27.110  44.841  55.056  1.00  0.00    -0.308 OA
BRANCH   9  10
HETATM   10  C   UNL     1      26.552  45.343  53.905  1.00  0.00     0.098 A 
HETATM   11  C   UNL     1      26.354  46.712  53.678  1.00  0.00     0.068 A 
HETATM   12 CL   UNL     1      26.765  47.905  54.857  1.00  0.00    -0.081 Cl
HETATM   13  C   UNL     1      25.843  47.152  52.454  1.00  0.00     0.044 A 
HETATM   14  C   UNL     1      25.554  46.224  51.446  1.00  0.00     0.033 A 
HETATM   15  C   UNL     1      25.791  44.860  51.661  1.00  0.00     0.020 A 
HETATM   16  C   UNL     1      26.289  44.421  52.889  1.00  0.00     0.040 A 
BRANCH  14  17
HETATM   17  C   UNL     1      25.066  46.655  50.112  1.00  0.00     0.251 C 
HETATM   18  N   UNL     1      23.708  46.856  49.997  1.00  0.00    -0.353 N 
HETATM   19  H   UNL     1      23.093  46.522  50.725  1.00  0.00     0.163 HD
HETATM   20  O   UNL     1      25.860  46.789  49.189  1.00  0.00    -0.268 OA
BRANCH  18  21
HETATM   21  C   UNL     1      23.106  47.221  48.733  1.00  0.00     0.161 C 
BRANCH  21  22
HETATM   22  C   UNL     1      22.533  48.611  48.774  1.00  0.00    -0.038 A 
HETATM   23  C   UNL     1      23.338  49.734  48.567  1.00  0.00     0.028 A 
HETATM   24  C   UNL     1      22.751  50.990  48.622  1.00  0.00     0.116 A 
HETATM   25  N   UNL     1      21.442  51.200  48.873  1.00  0.00    -0.273 NA
HETATM   26  C   UNL     1      20.682  50.103  49.076  1.00  0.00     0.116 A 
HETATM   27  C   UNL     1      21.174  48.809  49.039  1.00  0.00     0.028 A 
ENDBRANCH  21  22
ENDBRANCH  18  21
ENDBRANCH  14  17
ENDBRANCH   9  10
ENDBRANCH   6   9
TORSDOF 5
ENDMDL
MODEL 5
REMARK VINA RESULT:      -7.9      5.291     12.338
REMARK  5 active torsions:
REMARK  status: ('A' for Active; 'I' for Inactive)
REMARK    1  A    between atoms: C_6  and  O_7 
REMARK    2  A    between atoms: O_7  and  C_8 
REMARK    3  A    between atoms: C_12  and  C_13 
REMARK       I    between atoms: C_13  and  N_14 
REMARK    4  A    between atoms: N_14  and  C_15 
REMARK    5  A    between atoms: C_15  and  C_16 
ROOT
HETATM    1  C   UNL     1      27.229  49.259  48.752  1.00  0.00     0.002 A 
HETATM    2  C   UNL     1      26.876  48.261  49.662  1.00  0.00     0.025 A 
HETATM    3  C   UNL     1      25.526  47.978  49.909  1.00  0.00     0.078 A 
HETATM    4  C   UNL     1      25.191  46.953  50.855  1.00  0.00     0.102 C 
HETATM    5  N   UNL     1      24.949  46.125  51.632  1.00  0.00    -0.191 NA
HETATM    6  C   UNL     1      24.526  48.696  49.235  1.00  0.00     0.096 A 
HETATM    7  C   UNL     1      24.889  49.713  48.340  1.00  0.00     0.039 A 
HETATM    8  C   UNL     1      26.236  49.985  48.097  1.00  0.00     0.003 A 
ENDROOT
BRANCH   6   9
HETATM    9  O   UNL     1      23.216  48.380  49.536  1.00  0.00    -0.308 OA
BRANCH   9  10
HETATM   10  C   UNL     1      22.215  49.166  49.019  1.00  0.00     0.098 A 
HETATM   11  C   UNL     1      21.391  48.765  47.958  1.00  0.00     0.068 A 
HETATM   12 CL   UNL     1      21.587  47.240  47.171  1.00  0.00    -0.081 Cl
HETATM   13  C   UNL     1      20.348  49.592  47.531  1.00  0.00     0.044 A 
HETATM   14  C   UNL     1      20.113  50.809  48.182  1.00  0.00     0.033 A 
HETATM   15  C   UNL     1      20.912  51.188  49.268  1.00  0.00     0.020 A 
HETATM   16  C   UNL     1      21.961  50.368  49.685  1.00  0.00     0.040 A 
BRANCH  14  17
HETATM   17  C   UNL     1      18.979  51.687  47.796  1.00  0.00     0.251 C 
HETATM   18  N   UNL     1      18.210  51.258  46.738  1.00  0.00    -0.353 N 
HETATM   19  H   UNL     1      18.545  50.504  46.153  1.00  0.00     0.163 HD
HETATM   20  O   UNL     1      18.792  52.737  48.399  1.00  0.00    -0.268 OA
BRANCH  18  21
HETATM   21  C   UNL     1      17.114  52.055  46.232  1.00  0.00     0.161 C 
BRANCH  21  22
HETATM   22  C   UNL     1      17.243  52.300  44.753  1.00  0.00    -0.038 A 
HETATM   23  C   UNL     1      17.807  51.342  43.906  1.00  0.00     0.028 A 
HETATM   24  C   UNL     1      17.903  51.629  42.553  1.00  0.00     0.116 A 
HETATM   25  N   UNL     1      17.490  52.786  41.996  1.00  0.00    -0.273 NA
HETATM   26  C   UNL     1      16.953  53.701  42.831  1.00  0.00     0.116 A 
HETATM   27  C   UNL     1      16.812  53.508  44.195  1.00  0.00     0.028 A 
ENDBRANCH  21  22
ENDBRANCH  18  21
ENDBRANCH  14  17
ENDBRANCH   9  10
ENDBRANCH   6   9
TORSDOF 5
ENDMDL
MODEL 6
REMARK VINA RESULT:      -7.8      4.233      6.437
REMARK  5 active torsions:
REMARK  status: ('A' for Active; 'I' for Inactive)
REMARK    1  A    between atoms: C_6  and  O_7 
REMARK    2  A    between atoms: O_7  and  C_8 
REMARK    3  A    between atoms: C_12  and  C_13 
REMARK       I    between atoms: C_13  and  N_14 
REMARK    4  A    between atoms: N_14  and  C_15 
REMARK    5  A    between atoms: C_15  and  C_16 
ROOT
HETATM    1  C   UNL     1      28.358  39.824  46.127  1.00  0.00     0.002 A 
HETATM    2  C   UNL     1      28.092  38.653  46.838  1.00  0.00     0.025 A 
HETATM    3  C   UNL     1      27.512  38.719  48.112  1.00  0.00     0.078 A 
HETATM    4  C   UNL     1      27.257  37.500  48.826  1.00  0.00     0.102 C 
HETATM    5  N   UNL     1      27.070  36.500  49.384  1.00  0.00    -0.191 NA
HETATM    6  C   UNL     1      27.190  39.966  48.671  1.00  0.00     0.096 A 
HETATM    7  C   UNL     1      27.482  41.138  47.959  1.00  0.00     0.039 A 
HETATM    8  C   UNL     1      28.057  41.062  46.689  1.00  0.00     0.003 A 
ENDROOT
BRANCH   6   9
HETATM    9  O   UNL     1      26.636  39.962  49.936  1.00  0.00    -0.308 OA
BRANCH   9  10
HETATM   10  C   UNL     1      26.770  41.085  50.715  1.00  0.00     0.098 A 
HETATM   11  C   UNL     1      25.825  42.120  50.744  1.00  0.00     0.068 A 
HETATM   12 CL   UNL     1      24.406  42.093  49.761  1.00  0.00    -0.081 Cl
HETATM   13  C   UNL     1      25.997  43.201  51.614  1.00  0.00     0.044 A 
HETATM   14  C   UNL     1      27.102  43.233  52.475  1.00  0.00     0.033 A 
HETATM   15  C   UNL     1      28.023  42.177  52.472  1.00  0.00     0.020 A 
HETATM   16  C   UNL     1      27.857  41.106  51.594  1.00  0.00     0.040 A 
BRANCH  14  17
HETATM   17  C   UNL     1      27.288  44.333  53.455  1.00  0.00     0.251 C 
HETATM   18  N   UNL     1      28.557  44.477  53.972  1.00  0.00    -0.353 N 
HETATM   19  H   UNL     1      29.237  43.742  53.835  1.00  0.00     0.163 HD
HETATM   20  O   UNL     1      26.334  45.031  53.773  1.00  0.00    -0.268 OA
BRANCH  18  21
HETATM   21  C   UNL     1      28.849  45.475  54.978  1.00  0.00     0.161 C 
BRANCH  21  22
HETATM   22  C   UNL     1      29.831  44.963  55.996  1.00  0.00    -0.038 A 
HETATM   23  C   UNL     1      30.576  43.804  55.766  1.00  0.00     0.028 A 
HETATM   24  C   UNL     1      31.462  43.379  56.746  1.00  0.00     0.116 A 
HETATM   25  N   UNL     1      31.647  44.016  57.922  1.00  0.00    -0.273 NA
HETATM   26  C   UNL     1      30.914  45.130  58.128  1.00  0.00     0.116 A 
HETATM   27  C   UNL     1      30.006  45.634  57.211  1.00  0.00     0.028 A 
ENDBRANCH  21  22
ENDBRANCH  18  21
ENDBRANCH  14  17
ENDBRANCH   9  10
ENDBRANCH   6   9
TORSDOF 5
ENDMDL
MODEL 7
REMARK VINA RESULT:      -7.8      3.759      6.805
REMARK  5 active torsions:
REMARK  status: ('A' for Active; 'I' for Inactive)
REMARK    1  A    between atoms: C_6  and  O_7 
REMARK    2  A    between atoms: O_7  and  C_8 
REMARK    3  A    between atoms: C_12  and  C_13 
REMARK       I    between atoms: C_13  and  N_14 
REMARK    4  A    between atoms: N_14  and  C_15 
REMARK    5  A    between atoms: C_15  and  C_16 
ROOT
HETATM    1  C   UNL     1      17.270  51.697  49.675  1.00  0.00     0.002 A 
HETATM    2  C   UNL     1      17.031  50.822  48.614  1.00  0.00     0.025 A 
HETATM    3  C   UNL     1      18.094  50.370  47.821  1.00  0.00     0.078 A 
HETATM    4  C   UNL     1      17.820  49.477  46.732  1.00  0.00     0.102 C 
HETATM    5  N   UNL     1      17.568  48.763  45.852  1.00  0.00    -0.191 NA
HETATM    6  C   UNL     1      19.403  50.792  48.099  1.00  0.00     0.096 A 
HETATM    7  C   UNL     1      19.632  51.690  49.152  1.00  0.00     0.039 A 
HETATM    8  C   UNL     1      18.567  52.133  49.939  1.00  0.00     0.003 A 
ENDROOT
BRANCH   6   9
HETATM    9  O   UNL     1      20.403  50.323  47.270  1.00  0.00    -0.308 OA
BRANCH   9  10
HETATM   10  C   UNL     1      21.524  49.771  47.839  1.00  0.00     0.098 A 
HETATM   11  C   UNL     1      21.532  48.516  48.466  1.00  0.00     0.068 A 
HETATM   12 CL   UNL     1      20.104  47.556  48.612  1.00  0.00    -0.081 Cl
HETATM   13  C   UNL     1      22.727  47.990  48.963  1.00  0.00     0.044 A 
HETATM   14  C   UNL     1      23.921  48.707  48.811  1.00  0.00     0.033 A 
HETATM   15  C   UNL     1      23.917  49.941  48.148  1.00  0.00     0.020 A 
HETATM   16  C   UNL     1      22.720  50.471  47.664  1.00  0.00     0.040 A 
BRANCH  14  17
HETATM   17  C   UNL     1      25.220  48.155  49.272  1.00  0.00     0.251 C 
HETATM   18  N   UNL     1      25.196  46.866  49.754  1.00  0.00    -0.353 N 
HETATM   19  H   UNL     1      24.309  46.429  49.962  1.00  0.00     0.163 HD
HETATM   20  O   UNL     1      26.226  48.854  49.230  1.00  0.00    -0.268 OA
BRANCH  18  21
HETATM   21  C   UNL     1      26.387  46.239  50.287  1.00  0.00     0.161 C 
BRANCH  21  22
HETATM   22  C   UNL     1      26.305  46.073  51.779  1.00  0.00    -0.038 A 
HETATM   23  C   UNL     1      25.920  47.130  52.607  1.00  0.00     0.028 A 
HETATM   24  C   UNL     1      25.869  46.916  53.977  1.00  0.00     0.116 A 
HETATM   25  N   UNL     1      26.177  45.742  54.568  1.00  0.00    -0.273 NA
HETATM   26  C   UNL     1      26.552  44.735  53.752  1.00  0.00     0.116 A 
HETATM   27  C   UNL     1      26.632  44.850  52.374  1.00  0.00     0.028 A 
ENDBRANCH  21  22
ENDBRANCH  18  21
ENDBRANCH  14  17
ENDBRANCH   9  10
ENDBRANCH   6   9
TORSDOF 5
ENDMDL
MODEL 8
REMARK VINA RESULT:      -7.7      2.873      9.374
REMARK  5 active torsions:
REMARK  status: ('A' for Active; 'I' for Inactive)
REMARK    1  A    between atoms: C_6  and  O_7 
REMARK    2  A    between atoms: O_7  and  C_8 
REMARK    3  A    between atoms: C_12  and  C_13 
REMARK       I    between atoms: C_13  and  N_14 
REMARK    4  A    between atoms: N_14  and  C_15 
REMARK    5  A    between atoms: C_15  and  C_16 
ROOT
HETATM    1  C   UNL     1      27.717  46.140  55.017  1.00  0.00     0.002 A 
HETATM    2  C   UNL     1      28.250  45.065  54.303  1.00  0.00     0.025 A 
HETATM    3  C   UNL     1      27.542  44.514  53.227  1.00  0.00     0.078 A 
HETATM    4  C   UNL     1      28.109  43.405  52.516  1.00  0.00     0.102 C 
HETATM    5  N   UNL     1      28.588  42.503  51.963  1.00  0.00    -0.191 NA
HETATM    6  C   UNL     1      26.296  45.048  52.862  1.00  0.00     0.096 A 
HETATM    7  C   UNL     1      25.757  46.111  53.599  1.00  0.00     0.039 A 
HETATM    8  C   UNL     1      26.471  46.657  54.668  1.00  0.00     0.003 A 
ENDROOT
BRANCH   6   9
HETATM    9  O   UNL     1      25.643  44.447  51.804  1.00  0.00    -0.308 OA
BRANCH   9  10
HETATM   10  C   UNL     1      24.957  45.243  50.919  1.00  0.00     0.098 A 
HETATM   11  C   UNL     1      23.871  44.789  50.157  1.00  0.00     0.068 A 
HETATM   12 CL   UNL     1      23.314  43.157  50.235  1.00  0.00    -0.081 Cl
HETATM   13  C   UNL     1      23.179  45.677  49.327  1.00  0.00     0.044 A 
HETATM   14  C   UNL     1      23.557  47.024  49.280  1.00  0.00     0.033 A 
HETATM   15  C   UNL     1      24.616  47.483  50.073  1.00  0.00     0.020 A 
HETATM   16  C   UNL     1      25.314  46.593  50.891  1.00  0.00     0.040 A 
BRANCH  14  17
HETATM   17  C   UNL     1      22.810  48.010  48.457  1.00  0.00     0.251 C 
HETATM   18  N   UNL     1      22.611  49.248  49.025  1.00  0.00    -0.353 N 
HETATM   19  H   UNL     1      22.787  49.378  50.011  1.00  0.00     0.163 HD
HETATM   20  O   UNL     1      22.393  47.686  47.351  1.00  0.00    -0.268 OA
BRANCH  18  21
HETATM   21  C   UNL     1      21.848  50.273  48.346  1.00  0.00     0.161 C 
BRANCH  21  22
HETATM   22  C   UNL     1      20.520  50.509  49.013  1.00  0.00    -0.038 A 
HETATM   23  C   UNL     1      19.873  49.492  49.720  1.00  0.00     0.028 A 
HETATM   24  C   UNL     1      18.648  49.770  50.309  1.00  0.00     0.116 A 
HETATM   25  N   UNL     1      18.032  50.968  50.237  1.00  0.00    -0.273 NA
HETATM   26  C   UNL     1      18.670  51.935  49.545  1.00  0.00     0.116 A 
HETATM   27  C   UNL     1      19.895  51.757  48.923  1.00  0.00     0.028 A 
ENDBRANCH  21  22
ENDBRANCH  18  21
ENDBRANCH  14  17
ENDBRANCH   9  10
ENDBRANCH   6   9
TORSDOF 5
ENDMDL
MODEL 9
REMARK VINA RESULT:      -7.6      3.909      5.827
REMARK  5 active torsions:
REMARK  status: ('A' for Active; 'I' for Inactive)
REMARK    1  A    between atoms: C_6  and  O_7 
REMARK    2  A    between atoms: O_7  and  C_8 
REMARK    3  A    between atoms: C_12  and  C_13 
REMARK       I    between atoms: C_13  and  N_14 
REMARK    4  A    between atoms: N_14  and  C_15 
REMARK    5  A    between atoms: C_15  and  C_16 
ROOT
HETATM    1  C   UNL     1      26.371  50.075  48.074  1.00  0.00     0.002 A 
HETATM    2  C   UNL     1      24.985  49.942  48.162  1.00  0.00     0.025 A 
HETATM    3  C   UNL     1      24.421  48.980  49.012  1.00  0.00     0.078 A 
HETATM    4  C   UNL     1      22.993  48.859  49.077  1.00  0.00     0.102 C 
HETATM    5  N   UNL     1      21.836  48.777  49.104  1.00  0.00    -0.191 NA
HETATM    6  C   UNL     1      25.254  48.154  49.783  1.00  0.00     0.096 A 
HETATM    7  C   UNL     1      26.646  48.278  49.671  1.00  0.00     0.039 A 
HETATM    8  C   UNL     1      27.198  49.242  48.824  1.00  0.00     0.003 A 
ENDROOT
BRANCH   6   9
HETATM    9  O   UNL     1      24.636  47.217  50.587  1.00  0.00    -0.308 OA
BRANCH   9  10
HETATM   10  C   UNL     1      25.177  45.956  50.662  1.00  0.00     0.098 A 
HETATM   11  C   UNL     1      25.798  45.451  51.813  1.00  0.00     0.068 A 
HETATM   12 CL   UNL     1      25.973  46.394  53.249  1.00  0.00    -0.081 Cl
HETATM   13  C   UNL     1      26.265  44.134  51.836  1.00  0.00     0.044 A 
HETATM   14  C   UNL     1      26.087  43.313  50.715  1.00  0.00     0.033 A 
HETATM   15  C   UNL     1      25.431  43.808  49.580  1.00  0.00     0.020 A 
HETATM   16  C   UNL     1      24.977  45.128  49.555  1.00  0.00     0.040 A 
BRANCH  14  17
HETATM   17  C   UNL     1      26.516  41.891  50.720  1.00  0.00     0.251 C 
HETATM   18  N   UNL     1      27.871  41.664  50.625  1.00  0.00    -0.353 N 
HETATM   19  H   UNL     1      28.485  42.422  50.361  1.00  0.00     0.163 HD
HETATM   20  O   UNL     1      25.674  41.003  50.783  1.00  0.00    -0.268 OA
BRANCH  18  21
HETATM   21  C   UNL     1      28.406  40.322  50.562  1.00  0.00     0.161 C 
BRANCH  21  22
HETATM   22  C   UNL     1      28.317  39.755  49.172  1.00  0.00    -0.038 A 
HETATM   23  C   UNL     1      28.097  40.579  48.065  1.00  0.00     0.028 A 
HETATM   24  C   UNL     1      28.020  39.996  46.809  1.00  0.00     0.116 A 
HETATM   25  N   UNL     1      28.136  38.670  46.585  1.00  0.00    -0.273 NA
HETATM   26  C   UNL     1      28.341  37.890  47.666  1.00  0.00     0.116 A 
HETATM   27  C   UNL     1      28.435  38.377  48.960  1.00  0.00     0.028 A 
ENDBRANCH  21  22
ENDBRANCH  18  21
ENDBRANCH  14  17
ENDBRANCH   9  10
ENDBRANCH   6   9
TORSDOF 5
ENDMDL
MODEL 10
REMARK VINA RESULT:      -7.6     12.058     13.639
REMARK  5 active torsions:
REMARK  status: ('A' for Active; 'I' for Inactive)
REMARK    1  A    between atoms: C_6  and  O_7 
REMARK    2  A    between atoms: O_7  and  C_8 
REMARK    3  A    between atoms: C_12  and  C_13 
REMARK       I    between atoms: C_13  and  N_14 
REMARK    4  A    between atoms: N_14  and  C_15 
REMARK    5  A    between atoms: C_15  and  C_16 
ROOT
HETATM    1  C   UNL     1      28.639  52.741  39.977  1.00  0.00     0.002 A 
HETATM    2  C   UNL     1      28.328  51.428  40.335  1.00  0.00     0.025 A 
HETATM    3  C   UNL     1      29.170  50.715  41.199  1.00  0.00     0.078 A 
HETATM    4  C   UNL     1      28.831  49.364  41.543  1.00  0.00     0.102 C 
HETATM    5  N   UNL     1      28.537  48.270  41.798  1.00  0.00    -0.191 NA
HETATM    6  C   UNL     1      30.324  51.326  41.713  1.00  0.00     0.096 A 
HETATM    7  C   UNL     1      30.642  52.636  41.330  1.00  0.00     0.039 A 
HETATM    8  C   UNL     1      29.796  53.341  40.471  1.00  0.00     0.003 A 
ENDROOT
BRANCH   6   9
HETATM    9  O   UNL     1      31.119  50.563  42.546  1.00  0.00    -0.308 OA
BRANCH   9  10
HETATM   10  C   UNL     1      32.441  50.906  42.688  1.00  0.00     0.098 A 
HETATM   11  C   UNL     1      32.929  51.666  43.760  1.00  0.00     0.068 A 
HETATM   12 CL   UNL     1      31.891  52.280  44.995  1.00  0.00    -0.081 Cl
HETATM   13  C   UNL     1      34.300  51.918  43.873  1.00  0.00     0.044 A 
HETATM   14  C   UNL     1      35.186  51.387  42.927  1.00  0.00     0.033 A 
HETATM   15  C   UNL     1      34.699  50.594  41.880  1.00  0.00     0.020 A 
HETATM   16  C   UNL     1      33.330  50.354  41.761  1.00  0.00     0.040 A 
BRANCH  14  17
HETATM   17  C   UNL     1      36.653  51.582  43.045  1.00  0.00     0.251 C 
HETATM   18  N   UNL     1      37.133  51.835  44.311  1.00  0.00    -0.353 N 
HETATM   19  H   UNL     1      36.485  52.073  45.050  1.00  0.00     0.163 HD
HETATM   20  O   UNL     1      37.354  51.537  42.041  1.00  0.00    -0.268 OA
BRANCH  18  21
HETATM   21  C   UNL     1      38.536  52.100  44.544  1.00  0.00     0.161 C 
BRANCH  21  22
HETATM   22  C   UNL     1      38.738  53.387  45.296  1.00  0.00    -0.038 A 
HETATM   23  C   UNL     1      39.246  54.524  44.664  1.00  0.00     0.028 A 
HETATM   24  C   UNL     1      39.416  55.680  45.412  1.00  0.00     0.116 A 
HETATM   25  N   UNL     1      39.126  55.775  46.727  1.00  0.00    -0.273 NA
HETATM   26  C   UNL     1      38.643  54.664  47.321  1.00  0.00     0.116 A 
HETATM   27  C   UNL     1      38.436  53.465  46.660  1.00  0.00     0.028 A 
ENDBRANCH  21  22
ENDBRANCH  18  21
ENDBRANCH  14  17
ENDBRANCH   9  10
ENDBRANCH   6   9
TORSDOF 5
ENDMDL
