MODEL 1
REMARK VINA RESULT:      -7.5      0.000      0.000
REMARK  5 active torsions:
REMARK  status: ('A' for Active; 'I' for Inactive)
REMARK    1  A    between atoms: C_8  and  C_9 
REMARK    2  A    between atoms: C_11  and  O_12 
REMARK    3  A    between atoms: C_14  and  O_15 
REMARK    4  A    between atoms: C_18  and  C_19 
REMARK    5  A    between atoms: C_22  and  O_23 
ROOT
HETATM    1  C   UNL     1      31.947  49.907  43.304  1.00  0.00     0.070 C 
HETATM    2  C   UNL     1      31.901  48.965  42.161  1.00  0.00     0.033 A 
HETATM    3  N   UNL     1      32.823  47.962  42.020  1.00  0.00    -0.282 N 
HETATM    4  H   UNL     1      33.608  47.743  42.624  1.00  0.00     0.189 HD
HETATM    5  N   UNL     1      32.613  47.183  40.947  1.00  0.00    -0.179 NA
HETATM    6  C   UNL     1      31.537  47.720  40.376  1.00  0.00     0.066 A 
HETATM    7  C   UNL     1      31.058  48.856  41.068  1.00  0.00     0.001 A 
HETATM    8  C   UNL     1      29.836  49.619  40.640  1.00  0.00     0.070 C 
HETATM    9  C   UNL     1      29.313  49.165  39.245  1.00  0.00     0.102 C 
HETATM   10  C   UNL     1      29.450  47.627  38.979  1.00  0.00     0.071 C 
HETATM   11  C   UNL     1      28.521  46.782  39.863  1.00  0.00     0.047 C 
HETATM   12  C   UNL     1      30.924  47.168  39.143  1.00  0.00     0.100 C 
ENDROOT
BRANCH   8  13
HETATM   13  C   UNL     1      30.231  51.093  40.669  1.00  0.00    -0.046 A 
HETATM   14  C   UNL     1      31.477  51.542  40.178  1.00  0.00     0.047 A 
HETATM   15  C   UNL     1      31.814  52.897  40.213  1.00  0.00     0.101 A 
HETATM   16  C   UNL     1      30.895  53.806  40.744  1.00  0.00     0.099 A 
HETATM   17  C   UNL     1      29.667  53.393  41.238  1.00  0.00     0.040 A 
HETATM   18  C   UNL     1      29.337  52.039  41.204  1.00  0.00     0.011 A 
BRANCH  15  19
HETATM   19  O   UNL     1      32.989  53.452  39.775  1.00  0.00    -0.353 OA
HETATM   20  C   UNL     1      34.047  52.549  39.469  1.00  0.00     0.210 C 
ENDBRANCH  15  19
BRANCH  16  21
HETATM   21  O   UNL     1      31.194  55.140  40.793  1.00  0.00    -0.358 OA
HETATM   22  H   UNL     1      31.069  55.390  41.729  1.00  0.00     0.218 HD
ENDBRANCH  16  21
ENDBRANCH   8  13
BRANCH   9  23
HETATM   23  C   UNL     1      27.875  49.596  38.942  1.00  0.00     0.131 C 
HETATM   24  C   UNL     1      26.849  49.710  40.037  1.00  0.00     0.091 C 
HETATM   25  O   UNL     1      27.533  49.764  37.766  1.00  0.00    -0.298 OA
ENDBRANCH   9  23
BRANCH  10  26
HETATM   26  O   UNL     1      29.112  47.326  37.610  1.00  0.00    -0.389 OA
HETATM   27  H   UNL     1      29.091  48.158  37.090  1.00  0.00     0.210 HD
ENDBRANCH  10  26
TORSDOF 5
ENDMDL
MODEL 2
REMARK VINA RESULT:      -7.4     11.906     13.371
REMARK  5 active torsions:
REMARK  status: ('A' for Active; 'I' for Inactive)
REMARK    1  A    between atoms: C_8  and  C_9 
REMARK    2  A    between atoms: C_11  and  O_12 
REMARK    3  A    between atoms: C_14  and  O_15 
REMARK    4  A    between atoms: C_18  and  C_19 
REMARK    5  A    between atoms: C_22  and  O_23 
ROOT
HETATM    1  C   UNL     1      26.072  46.739  54.369  1.00  0.00     0.070 C 
HETATM    2  C   UNL     1      27.203  45.797  54.199  1.00  0.00     0.033 A 
HETATM    3  N   UNL     1      28.305  45.848  55.011  1.00  0.00    -0.282 N 
HETATM    4  H   UNL     1      28.492  46.487  55.776  1.00  0.00     0.189 HD
HETATM    5  N   UNL     1      29.218  44.902  54.738  1.00  0.00    -0.179 NA
HETATM    6  C   UNL     1      28.690  44.244  53.708  1.00  0.00     0.066 A 
HETATM    7  C   UNL     1      27.443  44.772  53.301  1.00  0.00     0.001 A 
HETATM    8  C   UNL     1      26.633  44.182  52.181  1.00  0.00     0.070 C 
HETATM    9  C   UNL     1      27.420  43.098  51.387  1.00  0.00     0.102 C 
HETATM   10  C   UNL     1      28.355  42.207  52.275  1.00  0.00     0.071 C 
HETATM   11  C   UNL     1      27.577  41.283  53.224  1.00  0.00     0.047 C 
HETATM   12  C   UNL     1      29.359  43.083  53.071  1.00  0.00     0.100 C 
ENDROOT
BRANCH   8  13
HETATM   13  C   UNL     1      26.209  45.359  51.307  1.00  0.00    -0.046 A 
HETATM   14  C   UNL     1      27.117  46.015  50.446  1.00  0.00     0.047 A 
HETATM   15  C   UNL     1      26.704  47.089  49.653  1.00  0.00     0.101 A 
HETATM   16  C   UNL     1      25.372  47.506  49.726  1.00  0.00     0.099 A 
HETATM   17  C   UNL     1      24.461  46.885  50.566  1.00  0.00     0.040 A 
HETATM   18  C   UNL     1      24.879  45.816  51.358  1.00  0.00     0.011 A 
BRANCH  15  19
HETATM   19  O   UNL     1      27.488  47.806  48.787  1.00  0.00    -0.353 OA
HETATM   20  C   UNL     1      27.959  49.068  49.248  1.00  0.00     0.210 C 
ENDBRANCH  15  19
BRANCH  16  21
HETATM   21  O   UNL     1      24.935  48.554  48.963  1.00  0.00    -0.358 OA
HETATM   22  H   UNL     1      24.210  48.185  48.422  1.00  0.00     0.218 HD
ENDBRANCH  16  21
ENDBRANCH   8  13
BRANCH   9  23
HETATM   23  C   UNL     1      26.541  42.189  50.524  1.00  0.00     0.131 C 
HETATM   24  C   UNL     1      25.047  42.147  50.706  1.00  0.00     0.091 C 
HETATM   25  O   UNL     1      27.079  41.412  49.727  1.00  0.00    -0.298 OA
ENDBRANCH   9  23
BRANCH  10  26
HETATM   26  O   UNL     1      29.172  41.359  51.443  1.00  0.00    -0.389 OA
HETATM   27  H   UNL     1      28.765  41.288  50.553  1.00  0.00     0.210 HD
ENDBRANCH  10  26
TORSDOF 5
ENDMDL
MODEL 3
REMARK VINA RESULT:      -7.2      1.959      5.596
REMARK  5 active torsions:
REMARK  status: ('A' for Active; 'I' for Inactive)
REMARK    1  A    between atoms: C_8  and  C_9 
REMARK    2  A    between atoms: C_11  and  O_12 
REMARK    3  A    between atoms: C_14  and  O_15 
REMARK    4  A    between atoms: C_18  and  C_19 
REMARK    5  A    between atoms: C_22  and  O_23 
ROOT
HETATM    1  C   UNL     1      32.571  47.828  41.417  1.00  0.00     0.070 C 
HETATM    2  C   UNL     1      32.059  49.113  41.947  1.00  0.00     0.033 A 
HETATM    3  N   UNL     1      32.347  49.530  43.219  1.00  0.00    -0.282 N 
HETATM    4  H   UNL     1      32.900  49.055  43.925  1.00  0.00     0.189 HD
HETATM    5  N   UNL     1      31.830  50.731  43.523  1.00  0.00    -0.179 NA
HETATM    6  C   UNL     1      31.175  51.079  42.417  1.00  0.00     0.066 A 
HETATM    7  C   UNL     1      31.254  50.098  41.402  1.00  0.00     0.001 A 
HETATM    8  C   UNL     1      30.625  50.272  40.048  1.00  0.00     0.070 C 
HETATM    9  C   UNL     1      29.699  51.523  39.981  1.00  0.00     0.102 C 
HETATM   10  C   UNL     1      30.222  52.751  40.801  1.00  0.00     0.071 C 
HETATM   11  C   UNL     1      31.495  53.370  40.206  1.00  0.00     0.047 C 
HETATM   12  C   UNL     1      30.448  52.365  42.288  1.00  0.00     0.100 C 
ENDROOT
BRANCH   8  13
HETATM   13  C   UNL     1      29.877  48.972  39.764  1.00  0.00    -0.046 A 
HETATM   14  C   UNL     1      28.740  48.586  40.508  1.00  0.00     0.047 A 
HETATM   15  C   UNL     1      28.072  47.392  40.227  1.00  0.00     0.101 A 
HETATM   16  C   UNL     1      28.548  46.581  39.193  1.00  0.00     0.099 A 
HETATM   17  C   UNL     1      29.665  46.931  38.451  1.00  0.00     0.040 A 
HETATM   18  C   UNL     1      30.331  48.122  38.738  1.00  0.00     0.011 A 
BRANCH  15  19
HETATM   19  O   UNL     1      26.966  46.909  40.878  1.00  0.00    -0.353 OA
HETATM   20  C   UNL     1      25.748  47.618  40.681  1.00  0.00     0.210 C 
ENDBRANCH  15  19
BRANCH  16  21
HETATM   21  O   UNL     1      27.917  45.405  38.892  1.00  0.00    -0.358 OA
HETATM   22  H   UNL     1      28.636  44.749  38.810  1.00  0.00     0.218 HD
ENDBRANCH  16  21
ENDBRANCH   8  13
BRANCH   9  23
HETATM   23  C   UNL     1      29.364  51.981  38.559  1.00  0.00     0.131 C 
HETATM   24  C   UNL     1      30.295  51.701  37.410  1.00  0.00     0.091 C 
HETATM   25  O   UNL     1      28.355  52.670  38.371  1.00  0.00    -0.298 OA
ENDBRANCH   9  23
BRANCH  10  26
HETATM   26  O   UNL     1      29.224  53.792  40.829  1.00  0.00    -0.389 OA
HETATM   27  H   UNL     1      28.340  53.390  40.966  1.00  0.00     0.210 HD
ENDBRANCH  10  26
TORSDOF 5
ENDMDL
MODEL 4
REMARK VINA RESULT:      -7.2      2.865      4.197
REMARK  5 active torsions:
REMARK  status: ('A' for Active; 'I' for Inactive)
REMARK    1  A    between atoms: C_8  and  C_9 
REMARK    2  A    between atoms: C_11  and  O_12 
REMARK    3  A    between atoms: C_14  and  O_15 
REMARK    4  A    between atoms: C_18  and  C_19 
REMARK    5  A    between atoms: C_22  and  O_23 
ROOT
HETATM    1  C   UNL     1      30.636  53.849  40.765  1.00  0.00     0.070 C 
HETATM    2  C   UNL     1      29.606  52.803  40.965  1.00  0.00     0.033 A 
HETATM    3  N   UNL     1      28.297  53.124  41.212  1.00  0.00    -0.282 N 
HETATM    4  H   UNL     1      27.882  54.046  41.293  1.00  0.00     0.189 HD
HETATM    5  N   UNL     1      27.494  52.056  41.336  1.00  0.00    -0.179 NA
HETATM    6  C   UNL     1      28.321  51.023  41.185  1.00  0.00     0.066 A 
HETATM    7  C   UNL     1      29.663  51.420  40.979  1.00  0.00     0.001 A 
HETATM    8  C   UNL     1      30.779  50.440  40.749  1.00  0.00     0.070 C 
HETATM    9  C   UNL     1      30.335  48.968  40.997  1.00  0.00     0.102 C 
HETATM   10  C   UNL     1      28.868  48.656  40.541  1.00  0.00     0.071 C 
HETATM   11  C   UNL     1      28.694  48.700  39.016  1.00  0.00     0.047 C 
HETATM   12  C   UNL     1      27.861  49.614  41.232  1.00  0.00     0.100 C 
ENDROOT
BRANCH   8  13
HETATM   13  C   UNL     1      31.914  50.875  41.672  1.00  0.00    -0.046 A 
HETATM   14  C   UNL     1      33.186  51.234  41.173  1.00  0.00     0.047 A 
HETATM   15  C   UNL     1      34.209  51.631  42.038  1.00  0.00     0.101 A 
HETATM   16  C   UNL     1      33.953  51.668  43.411  1.00  0.00     0.099 A 
HETATM   17  C   UNL     1      32.715  51.316  43.930  1.00  0.00     0.040 A 
HETATM   18  C   UNL     1      31.700  50.916  43.062  1.00  0.00     0.011 A 
BRANCH  15  19
HETATM   19  O   UNL     1      35.481  51.995  41.677  1.00  0.00    -0.353 OA
HETATM   20  C   UNL     1      36.334  50.956  41.211  1.00  0.00     0.210 C 
ENDBRANCH  15  19
BRANCH  16  21
HETATM   21  O   UNL     1      34.932  52.053  44.286  1.00  0.00    -0.358 OA
HETATM   22  H   UNL     1      35.742  52.114  43.743  1.00  0.00     0.218 HD
ENDBRANCH  16  21
ENDBRANCH   8  13
BRANCH   9  23
HETATM   23  C   UNL     1      31.275  47.919  40.397  1.00  0.00     0.131 C 
HETATM   24  C   UNL     1      32.536  47.504  41.107  1.00  0.00     0.091 C 
HETATM   25  O   UNL     1      31.038  47.473  39.268  1.00  0.00    -0.298 OA
ENDBRANCH   9  23
BRANCH  10  26
HETATM   26  O   UNL     1      28.485  47.333  40.968  1.00  0.00    -0.389 OA
HETATM   27  H   UNL     1      29.275  46.858  41.304  1.00  0.00     0.210 HD
ENDBRANCH  10  26
TORSDOF 5
ENDMDL
MODEL 5
REMARK VINA RESULT:      -7.0      1.815      5.400
REMARK  5 active torsions:
REMARK  status: ('A' for Active; 'I' for Inactive)
REMARK    1  A    between atoms: C_8  and  C_9 
REMARK    2  A    between atoms: C_11  and  O_12 
REMARK    3  A    between atoms: C_14  and  O_15 
REMARK    4  A    between atoms: C_18  and  C_19 
REMARK    5  A    between atoms: C_22  and  O_23 
ROOT
HETATM    1  C   UNL     1      30.238  47.079  38.732  1.00  0.00     0.070 C 
HETATM    2  C   UNL     1      30.985  47.996  39.626  1.00  0.00     0.033 A 
HETATM    3  N   UNL     1      32.030  47.555  40.393  1.00  0.00    -0.282 N 
HETATM    4  H   UNL     1      32.409  46.616  40.458  1.00  0.00     0.189 HD
HETATM    5  N   UNL     1      32.613  48.524  41.117  1.00  0.00    -0.179 NA
HETATM    6  C   UNL     1      31.901  49.609  40.818  1.00  0.00     0.066 A 
HETATM    7  C   UNL     1      30.849  49.343  39.913  1.00  0.00     0.001 A 
HETATM    8  C   UNL     1      29.925  50.410  39.397  1.00  0.00     0.070 C 
HETATM    9  C   UNL     1      30.110  51.765  40.143  1.00  0.00     0.102 C 
HETATM   10  C   UNL     1      31.595  52.087  40.528  1.00  0.00     0.071 C 
HETATM   11  C   UNL     1      32.481  52.369  39.306  1.00  0.00     0.047 C 
HETATM   12  C   UNL     1      32.201  50.946  41.388  1.00  0.00     0.100 C 
ENDROOT
BRANCH   8  13
HETATM   13  C   UNL     1      28.513  49.848  39.542  1.00  0.00    -0.046 A 
HETATM   14  C   UNL     1      27.642  49.724  38.436  1.00  0.00     0.047 A 
HETATM   15  C   UNL     1      26.355  49.204  38.594  1.00  0.00     0.101 A 
HETATM   16  C   UNL     1      25.941  48.805  39.867  1.00  0.00     0.099 A 
HETATM   17  C   UNL     1      26.773  48.920  40.971  1.00  0.00     0.040 A 
HETATM   18  C   UNL     1      28.055  49.444  40.809  1.00  0.00     0.011 A 
BRANCH  15  19
HETATM   19  O   UNL     1      25.420  49.041  37.604  1.00  0.00    -0.353 OA
HETATM   20  C   UNL     1      25.798  48.232  36.495  1.00  0.00     0.210 C 
ENDBRANCH  15  19
BRANCH  16  21
HETATM   21  O   UNL     1      24.687  48.291  40.056  1.00  0.00    -0.358 OA
HETATM   22  H   UNL     1      24.511  48.405  41.010  1.00  0.00     0.218 HD
ENDBRANCH  16  21
ENDBRANCH   8  13
BRANCH   9  23
HETATM   23  C   UNL     1      29.513  52.971  39.412  1.00  0.00     0.131 C 
HETATM   24  C   UNL     1      29.150  52.898  37.954  1.00  0.00     0.091 C 
HETATM   25  O   UNL     1      29.413  54.049  40.012  1.00  0.00    -0.298 OA
ENDBRANCH   9  23
BRANCH  10  26
HETATM   26  O   UNL     1      31.649  53.260  41.364  1.00  0.00    -0.389 OA
HETATM   27  H   UNL     1      32.023  54.008  40.851  1.00  0.00     0.210 HD
ENDBRANCH  10  26
TORSDOF 5
ENDMDL
MODEL 6
REMARK VINA RESULT:      -7.0      3.015      6.535
REMARK  5 active torsions:
REMARK  status: ('A' for Active; 'I' for Inactive)
REMARK    1  A    between atoms: C_8  and  C_9 
REMARK    2  A    between atoms: C_11  and  O_12 
REMARK    3  A    between atoms: C_14  and  O_15 
REMARK    4  A    between atoms: C_18  and  C_19 
REMARK    5  A    between atoms: C_22  and  O_23 
ROOT
HETATM    1  C   UNL     1      26.882  50.176  39.235  1.00  0.00     0.070 C 
HETATM    2  C   UNL     1      28.201  50.721  38.836  1.00  0.00     0.033 A 
HETATM    3  N   UNL     1      28.310  51.741  37.928  1.00  0.00    -0.282 N 
HETATM    4  H   UNL     1      27.567  52.225  37.436  1.00  0.00     0.189 HD
HETATM    5  N   UNL     1      29.575  52.132  37.707  1.00  0.00    -0.179 NA
HETATM    6  C   UNL     1      30.294  51.321  38.481  1.00  0.00     0.066 A 
HETATM    7  C   UNL     1      29.498  50.394  39.192  1.00  0.00     0.001 A 
HETATM    8  C   UNL     1      30.073  49.394  40.156  1.00  0.00     0.070 C 
HETATM    9  C   UNL     1      31.628  49.343  40.100  1.00  0.00     0.102 C 
HETATM   10  C   UNL     1      32.307  50.737  39.868  1.00  0.00     0.071 C 
HETATM   11  C   UNL     1      32.147  51.686  41.064  1.00  0.00     0.047 C 
HETATM   12  C   UNL     1      31.772  51.401  38.571  1.00  0.00     0.100 C 
ENDROOT
BRANCH   8  13
HETATM   13  C   UNL     1      29.428  48.056  39.806  1.00  0.00    -0.046 A 
HETATM   14  C   UNL     1      28.552  47.393  40.695  1.00  0.00     0.047 A 
HETATM   15  C   UNL     1      27.972  46.170  40.351  1.00  0.00     0.101 A 
HETATM   16  C   UNL     1      28.272  45.610  39.106  1.00  0.00     0.099 A 
HETATM   17  C   UNL     1      29.133  46.235  38.216  1.00  0.00     0.040 A 
HETATM   18  C   UNL     1      29.712  47.453  38.567  1.00  0.00     0.011 A 
BRANCH  15  19
HETATM   19  O   UNL     1      27.116  45.431  41.126  1.00  0.00    -0.353 OA
HETATM   20  C   UNL     1      25.805  45.956  41.307  1.00  0.00     0.210 C 
ENDBRANCH  15  19
BRANCH  16  21
HETATM   21  O   UNL     1      27.721  44.413  38.737  1.00  0.00    -0.358 OA
HETATM   22  H   UNL     1      26.933  44.652  38.212  1.00  0.00     0.218 HD
ENDBRANCH  16  21
ENDBRANCH   8  13
BRANCH   9  23
HETATM   23  C   UNL     1      32.279  48.669  41.311  1.00  0.00     0.131 C 
HETATM   24  C   UNL     1      31.613  48.680  42.661  1.00  0.00     0.091 C 
HETATM   25  O   UNL     1      33.412  48.187  41.194  1.00  0.00    -0.298 OA
ENDBRANCH   9  23
BRANCH  10  26
HETATM   26  O   UNL     1      33.722  50.571  39.652  1.00  0.00    -0.389 OA
HETATM   27  H   UNL     1      33.896  49.668  39.312  1.00  0.00     0.210 HD
ENDBRANCH  10  26
TORSDOF 5
ENDMDL
MODEL 7
REMARK VINA RESULT:      -6.9      2.011      5.496
REMARK  5 active torsions:
REMARK  status: ('A' for Active; 'I' for Inactive)
REMARK    1  A    between atoms: C_8  and  C_9 
REMARK    2  A    between atoms: C_11  and  O_12 
REMARK    3  A    between atoms: C_14  and  O_15 
REMARK    4  A    between atoms: C_18  and  C_19 
REMARK    5  A    between atoms: C_22  and  O_23 
ROOT
HETATM    1  C   UNL     1      32.550  47.534  41.385  1.00  0.00     0.070 C 
HETATM    2  C   UNL     1      31.981  48.837  41.802  1.00  0.00     0.033 A 
HETATM    3  N   UNL     1      32.401  49.471  42.941  1.00  0.00    -0.282 N 
HETATM    4  H   UNL     1      33.099  49.162  43.610  1.00  0.00     0.189 HD
HETATM    5  N   UNL     1      31.805  50.655  43.150  1.00  0.00    -0.179 NA
HETATM    6  C   UNL     1      30.964  50.769  42.124  1.00  0.00     0.066 A 
HETATM    7  C   UNL     1      31.003  49.651  41.258  1.00  0.00     0.001 A 
HETATM    8  C   UNL     1      30.170  49.556  40.010  1.00  0.00     0.070 C 
HETATM    9  C   UNL     1      29.113  50.696  39.915  1.00  0.00     0.102 C 
HETATM   10  C   UNL     1      29.611  52.078  40.460  1.00  0.00     0.071 C 
HETATM   11  C   UNL     1      30.709  52.704  39.589  1.00  0.00     0.047 C 
HETATM   12  C   UNL     1      30.089  51.951  41.931  1.00  0.00     0.100 C 
ENDROOT
BRANCH   8  13
HETATM   13  C   UNL     1      29.537  48.167  40.035  1.00  0.00    -0.046 A 
HETATM   14  C   UNL     1      29.991  47.124  39.197  1.00  0.00     0.047 A 
HETATM   15  C   UNL     1      29.397  45.861  39.240  1.00  0.00     0.101 A 
HETATM   16  C   UNL     1      28.341  45.643  40.129  1.00  0.00     0.099 A 
HETATM   17  C   UNL     1      27.871  46.650  40.959  1.00  0.00     0.040 A 
HETATM   18  C   UNL     1      28.465  47.911  40.909  1.00  0.00     0.011 A 
BRANCH  15  19
HETATM   19  O   UNL     1      29.743  44.776  38.477  1.00  0.00    -0.353 OA
HETATM   20  C   UNL     1      29.305  44.782  37.122  1.00  0.00     0.210 C 
ENDBRANCH  15  19
BRANCH  16  21
HETATM   21  O   UNL     1      27.737  44.418  40.196  1.00  0.00    -0.358 OA
HETATM   22  H   UNL     1      28.109  43.914  39.446  1.00  0.00     0.218 HD
ENDBRANCH  16  21
ENDBRANCH   8  13
BRANCH   9  23
HETATM   23  C   UNL     1      28.530  50.895  38.513  1.00  0.00     0.131 C 
HETATM   24  C   UNL     1      27.048  50.803  38.265  1.00  0.00     0.091 C 
HETATM   25  O   UNL     1      29.299  51.045  37.557  1.00  0.00    -0.298 OA
ENDBRANCH   9  23
BRANCH  10  26
HETATM   26  O   UNL     1      28.520  53.020  40.498  1.00  0.00    -0.389 OA
HETATM   27  H   UNL     1      27.999  52.947  39.670  1.00  0.00     0.210 HD
ENDBRANCH  10  26
TORSDOF 5
ENDMDL
MODEL 8
REMARK VINA RESULT:      -6.9     25.479     27.371
REMARK  5 active torsions:
REMARK  status: ('A' for Active; 'I' for Inactive)
REMARK    1  A    between atoms: C_8  and  C_9 
REMARK    2  A    between atoms: C_11  and  O_12 
REMARK    3  A    between atoms: C_14  and  O_15 
REMARK    4  A    between atoms: C_18  and  C_19 
REMARK    5  A    between atoms: C_22  and  O_23 
ROOT
HETATM    1  C   UNL     1      36.288  41.859  65.333  1.00  0.00     0.070 C 
HETATM    2  C   UNL     1      36.658  43.224  64.891  1.00  0.00     0.033 A 
HETATM    3  N   UNL     1      35.707  44.149  64.549  1.00  0.00    -0.282 N 
HETATM    4  H   UNL     1      34.698  44.039  64.545  1.00  0.00     0.189 HD
HETATM    5  N   UNL     1      36.215  45.342  64.204  1.00  0.00    -0.179 NA
HETATM    6  C   UNL     1      37.531  45.164  64.308  1.00  0.00     0.066 A 
HETATM    7  C   UNL     1      37.877  43.852  64.705  1.00  0.00     0.001 A 
HETATM    8  C   UNL     1      39.298  43.413  64.924  1.00  0.00     0.070 C 
HETATM    9  C   UNL     1      40.328  44.477  64.443  1.00  0.00     0.102 C 
HETATM   10  C   UNL     1      39.883  45.959  64.696  1.00  0.00     0.071 C 
HETATM   11  C   UNL     1      39.846  46.326  66.187  1.00  0.00     0.047 C 
HETATM   12  C   UNL     1      38.510  46.243  64.031  1.00  0.00     0.100 C 
ENDROOT
BRANCH   8  13
HETATM   13  C   UNL     1      39.442  42.082  64.191  1.00  0.00    -0.046 A 
HETATM   14  C   UNL     1      39.997  40.942  64.815  1.00  0.00     0.047 A 
HETATM   15  C   UNL     1      40.116  39.734  64.124  1.00  0.00     0.101 A 
HETATM   16  C   UNL     1      39.676  39.670  62.799  1.00  0.00     0.099 A 
HETATM   17  C   UNL     1      39.132  40.774  62.160  1.00  0.00     0.040 A 
HETATM   18  C   UNL     1      39.020  41.979  62.853  1.00  0.00     0.011 A 
BRANCH  15  19
HETATM   19  O   UNL     1      40.640  38.566  64.616  1.00  0.00    -0.353 OA
HETATM   20  C   UNL     1      40.056  38.059  65.811  1.00  0.00     0.210 C 
ENDBRANCH  15  19
BRANCH  16  21
HETATM   21  O   UNL     1      39.778  38.502  62.094  1.00  0.00    -0.358 OA
HETATM   22  H   UNL     1      38.996  37.980  62.360  1.00  0.00     0.218 HD
ENDBRANCH  16  21
ENDBRANCH   8  13
BRANCH   9  23
HETATM   23  C   UNL     1      41.741  44.280  64.999  1.00  0.00     0.131 C 
HETATM   24  C   UNL     1      41.969  43.631  66.337  1.00  0.00     0.091 C 
HETATM   25  O   UNL     1      42.703  44.745  64.376  1.00  0.00    -0.298 OA
ENDBRANCH   9  23
BRANCH  10  26
HETATM   26  O   UNL     1      40.805  46.870  64.064  1.00  0.00    -0.389 OA
HETATM   27  H   UNL     1      41.288  47.373  64.753  1.00  0.00     0.210 HD
ENDBRANCH  10  26
TORSDOF 5
ENDMDL
MODEL 9
REMARK VINA RESULT:      -6.9      2.980      4.456
REMARK  5 active torsions:
REMARK  status: ('A' for Active; 'I' for Inactive)
REMARK    1  A    between atoms: C_8  and  C_9 
REMARK    2  A    between atoms: C_11  and  O_12 
REMARK    3  A    between atoms: C_14  and  O_15 
REMARK    4  A    between atoms: C_18  and  C_19 
REMARK    5  A    between atoms: C_22  and  O_23 
ROOT
HETATM    1  C   UNL     1      32.071  51.285  37.605  1.00  0.00     0.070 C 
HETATM    2  C   UNL     1      30.629  51.430  37.912  1.00  0.00     0.033 A 
HETATM    3  N   UNL     1      29.887  52.462  37.401  1.00  0.00    -0.282 N 
HETATM    4  H   UNL     1      30.195  53.215  36.794  1.00  0.00     0.189 HD
HETATM    5  N   UNL     1      28.593  52.422  37.754  1.00  0.00    -0.179 NA
HETATM    6  C   UNL     1      28.513  51.344  38.532  1.00  0.00     0.066 A 
HETATM    7  C   UNL     1      29.758  50.693  38.696  1.00  0.00     0.001 A 
HETATM    8  C   UNL     1      29.922  49.435  39.502  1.00  0.00     0.070 C 
HETATM    9  C   UNL     1      28.639  49.077  40.309  1.00  0.00     0.102 C 
HETATM   10  C   UNL     1      27.300  49.397  39.559  1.00  0.00     0.071 C 
HETATM   11  C   UNL     1      27.069  48.495  38.338  1.00  0.00     0.047 C 
HETATM   12  C   UNL     1      27.242  50.893  39.149  1.00  0.00     0.100 C 
ENDROOT
BRANCH   8  13
HETATM   13  C   UNL     1      31.134  49.668  40.400  1.00  0.00    -0.046 A 
HETATM   14  C   UNL     1      31.254  50.819  41.210  1.00  0.00     0.047 A 
HETATM   15  C   UNL     1      32.373  51.008  42.025  1.00  0.00     0.101 A 
HETATM   16  C   UNL     1      33.377  50.036  42.026  1.00  0.00     0.099 A 
HETATM   17  C   UNL     1      33.289  48.900  41.236  1.00  0.00     0.040 A 
HETATM   18  C   UNL     1      32.172  48.718  40.422  1.00  0.00     0.011 A 
BRANCH  15  19
HETATM   19  O   UNL     1      32.605  52.080  42.848  1.00  0.00    -0.353 OA
HETATM   20  C   UNL     1      32.105  51.984  44.177  1.00  0.00     0.210 C 
ENDBRANCH  15  19
BRANCH  16  21
HETATM   21  O   UNL     1      34.485  50.191  42.813  1.00  0.00    -0.358 OA
HETATM   22  H   UNL     1      35.237  49.955  42.235  1.00  0.00     0.218 HD
ENDBRANCH  16  21
ENDBRANCH   8  13
BRANCH   9  23
HETATM   23  C   UNL     1      28.594  47.630  40.809  1.00  0.00     0.131 C 
HETATM   24  C   UNL     1      29.278  46.523  40.053  1.00  0.00     0.091 C 
HETATM   25  O   UNL     1      27.910  47.358  41.802  1.00  0.00    -0.298 OA
ENDBRANCH   9  23
BRANCH  10  26
HETATM   26  O   UNL     1      26.177  49.203  40.441  1.00  0.00    -0.389 OA
HETATM   27  H   UNL     1      25.462  48.736  39.959  1.00  0.00     0.210 HD
ENDBRANCH  10  26
TORSDOF 5
ENDMDL
MODEL 10
REMARK VINA RESULT:      -6.8     11.914     13.414
REMARK  5 active torsions:
REMARK  status: ('A' for Active; 'I' for Inactive)
REMARK    1  A    between atoms: C_8  and  C_9 
REMARK    2  A    between atoms: C_11  and  O_12 
REMARK    3  A    between atoms: C_14  and  O_15 
REMARK    4  A    between atoms: C_18  and  C_19 
REMARK    5  A    between atoms: C_22  and  O_23 
ROOT
HETATM    1  C   UNL     1      27.308  48.270  49.796  1.00  0.00     0.070 C 
HETATM    2  C   UNL     1      25.868  48.155  49.466  1.00  0.00     0.033 A 
HETATM    3  N   UNL     1      25.175  49.196  48.906  1.00  0.00    -0.282 N 
HETATM    4  H   UNL     1      25.519  50.119  48.663  1.00  0.00     0.189 HD
HETATM    5  N   UNL     1      23.891  48.909  48.642  1.00  0.00    -0.179 NA
HETATM    6  C   UNL     1      23.756  47.654  49.068  1.00  0.00     0.066 A 
HETATM    7  C   UNL     1      24.948  47.132  49.622  1.00  0.00     0.001 A 
HETATM    8  C   UNL     1      25.061  45.727  50.142  1.00  0.00     0.070 C 
HETATM    9  C   UNL     1      23.680  45.010  50.215  1.00  0.00     0.102 C 
HETATM   10  C   UNL     1      22.708  45.370  49.040  1.00  0.00     0.071 C 
HETATM   11  C   UNL     1      23.182  44.827  47.684  1.00  0.00     0.047 C 
HETATM   12  C   UNL     1      22.481  46.904  48.962  1.00  0.00     0.100 C 
ENDROOT
BRANCH   8  13
HETATM   13  C   UNL     1      25.739  45.837  51.504  1.00  0.00    -0.046 A 
HETATM   14  C   UNL     1      26.785  44.970  51.890  1.00  0.00     0.047 A 
HETATM   15  C   UNL     1      27.392  45.093  53.143  1.00  0.00     0.101 A 
HETATM   16  C   UNL     1      26.946  46.092  54.012  1.00  0.00     0.099 A 
HETATM   17  C   UNL     1      25.917  46.953  53.662  1.00  0.00     0.040 A 
HETATM   18  C   UNL     1      25.312  46.824  52.413  1.00  0.00     0.011 A 
BRANCH  15  19
HETATM   19  O   UNL     1      28.408  44.312  53.632  1.00  0.00    -0.353 OA
HETATM   20  C   UNL     1      28.068  42.979  53.997  1.00  0.00     0.210 C 
ENDBRANCH  15  19
BRANCH  16  21
HETATM   21  O   UNL     1      27.519  46.240  55.245  1.00  0.00    -0.358 OA
HETATM   22  H   UNL     1      28.460  46.013  55.113  1.00  0.00     0.218 HD
ENDBRANCH  16  21
ENDBRANCH   8  13
BRANCH   9  23
HETATM   23  C   UNL     1      23.769  43.486  50.337  1.00  0.00     0.131 C 
HETATM   24  C   UNL     1      24.931  42.724  49.761  1.00  0.00     0.091 C 
HETATM   25  O   UNL     1      22.823  42.867  50.840  1.00  0.00    -0.298 OA
ENDBRANCH   9  23
BRANCH  10  26
HETATM   26  O   UNL     1      21.403  44.808  49.283  1.00  0.00    -0.389 OA
HETATM   27  H   UNL     1      20.773  45.529  49.499  1.00  0.00     0.210 HD
ENDBRANCH  10  26
TORSDOF 5
ENDMDL
