MODEL 1
REMARK VINA RESULT:     -10.0      0.000      0.000
REMARK  8 active torsions:
REMARK  status: ('A' for Active; 'I' for Inactive)
REMARK    1  A    between atoms: C_2  and  C_3 
REMARK    2  A    between atoms: C_3  and  N_4 
REMARK    3  A    between atoms: N_7  and  C_8 
REMARK    4  A    between atoms: C_8  and  C_9 
REMARK       I    between atoms: C_9  and  N_10 
REMARK    5  A    between atoms: N_10  and  C_11 
REMARK    6  A    between atoms: C_24  and  C_25 
REMARK       I    between atoms: C_25  and  N_26 
REMARK    7  A    between atoms: N_26  and  C_27 
REMARK    8  A    between atoms: C_27  and  C_28 
ROOT
HETATM    1  N   UNL     1      21.926  45.209  47.949  1.00  0.00    -0.262 N 
HETATM    2  C   UNL     1      22.344  46.496  47.643  1.00  0.00     0.332 C 
HETATM    3  O   UNL     1      22.019  47.067  46.600  1.00  0.00    -0.246 OA
HETATM    4  N   UNL     1      23.163  47.129  48.571  1.00  0.00    -0.290 N 
HETATM    5  C   UNL     1      23.709  46.441  49.690  1.00  0.00     0.056 A 
HETATM    6  C   UNL     1      23.352  45.114  49.918  1.00  0.00     0.059 A 
HETATM    7  C   UNL     1      22.393  44.457  49.018  1.00  0.00     0.264 C 
HETATM    8  O   UNL     1      22.064  43.295  49.243  1.00  0.00    -0.267 OA
HETATM    9  C   UNL     1      24.634  47.041  50.565  1.00  0.00     0.048 A 
HETATM   10  C   UNL     1      25.196  46.329  51.638  1.00  0.00     0.034 A 
HETATM   11  C   UNL     1      24.804  45.004  51.854  1.00  0.00     0.018 A 
HETATM   12  C   UNL     1      23.882  44.399  51.002  1.00  0.00     0.020 A 
ENDROOT
BRANCH  10  13
HETATM   13  C   UNL     1      26.272  46.897  52.509  1.00  0.00     0.252 C 
HETATM   14  N   UNL     1      26.500  46.284  53.721  1.00  0.00    -0.353 N 
HETATM   15  H   UNL     1      26.113  45.378  53.937  1.00  0.00     0.163 HD
HETATM   16  O   UNL     1      26.893  47.885  52.133  1.00  0.00    -0.268 OA
BRANCH  14  17
HETATM   17  C   UNL     1      27.441  46.818  54.679  1.00  0.00     0.161 C 
BRANCH  17  18
HETATM   18  C   UNL     1      28.458  45.779  55.074  1.00  0.00    -0.038 A 
HETATM   19  C   UNL     1      29.246  45.956  56.223  1.00  0.00     0.048 A 
HETATM   20  C   UNL     1      30.165  44.976  56.533  1.00  0.00     0.105 A 
HETATM   21  C   UNL     1      30.313  43.848  55.761  1.00  0.00     0.105 A 
HETATM   22  O   UNL     1      31.014  44.994  57.596  1.00  0.00    -0.323 OA
HETATM   23  O   UNL     1      31.277  43.016  56.239  1.00  0.00    -0.323 OA
HETATM   24  C   UNL     1      29.546  43.631  54.639  1.00  0.00     0.040 A 
HETATM   25  C   UNL     1      31.729  43.757  57.392  1.00  0.00     0.352 A 
HETATM   26  C   UNL     1      28.605  44.607  54.297  1.00  0.00     0.012 A 
ENDBRANCH  17  18
ENDBRANCH  14  17
ENDBRANCH  10  13
BRANCH   4  27
HETATM   27  C   UNL     1      23.315  48.586  48.449  1.00  0.00     0.237 C 
BRANCH  27  28
HETATM   28  C   UNL     1      22.248  49.450  49.121  1.00  0.00     0.240 C 
HETATM   29  N   UNL     1      21.060  49.549  48.424  1.00  0.00    -0.326 N 
HETATM   30  H   UNL     1      20.997  49.021  47.560  1.00  0.00     0.169 HD
HETATM   31  O   UNL     1      22.481  49.930  50.229  1.00  0.00    -0.271 OA
BRANCH  29  32
HETATM   32  C   UNL     1      19.915  50.286  48.802  1.00  0.00     0.034 A 
HETATM   33  C   UNL     1      18.850  49.752  49.535  1.00  0.00     0.031 A 
HETATM   34  C   UNL     1      17.747  50.542  49.876  1.00  0.00     0.021 A 
HETATM   35  C   UNL     1      17.704  51.876  49.488  1.00  0.00     0.011 A 
HETATM   36 BR   UNL     1      16.213  52.942  49.948  1.00  0.00    -0.051 Br
HETATM   37  C   UNL     1      18.756  52.427  48.761  1.00  0.00     0.021 A 
HETATM   38  C   UNL     1      19.858  51.632  48.421  1.00  0.00     0.031 A 
ENDBRANCH  29  32
ENDBRANCH  27  28
ENDBRANCH   4  27
BRANCH   1  39
HETATM   39  C   UNL     1      20.921  44.600  47.090  1.00  0.00     0.163 C 
BRANCH  39  40
HETATM   40  C   UNL     1      19.515  44.882  47.566  1.00  0.00    -0.017 C 
HETATM   41  C   UNL     1      18.825  46.032  47.517  1.00  0.00     0.008 C 
ENDBRANCH  39  40
ENDBRANCH   1  39
TORSDOF 8
ENDMDL
MODEL 2
REMARK VINA RESULT:      -9.6      4.433     11.262
REMARK  8 active torsions:
REMARK  status: ('A' for Active; 'I' for Inactive)
REMARK    1  A    between atoms: C_2  and  C_3 
REMARK    2  A    between atoms: C_3  and  N_4 
REMARK    3  A    between atoms: N_7  and  C_8 
REMARK    4  A    between atoms: C_8  and  C_9 
REMARK       I    between atoms: C_9  and  N_10 
REMARK    5  A    between atoms: N_10  and  C_11 
REMARK    6  A    between atoms: C_24  and  C_25 
REMARK       I    between atoms: C_25  and  N_26 
REMARK    7  A    between atoms: N_26  and  C_27 
REMARK    8  A    between atoms: C_27  and  C_28 
ROOT
HETATM    1  N   UNL     1      29.026  45.605  55.172  1.00  0.00    -0.262 N 
HETATM    2  C   UNL     1      29.019  44.282  54.756  1.00  0.00     0.332 C 
HETATM    3  O   UNL     1      29.906  43.485  55.064  1.00  0.00    -0.246 OA
HETATM    4  N   UNL     1      27.953  43.879  53.957  1.00  0.00    -0.290 N 
HETATM    5  C   UNL     1      27.013  44.808  53.428  1.00  0.00     0.056 A 
HETATM    6  C   UNL     1      27.106  46.152  53.782  1.00  0.00     0.059 A 
HETATM    7  C   UNL     1      28.152  46.584  54.721  1.00  0.00     0.264 C 
HETATM    8  O   UNL     1      28.208  47.767  55.047  1.00  0.00    -0.267 OA
HETATM    9  C   UNL     1      26.006  44.425  52.523  1.00  0.00     0.048 A 
HETATM   10  C   UNL     1      25.117  45.365  51.976  1.00  0.00     0.034 A 
HETATM   11  C   UNL     1      25.221  46.705  52.364  1.00  0.00     0.018 A 
HETATM   12  C   UNL     1      26.207  47.097  53.267  1.00  0.00     0.020 A 
ENDROOT
BRANCH  10  13
HETATM   13  C   UNL     1      24.117  45.013  50.919  1.00  0.00     0.252 C 
HETATM   14  N   UNL     1      23.988  45.874  49.852  1.00  0.00    -0.353 N 
HETATM   15  H   UNL     1      24.666  46.599  49.673  1.00  0.00     0.163 HD
HETATM   16  O   UNL     1      23.442  43.997  51.044  1.00  0.00    -0.268 OA
BRANCH  14  17
HETATM   17  C   UNL     1      22.980  45.680  48.836  1.00  0.00     0.161 C 
BRANCH  17  18
HETATM   18  C   UNL     1      22.114  46.904  48.693  1.00  0.00    -0.038 A 
HETATM   19  C   UNL     1      22.620  48.175  49.009  1.00  0.00     0.048 A 
HETATM   20  C   UNL     1      21.780  49.259  48.866  1.00  0.00     0.105 A 
HETATM   21  C   UNL     1      20.487  49.124  48.418  1.00  0.00     0.105 A 
HETATM   22  O   UNL     1      22.102  50.552  49.140  1.00  0.00    -0.323 OA
HETATM   23  O   UNL     1      19.833  50.314  48.358  1.00  0.00    -0.323 OA
HETATM   24  C   UNL     1      19.962  47.896  48.081  1.00  0.00     0.040 A 
HETATM   25  C   UNL     1      20.856  51.212  48.833  1.00  0.00     0.352 A 
HETATM   26  C   UNL     1      20.789  46.777  48.216  1.00  0.00     0.012 A 
ENDBRANCH  17  18
ENDBRANCH  14  17
ENDBRANCH  10  13
BRANCH   4  27
HETATM   27  C   UNL     1      27.732  42.434  53.811  1.00  0.00     0.237 C 
BRANCH  27  28
HETATM   28  C   UNL     1      28.183  41.797  52.496  1.00  0.00     0.240 C 
HETATM   29  N   UNL     1      27.290  40.896  51.952  1.00  0.00    -0.326 N 
HETATM   30  H   UNL     1      26.416  40.767  52.453  1.00  0.00     0.169 HD
HETATM   31  O   UNL     1      29.244  42.162  51.991  1.00  0.00    -0.271 OA
BRANCH  29  32
HETATM   32  C   UNL     1      27.453  40.156  50.760  1.00  0.00     0.034 A 
HETATM   33  C   UNL     1      28.581  39.380  50.471  1.00  0.00     0.031 A 
HETATM   34  C   UNL     1      28.675  38.671  49.268  1.00  0.00     0.021 A 
HETATM   35  C   UNL     1      27.637  38.732  48.346  1.00  0.00     0.011 A 
HETATM   36 BR   UNL     1      27.765  37.776  46.721  1.00  0.00    -0.051 Br
HETATM   37  C   UNL     1      26.504  39.496  48.617  1.00  0.00     0.021 A 
HETATM   38  C   UNL     1      26.415  40.205  49.821  1.00  0.00     0.031 A 
ENDBRANCH  29  32
ENDBRANCH  27  28
ENDBRANCH   4  27
BRANCH   1  39
HETATM   39  C   UNL     1      30.022  46.000  56.158  1.00  0.00     0.163 C 
BRANCH  39  40
HETATM   40  C   UNL     1      29.530  45.814  57.574  1.00  0.00    -0.017 C 
HETATM   41  C   UNL     1      30.194  45.338  58.639  1.00  0.00     0.008 C 
ENDBRANCH  39  40
ENDBRANCH   1  39
TORSDOF 8
ENDMDL
MODEL 3
REMARK VINA RESULT:      -9.5      5.204     11.257
REMARK  8 active torsions:
REMARK  status: ('A' for Active; 'I' for Inactive)
REMARK    1  A    between atoms: C_2  and  C_3 
REMARK    2  A    between atoms: C_3  and  N_4 
REMARK    3  A    between atoms: N_7  and  C_8 
REMARK    4  A    between atoms: C_8  and  C_9 
REMARK       I    between atoms: C_9  and  N_10 
REMARK    5  A    between atoms: N_10  and  C_11 
REMARK    6  A    between atoms: C_24  and  C_25 
REMARK       I    between atoms: C_25  and  N_26 
REMARK    7  A    between atoms: N_26  and  C_27 
REMARK    8  A    between atoms: C_27  and  C_28 
ROOT
HETATM    1  N   UNL     1      27.606  43.383  53.441  1.00  0.00    -0.262 N 
HETATM    2  C   UNL     1      27.208  42.691  52.306  1.00  0.00     0.332 C 
HETATM    3  O   UNL     1      27.616  41.559  52.043  1.00  0.00    -0.246 OA
HETATM    4  N   UNL     1      26.315  43.336  51.457  1.00  0.00    -0.290 N 
HETATM    5  C   UNL     1      25.967  44.706  51.626  1.00  0.00     0.056 A 
HETATM    6  C   UNL     1      26.465  45.408  52.721  1.00  0.00     0.059 A 
HETATM    7  C   UNL     1      27.316  44.715  53.701  1.00  0.00     0.264 C 
HETATM    8  O   UNL     1      27.728  45.336  54.677  1.00  0.00    -0.267 OA
HETATM    9  C   UNL     1      25.161  45.397  50.703  1.00  0.00     0.048 A 
HETATM   10  C   UNL     1      24.867  46.761  50.864  1.00  0.00     0.034 A 
HETATM   11  C   UNL     1      25.365  47.436  51.983  1.00  0.00     0.018 A 
HETATM   12  C   UNL     1      26.156  46.763  52.912  1.00  0.00     0.020 A 
ENDROOT
BRANCH  10  13
HETATM   13  C   UNL     1      24.119  47.554  49.839  1.00  0.00     0.252 C 
HETATM   14  N   UNL     1      22.950  47.016  49.347  1.00  0.00    -0.353 N 
HETATM   15  H   UNL     1      22.501  46.230  49.791  1.00  0.00     0.163 HD
HETATM   16  O   UNL     1      24.571  48.629  49.460  1.00  0.00    -0.268 OA
BRANCH  14  17
HETATM   17  C   UNL     1      22.211  47.651  48.280  1.00  0.00     0.161 C 
BRANCH  17  18
HETATM   18  C   UNL     1      21.061  48.458  48.824  1.00  0.00    -0.038 A 
HETATM   19  C   UNL     1      21.039  49.854  48.679  1.00  0.00     0.048 A 
HETATM   20  C   UNL     1      19.965  50.542  49.203  1.00  0.00     0.105 A 
HETATM   21  C   UNL     1      18.931  49.898  49.841  1.00  0.00     0.105 A 
HETATM   22  O   UNL     1      19.792  51.890  49.163  1.00  0.00    -0.323 OA
HETATM   23  O   UNL     1      17.980  50.762  50.287  1.00  0.00    -0.323 OA
HETATM   24  C   UNL     1      18.909  48.529  49.986  1.00  0.00     0.040 A 
HETATM   25  C   UNL     1      18.541  52.023  49.870  1.00  0.00     0.352 A 
HETATM   26  C   UNL     1      19.984  47.803  49.466  1.00  0.00     0.012 A 
ENDBRANCH  17  18
ENDBRANCH  14  17
ENDBRANCH  10  13
BRANCH   4  27
HETATM   27  C   UNL     1      25.611  42.508  50.468  1.00  0.00     0.237 C 
BRANCH  27  28
HETATM   28  C   UNL     1      26.472  41.800  49.422  1.00  0.00     0.240 C 
HETATM   29  N   UNL     1      26.334  40.426  49.392  1.00  0.00    -0.326 N 
HETATM   30  H   UNL     1      25.659  40.026  50.036  1.00  0.00     0.169 HD
HETATM   31  O   UNL     1      27.159  42.478  48.659  1.00  0.00    -0.271 OA
BRANCH  29  32
HETATM   32  C   UNL     1      27.013  39.526  48.541  1.00  0.00     0.034 A 
HETATM   33  C   UNL     1      28.155  38.810  48.913  1.00  0.00     0.031 A 
HETATM   34  C   UNL     1      28.776  37.933  48.018  1.00  0.00     0.021 A 
HETATM   35  C   UNL     1      28.255  37.764  46.740  1.00  0.00     0.011 A 
HETATM   36 BR   UNL     1      29.095  36.581  45.531  1.00  0.00    -0.051 Br
HETATM   37  C   UNL     1      27.116  38.465  46.351  1.00  0.00     0.021 A 
HETATM   38  C   UNL     1      26.499  39.343  47.251  1.00  0.00     0.031 A 
ENDBRANCH  29  32
ENDBRANCH  27  28
ENDBRANCH   4  27
BRANCH   1  39
HETATM   39  C   UNL     1      28.386  42.662  54.436  1.00  0.00     0.163 C 
BRANCH  39  40
HETATM   40  C   UNL     1      29.867  42.938  54.313  1.00  0.00    -0.017 C 
HETATM   41  C   UNL     1      30.712  43.420  55.237  1.00  0.00     0.008 C 
ENDBRANCH  39  40
ENDBRANCH   1  39
TORSDOF 8
ENDMDL
MODEL 4
REMARK VINA RESULT:      -9.3      3.191      9.505
REMARK  8 active torsions:
REMARK  status: ('A' for Active; 'I' for Inactive)
REMARK    1  A    between atoms: C_2  and  C_3 
REMARK    2  A    between atoms: C_3  and  N_4 
REMARK    3  A    between atoms: N_7  and  C_8 
REMARK    4  A    between atoms: C_8  and  C_9 
REMARK       I    between atoms: C_9  and  N_10 
REMARK    5  A    between atoms: N_10  and  C_11 
REMARK    6  A    between atoms: C_24  and  C_25 
REMARK       I    between atoms: C_25  and  N_26 
REMARK    7  A    between atoms: N_26  and  C_27 
REMARK    8  A    between atoms: C_27  and  C_28 
ROOT
HETATM    1  N   UNL     1      25.333  46.029  50.531  1.00  0.00    -0.262 N 
HETATM    2  C   UNL     1      25.014  47.320  50.136  1.00  0.00     0.332 C 
HETATM    3  O   UNL     1      25.663  48.303  50.498  1.00  0.00    -0.246 OA
HETATM    4  N   UNL     1      23.912  47.468  49.302  1.00  0.00    -0.290 N 
HETATM    5  C   UNL     1      23.032  46.387  49.014  1.00  0.00     0.056 A 
HETATM    6  C   UNL     1      23.321  45.119  49.511  1.00  0.00     0.059 A 
HETATM    7  C   UNL     1      24.546  44.910  50.296  1.00  0.00     0.264 C 
HETATM    8  O   UNL     1      24.806  43.782  50.708  1.00  0.00    -0.267 OA
HETATM    9  C   UNL     1      21.849  46.558  48.270  1.00  0.00     0.048 A 
HETATM   10  C   UNL     1      20.970  45.487  48.037  1.00  0.00     0.034 A 
HETATM   11  C   UNL     1      21.296  44.220  48.531  1.00  0.00     0.018 A 
HETATM   12  C   UNL     1      22.468  44.033  49.261  1.00  0.00     0.020 A 
ENDROOT
BRANCH  10  13
HETATM   13  C   UNL     1      19.647  45.660  47.359  1.00  0.00     0.252 C 
HETATM   14  N   UNL     1      18.668  46.350  48.039  1.00  0.00    -0.353 N 
HETATM   15  H   UNL     1      18.878  46.892  48.863  1.00  0.00     0.163 HD
HETATM   16  O   UNL     1      19.472  45.174  46.247  1.00  0.00    -0.268 OA
BRANCH  14  17
HETATM   17  C   UNL     1      17.327  46.480  47.517  1.00  0.00     0.161 C 
BRANCH  17  18
HETATM   18  C   UNL     1      17.010  47.916  47.192  1.00  0.00    -0.038 A 
HETATM   19  C   UNL     1      17.887  48.678  46.403  1.00  0.00     0.048 A 
HETATM   20  C   UNL     1      17.549  49.989  46.143  1.00  0.00     0.105 A 
HETATM   21  C   UNL     1      16.389  50.550  46.623  1.00  0.00     0.105 A 
HETATM   22  O   UNL     1      18.287  50.867  45.412  1.00  0.00    -0.323 OA
HETATM   23  O   UNL     1      16.254  51.852  46.257  1.00  0.00    -0.323 OA
HETATM   24  C   UNL     1      15.496  49.829  47.384  1.00  0.00     0.040 A 
HETATM   25  C   UNL     1      17.469  52.051  45.505  1.00  0.00     0.352 A 
HETATM   26  C   UNL     1      15.810  48.496  47.665  1.00  0.00     0.012 A 
ENDBRANCH  17  18
ENDBRANCH  14  17
ENDBRANCH  10  13
BRANCH   4  27
HETATM   27  C   UNL     1      23.775  48.746  48.589  1.00  0.00     0.237 C 
BRANCH  27  28
HETATM   28  C   UNL     1      22.732  49.726  49.126  1.00  0.00     0.240 C 
HETATM   29  N   UNL     1      21.482  49.616  48.547  1.00  0.00    -0.326 N 
HETATM   30  H   UNL     1      21.368  48.884  47.854  1.00  0.00     0.169 HD
HETATM   31  O   UNL     1      23.040  50.479  50.048  1.00  0.00    -0.271 OA
BRANCH  29  32
HETATM   32  C   UNL     1      20.342  50.397  48.840  1.00  0.00     0.034 A 
HETATM   33  C   UNL     1      20.155  51.707  48.385  1.00  0.00     0.031 A 
HETATM   34  C   UNL     1      18.998  52.422  48.714  1.00  0.00     0.021 A 
HETATM   35  C   UNL     1      18.017  51.829  49.498  1.00  0.00     0.011 A 
HETATM   36 BR   UNL     1      16.456  52.796  49.942  1.00  0.00    -0.051 Br
HETATM   37  C   UNL     1      18.182  50.524  49.958  1.00  0.00     0.021 A 
HETATM   38  C   UNL     1      19.343  49.813  49.628  1.00  0.00     0.031 A 
ENDBRANCH  29  32
ENDBRANCH  27  28
ENDBRANCH   4  27
BRANCH   1  39
HETATM   39  C   UNL     1      26.586  45.828  51.245  1.00  0.00     0.163 C 
BRANCH  39  40
HETATM   40  C   UNL     1      26.387  45.757  52.741  1.00  0.00    -0.017 C 
HETATM   41  C   UNL     1      25.626  46.536  53.526  1.00  0.00     0.008 C 
ENDBRANCH  39  40
ENDBRANCH   1  39
TORSDOF 8
ENDMDL
MODEL 5
REMARK VINA RESULT:      -9.2      2.892      9.339
REMARK  8 active torsions:
REMARK  status: ('A' for Active; 'I' for Inactive)
REMARK    1  A    between atoms: C_2  and  C_3 
REMARK    2  A    between atoms: C_3  and  N_4 
REMARK    3  A    between atoms: N_7  and  C_8 
REMARK    4  A    between atoms: C_8  and  C_9 
REMARK       I    between atoms: C_9  and  N_10 
REMARK    5  A    between atoms: N_10  and  C_11 
REMARK    6  A    between atoms: C_24  and  C_25 
REMARK       I    between atoms: C_25  and  N_26 
REMARK    7  A    between atoms: N_26  and  C_27 
REMARK    8  A    between atoms: C_27  and  C_28 
ROOT
HETATM    1  N   UNL     1      27.360  43.200  52.842  1.00  0.00    -0.262 N 
HETATM    2  C   UNL     1      27.330  42.858  51.497  1.00  0.00     0.332 C 
HETATM    3  O   UNL     1      27.892  41.854  51.057  1.00  0.00    -0.246 OA
HETATM    4  N   UNL     1      26.633  43.709  50.647  1.00  0.00    -0.290 N 
HETATM    5  C   UNL     1      26.133  44.969  51.082  1.00  0.00     0.056 A 
HETATM    6  C   UNL     1      26.267  45.333  52.420  1.00  0.00     0.059 A 
HETATM    7  C   UNL     1      26.895  44.398  53.366  1.00  0.00     0.264 C 
HETATM    8  O   UNL     1      26.985  44.718  54.549  1.00  0.00    -0.267 OA
HETATM    9  C   UNL     1      25.534  45.886  50.199  1.00  0.00     0.048 A 
HETATM   10  C   UNL     1      25.088  47.143  50.641  1.00  0.00     0.034 A 
HETATM   11  C   UNL     1      25.219  47.474  51.993  1.00  0.00     0.018 A 
HETATM   12  C   UNL     1      25.801  46.572  52.882  1.00  0.00     0.020 A 
ENDROOT
BRANCH  10  13
HETATM   13  C   UNL     1      24.562  48.188  49.707  1.00  0.00     0.252 C 
HETATM   14  N   UNL     1      23.206  48.201  49.466  1.00  0.00    -0.353 N 
HETATM   15  H   UNL     1      22.561  47.675  50.036  1.00  0.00     0.163 HD
HETATM   16  O   UNL     1      25.342  48.973  49.180  1.00  0.00    -0.268 OA
BRANCH  14  17
HETATM   17  C   UNL     1      22.614  49.100  48.501  1.00  0.00     0.161 C 
BRANCH  17  18
HETATM   18  C   UNL     1      21.254  49.561  48.955  1.00  0.00    -0.038 A 
HETATM   19  C   UNL     1      20.857  50.895  48.772  1.00  0.00     0.048 A 
HETATM   20  C   UNL     1      19.604  51.263  49.214  1.00  0.00     0.105 A 
HETATM   21  C   UNL     1      18.749  50.364  49.807  1.00  0.00     0.105 A 
HETATM   22  O   UNL     1      19.068  52.511  49.129  1.00  0.00    -0.323 OA
HETATM   23  O   UNL     1      17.570  50.935  50.173  1.00  0.00    -0.323 OA
HETATM   24  C   UNL     1      19.096  49.044  49.986  1.00  0.00     0.040 A 
HETATM   25  C   UNL     1      17.787  52.298  49.756  1.00  0.00     0.352 A 
HETATM   26  C   UNL     1      20.361  48.640  49.550  1.00  0.00     0.012 A 
ENDBRANCH  17  18
ENDBRANCH  14  17
ENDBRANCH  10  13
BRANCH   4  27
HETATM   27  C   UNL     1      26.283  43.191  49.317  1.00  0.00     0.237 C 
BRANCH  27  28
HETATM   28  C   UNL     1      24.794  43.042  49.005  1.00  0.00     0.240 C 
HETATM   29  N   UNL     1      24.334  43.843  47.979  1.00  0.00    -0.326 N 
HETATM   30  H   UNL     1      25.025  44.424  47.514  1.00  0.00     0.169 HD
HETATM   31  O   UNL     1      24.138  42.203  49.620  1.00  0.00    -0.271 OA
BRANCH  29  32
HETATM   32  C   UNL     1      23.010  43.919  47.492  1.00  0.00     0.034 A 
HETATM   33  C   UNL     1      22.468  43.025  46.562  1.00  0.00     0.031 A 
HETATM   34  C   UNL     1      21.146  43.160  46.124  1.00  0.00     0.021 A 
HETATM   35  C   UNL     1      20.354  44.190  46.618  1.00  0.00     0.011 A 
HETATM   36 BR   UNL     1      18.570  44.371  46.025  1.00  0.00    -0.051 Br
HETATM   37  C   UNL     1      20.875  45.087  47.547  1.00  0.00     0.021 A 
HETATM   38  C   UNL     1      22.199  44.950  47.981  1.00  0.00     0.031 A 
ENDBRANCH  29  32
ENDBRANCH  27  28
ENDBRANCH   4  27
BRANCH   1  39
HETATM   39  C   UNL     1      27.918  42.233  53.776  1.00  0.00     0.163 C 
BRANCH  39  40
HETATM   40  C   UNL     1      29.316  42.602  54.214  1.00  0.00    -0.017 C 
HETATM   41  C   UNL     1      30.417  42.765  53.465  1.00  0.00     0.008 C 
ENDBRANCH  39  40
ENDBRANCH   1  39
TORSDOF 8
ENDMDL
MODEL 6
REMARK VINA RESULT:      -9.1      3.779      6.844
REMARK  8 active torsions:
REMARK  status: ('A' for Active; 'I' for Inactive)
REMARK    1  A    between atoms: C_2  and  C_3 
REMARK    2  A    between atoms: C_3  and  N_4 
REMARK    3  A    between atoms: N_7  and  C_8 
REMARK    4  A    between atoms: C_8  and  C_9 
REMARK       I    between atoms: C_9  and  N_10 
REMARK    5  A    between atoms: N_10  and  C_11 
REMARK    6  A    between atoms: C_24  and  C_25 
REMARK       I    between atoms: C_25  and  N_26 
REMARK    7  A    between atoms: N_26  and  C_27 
REMARK    8  A    between atoms: C_27  and  C_28 
ROOT
HETATM    1  N   UNL     1      17.536  49.380  48.111  1.00  0.00    -0.262 N 
HETATM    2  C   UNL     1      17.966  48.118  47.725  1.00  0.00     0.332 C 
HETATM    3  O   UNL     1      17.191  47.173  47.567  1.00  0.00    -0.246 OA
HETATM    4  N   UNL     1      19.332  47.954  47.523  1.00  0.00    -0.290 N 
HETATM    5  C   UNL     1      20.274  48.962  47.873  1.00  0.00     0.056 A 
HETATM    6  C   UNL     1      19.818  50.186  48.357  1.00  0.00     0.059 A 
HETATM    7  C   UNL     1      18.372  50.428  48.467  1.00  0.00     0.264 C 
HETATM    8  O   UNL     1      17.980  51.521  48.869  1.00  0.00    -0.267 OA
HETATM    9  C   UNL     1      21.663  48.756  47.785  1.00  0.00     0.048 A 
HETATM   10  C   UNL     1      22.577  49.748  48.180  1.00  0.00     0.034 A 
HETATM   11  C   UNL     1      22.091  50.974  48.643  1.00  0.00     0.018 A 
HETATM   12  C   UNL     1      20.717  51.196  48.727  1.00  0.00     0.020 A 
ENDROOT
BRANCH  10  13
HETATM   13  C   UNL     1      24.055  49.517  48.215  1.00  0.00     0.252 C 
HETATM   14  N   UNL     1      24.539  48.629  49.150  1.00  0.00    -0.353 N 
HETATM   15  H   UNL     1      23.927  48.005  49.654  1.00  0.00     0.163 HD
HETATM   16  O   UNL     1      24.779  50.129  47.438  1.00  0.00    -0.268 OA
BRANCH  14  17
HETATM   17  C   UNL     1      25.956  48.417  49.336  1.00  0.00     0.161 C 
BRANCH  17  18
HETATM   18  C   UNL     1      26.214  47.197  50.181  1.00  0.00    -0.038 A 
HETATM   19  C   UNL     1      25.735  47.130  51.500  1.00  0.00     0.048 A 
HETATM   20  C   UNL     1      26.007  45.992  52.229  1.00  0.00     0.105 A 
HETATM   21  C   UNL     1      26.713  44.938  51.697  1.00  0.00     0.105 A 
HETATM   22  O   UNL     1      25.632  45.768  53.517  1.00  0.00    -0.323 OA
HETATM   23  O   UNL     1      26.874  43.922  52.585  1.00  0.00    -0.323 OA
HETATM   24  C   UNL     1      27.181  44.960  50.402  1.00  0.00     0.040 A 
HETATM   25  C   UNL     1      26.202  44.462  53.742  1.00  0.00     0.352 A 
HETATM   26  C   UNL     1      26.923  46.101  49.637  1.00  0.00     0.012 A 
ENDBRANCH  17  18
ENDBRANCH  14  17
ENDBRANCH  10  13
BRANCH   4  27
HETATM   27  C   UNL     1      19.762  46.762  46.778  1.00  0.00     0.237 C 
BRANCH  27  28
HETATM   28  C   UNL     1      20.416  45.642  47.588  1.00  0.00     0.240 C 
HETATM   29  N   UNL     1      21.776  45.502  47.390  1.00  0.00    -0.326 N 
HETATM   30  H   UNL     1      22.212  46.167  46.759  1.00  0.00     0.169 HD
HETATM   31  O   UNL     1      19.729  45.003  48.383  1.00  0.00    -0.271 OA
BRANCH  29  32
HETATM   32  C   UNL     1      22.625  44.548  47.994  1.00  0.00     0.034 A 
HETATM   33  C   UNL     1      23.158  43.442  47.324  1.00  0.00     0.031 A 
HETATM   34  C   UNL     1      23.994  42.537  47.986  1.00  0.00     0.021 A 
HETATM   35  C   UNL     1      24.307  42.735  49.326  1.00  0.00     0.011 A 
HETATM   36 BR   UNL     1      25.436  41.512  50.219  1.00  0.00    -0.051 Br
HETATM   37  C   UNL     1      23.790  43.833  50.009  1.00  0.00     0.021 A 
HETATM   38  C   UNL     1      22.951  44.735  49.343  1.00  0.00     0.031 A 
ENDBRANCH  29  32
ENDBRANCH  27  28
ENDBRANCH   4  27
BRANCH   1  39
HETATM   39  C   UNL     1      16.102  49.626  48.144  1.00  0.00     0.163 C 
BRANCH  39  40
HETATM   40  C   UNL     1      15.604  50.280  46.876  1.00  0.00    -0.017 C 
HETATM   41  C   UNL     1      15.419  49.733  45.665  1.00  0.00     0.008 C 
ENDBRANCH  39  40
ENDBRANCH   1  39
TORSDOF 8
ENDMDL
MODEL 7
REMARK VINA RESULT:      -9.1      3.021      5.234
REMARK  8 active torsions:
REMARK  status: ('A' for Active; 'I' for Inactive)
REMARK    1  A    between atoms: C_2  and  C_3 
REMARK    2  A    between atoms: C_3  and  N_4 
REMARK    3  A    between atoms: N_7  and  C_8 
REMARK    4  A    between atoms: C_8  and  C_9 
REMARK       I    between atoms: C_9  and  N_10 
REMARK    5  A    between atoms: N_10  and  C_11 
REMARK    6  A    between atoms: C_24  and  C_25 
REMARK       I    between atoms: C_25  and  N_26 
REMARK    7  A    between atoms: N_26  and  C_27 
REMARK    8  A    between atoms: C_27  and  C_28 
ROOT
HETATM    1  N   UNL     1      22.297  49.060  48.620  1.00  0.00    -0.262 N 
HETATM    2  C   UNL     1      21.657  47.829  48.639  1.00  0.00     0.332 C 
HETATM    3  O   UNL     1      20.439  47.714  48.491  1.00  0.00    -0.246 OA
HETATM    4  N   UNL     1      22.455  46.708  48.839  1.00  0.00    -0.290 N 
HETATM    5  C   UNL     1      23.828  46.813  49.197  1.00  0.00     0.056 A 
HETATM    6  C   UNL     1      24.422  48.071  49.271  1.00  0.00     0.059 A 
HETATM    7  C   UNL     1      23.630  49.267  48.947  1.00  0.00     0.264 C 
HETATM    8  O   UNL     1      24.170  50.369  48.989  1.00  0.00    -0.267 OA
HETATM    9  C   UNL     1      24.610  45.688  49.519  1.00  0.00     0.048 A 
HETATM   10  C   UNL     1      25.951  45.816  49.915  1.00  0.00     0.034 A 
HETATM   11  C   UNL     1      26.527  47.091  49.962  1.00  0.00     0.018 A 
HETATM   12  C   UNL     1      25.769  48.214  49.636  1.00  0.00     0.020 A 
ENDROOT
BRANCH  10  13
HETATM   13  C   UNL     1      26.771  44.655  50.382  1.00  0.00     0.252 C 
HETATM   14  N   UNL     1      26.971  44.521  51.738  1.00  0.00    -0.353 N 
HETATM   15  H   UNL     1      26.432  45.049  52.408  1.00  0.00     0.163 HD
HETATM   16  O   UNL     1      27.248  43.884  49.557  1.00  0.00    -0.268 OA
BRANCH  14  17
HETATM   17  C   UNL     1      27.834  43.497  52.283  1.00  0.00     0.161 C 
BRANCH  17  18
HETATM   18  C   UNL     1      28.520  43.978  53.534  1.00  0.00    -0.038 A 
HETATM   19  C   UNL     1      29.575  43.240  54.095  1.00  0.00     0.048 A 
HETATM   20  C   UNL     1      30.162  43.724  55.245  1.00  0.00     0.105 A 
HETATM   21  C   UNL     1      29.750  44.896  55.834  1.00  0.00     0.105 A 
HETATM   22  O   UNL     1      31.181  43.132  55.924  1.00  0.00    -0.323 OA
HETATM   23  O   UNL     1      30.455  45.186  56.960  1.00  0.00    -0.323 OA
HETATM   24  C   UNL     1      28.732  45.656  55.303  1.00  0.00     0.040 A 
HETATM   25  C   UNL     1      31.348  44.055  57.021  1.00  0.00     0.352 A 
HETATM   26  C   UNL     1      28.116  45.191  54.137  1.00  0.00     0.012 A 
ENDBRANCH  17  18
ENDBRANCH  14  17
ENDBRANCH  10  13
BRANCH   4  27
HETATM   27  C   UNL     1      21.872  45.401  48.506  1.00  0.00     0.237 C 
BRANCH  27  28
HETATM   28  C   UNL     1      21.830  45.023  47.025  1.00  0.00     0.240 C 
HETATM   29  N   UNL     1      20.638  45.310  46.388  1.00  0.00    -0.326 N 
HETATM   30  H   UNL     1      19.925  45.768  46.947  1.00  0.00     0.169 HD
HETATM   31  O   UNL     1      22.842  44.564  46.498  1.00  0.00    -0.271 OA
BRANCH  29  32
HETATM   32  C   UNL     1      20.319  45.058  45.035  1.00  0.00     0.034 A 
HETATM   33  C   UNL     1      19.666  43.904  44.589  1.00  0.00     0.031 A 
HETATM   34  C   UNL     1      19.380  43.721  43.232  1.00  0.00     0.021 A 
HETATM   35  C   UNL     1      19.745  44.695  42.310  1.00  0.00     0.011 A 
HETATM   36 BR   UNL     1      19.361  44.446  40.477  1.00  0.00    -0.051 Br
HETATM   37  C   UNL     1      20.394  45.852  42.734  1.00  0.00     0.021 A 
HETATM   38  C   UNL     1      20.679  46.030  44.094  1.00  0.00     0.031 A 
ENDBRANCH  29  32
ENDBRANCH  27  28
ENDBRANCH   4  27
BRANCH   1  39
HETATM   39  C   UNL     1      21.517  50.224  48.225  1.00  0.00     0.163 C 
BRANCH  39  40
HETATM   40  C   UNL     1      20.761  50.826  49.387  1.00  0.00    -0.017 C 
HETATM   41  C   UNL     1      19.733  51.689  49.365  1.00  0.00     0.008 C 
ENDBRANCH  39  40
ENDBRANCH   1  39
TORSDOF 8
ENDMDL
MODEL 8
REMARK VINA RESULT:      -9.1      3.655      5.598
REMARK  8 active torsions:
REMARK  status: ('A' for Active; 'I' for Inactive)
REMARK    1  A    between atoms: C_2  and  C_3 
REMARK    2  A    between atoms: C_3  and  N_4 
REMARK    3  A    between atoms: N_7  and  C_8 
REMARK    4  A    between atoms: C_8  and  C_9 
REMARK       I    between atoms: C_9  and  N_10 
REMARK    5  A    between atoms: N_10  and  C_11 
REMARK    6  A    between atoms: C_24  and  C_25 
REMARK       I    between atoms: C_25  and  N_26 
REMARK    7  A    between atoms: N_26  and  C_27 
REMARK    8  A    between atoms: C_27  and  C_28 
ROOT
HETATM    1  N   UNL     1      23.825  40.723  47.302  1.00  0.00    -0.262 N 
HETATM    2  C   UNL     1      23.348  41.684  48.182  1.00  0.00     0.332 C 
HETATM    3  O   UNL     1      22.345  42.359  47.947  1.00  0.00    -0.246 OA
HETATM    4  N   UNL     1      24.062  41.865  49.362  1.00  0.00    -0.290 N 
HETATM    5  C   UNL     1      25.322  41.242  49.586  1.00  0.00     0.056 A 
HETATM    6  C   UNL     1      25.827  40.357  48.635  1.00  0.00     0.059 A 
HETATM    7  C   UNL     1      25.035  40.057  47.433  1.00  0.00     0.264 C 
HETATM    8  O   UNL     1      25.476  39.255  46.614  1.00  0.00    -0.267 OA
HETATM    9  C   UNL     1      26.105  41.515  50.723  1.00  0.00     0.048 A 
HETATM   10  C   UNL     1      27.367  40.925  50.902  1.00  0.00     0.034 A 
HETATM   11  C   UNL     1      27.840  40.026  49.941  1.00  0.00     0.018 A 
HETATM   12  C   UNL     1      27.072  39.738  48.815  1.00  0.00     0.020 A 
ENDROOT
BRANCH  10  13
HETATM   13  C   UNL     1      28.276  41.288  52.035  1.00  0.00     0.252 C 
HETATM   14  N   UNL     1      28.212  42.578  52.514  1.00  0.00    -0.353 N 
HETATM   15  H   UNL     1      27.456  43.198  52.266  1.00  0.00     0.163 HD
HETATM   16  O   UNL     1      29.049  40.447  52.480  1.00  0.00    -0.268 OA
BRANCH  14  17
HETATM   17  C   UNL     1      29.119  43.056  53.532  1.00  0.00     0.161 C 
BRANCH  17  18
HETATM   18  C   UNL     1      28.621  44.342  54.139  1.00  0.00    -0.038 A 
HETATM   19  C   UNL     1      27.471  44.970  53.633  1.00  0.00     0.048 A 
HETATM   20  C   UNL     1      27.065  46.147  54.223  1.00  0.00     0.105 A 
HETATM   21  C   UNL     1      27.743  46.701  55.283  1.00  0.00     0.105 A 
HETATM   22  O   UNL     1      25.988  46.890  53.850  1.00  0.00    -0.323 OA
HETATM   23  O   UNL     1      27.180  47.864  55.708  1.00  0.00    -0.323 OA
HETATM   24  C   UNL     1      28.863  46.105  55.819  1.00  0.00     0.040 A 
HETATM   25  C   UNL     1      26.079  47.986  54.784  1.00  0.00     0.352 A 
HETATM   26  C   UNL     1      29.300  44.910  55.242  1.00  0.00     0.012 A 
ENDBRANCH  17  18
ENDBRANCH  14  17
ENDBRANCH  10  13
BRANCH   4  27
HETATM   27  C   UNL     1      23.392  42.594  50.447  1.00  0.00     0.237 C 
BRANCH  27  28
HETATM   28  C   UNL     1      23.614  44.106  50.502  1.00  0.00     0.240 C 
HETATM   29  N   UNL     1      23.223  44.790  49.367  1.00  0.00    -0.326 N 
HETATM   30  H   UNL     1      22.802  44.236  48.628  1.00  0.00     0.169 HD
HETATM   31  O   UNL     1      24.049  44.607  51.537  1.00  0.00    -0.271 OA
BRANCH  29  32
HETATM   32  C   UNL     1      23.324  46.181  49.141  1.00  0.00     0.034 A 
HETATM   33  C   UNL     1      24.382  46.972  49.600  1.00  0.00     0.031 A 
HETATM   34  C   UNL     1      24.418  48.346  49.337  1.00  0.00     0.021 A 
HETATM   35  C   UNL     1      23.394  48.938  48.608  1.00  0.00     0.011 A 
HETATM   36 BR   UNL     1      23.442  50.793  48.254  1.00  0.00    -0.051 Br
HETATM   37  C   UNL     1      22.333  48.166  48.139  1.00  0.00     0.021 A 
HETATM   38  C   UNL     1      22.301  46.792  48.406  1.00  0.00     0.031 A 
ENDBRANCH  29  32
ENDBRANCH  27  28
ENDBRANCH   4  27
BRANCH   1  39
HETATM   39  C   UNL     1      22.995  40.383  46.155  1.00  0.00     0.163 C 
BRANCH  39  40
HETATM   40  C   UNL     1      22.110  39.188  46.424  1.00  0.00    -0.017 C 
HETATM   41  C   UNL     1      21.019  39.107  47.202  1.00  0.00     0.008 C 
ENDBRANCH  39  40
ENDBRANCH   1  39
TORSDOF 8
ENDMDL
MODEL 9
REMARK VINA RESULT:      -9.0      3.309      5.972
REMARK  8 active torsions:
REMARK  status: ('A' for Active; 'I' for Inactive)
REMARK    1  A    between atoms: C_2  and  C_3 
REMARK    2  A    between atoms: C_3  and  N_4 
REMARK    3  A    between atoms: N_7  and  C_8 
REMARK    4  A    between atoms: C_8  and  C_9 
REMARK       I    between atoms: C_9  and  N_10 
REMARK    5  A    between atoms: N_10  and  C_11 
REMARK    6  A    between atoms: C_24  and  C_25 
REMARK       I    between atoms: C_25  and  N_26 
REMARK    7  A    between atoms: N_26  and  C_27 
REMARK    8  A    between atoms: C_27  and  C_28 
ROOT
HETATM    1  N   UNL     1      22.356  49.226  48.559  1.00  0.00    -0.262 N 
HETATM    2  C   UNL     1      21.662  48.026  48.600  1.00  0.00     0.332 C 
HETATM    3  O   UNL     1      20.441  47.961  48.445  1.00  0.00    -0.246 OA
HETATM    4  N   UNL     1      22.407  46.875  48.831  1.00  0.00    -0.290 N 
HETATM    5  C   UNL     1      23.781  46.926  49.197  1.00  0.00     0.056 A 
HETATM    6  C   UNL     1      24.431  48.158  49.248  1.00  0.00     0.059 A 
HETATM    7  C   UNL     1      23.695  49.380  48.892  1.00  0.00     0.264 C 
HETATM    8  O   UNL     1      24.283  50.458  48.914  1.00  0.00    -0.267 OA
HETATM    9  C   UNL     1      24.509  45.774  49.550  1.00  0.00     0.048 A 
HETATM   10  C   UNL     1      25.853  45.852  49.953  1.00  0.00     0.034 A 
HETATM   11  C   UNL     1      26.484  47.100  49.977  1.00  0.00     0.018 A 
HETATM   12  C   UNL     1      25.780  48.248  49.621  1.00  0.00     0.020 A 
ENDROOT
BRANCH  10  13
HETATM   13  C   UNL     1      26.617  44.666  50.452  1.00  0.00     0.252 C 
HETATM   14  N   UNL     1      26.625  44.439  51.810  1.00  0.00    -0.353 N 
HETATM   15  H   UNL     1      25.988  44.915  52.430  1.00  0.00     0.163 HD
HETATM   16  O   UNL     1      27.218  43.957  49.652  1.00  0.00    -0.268 OA
BRANCH  14  17
HETATM   17  C   UNL     1      27.418  43.384  52.401  1.00  0.00     0.161 C 
BRANCH  17  18
HETATM   18  C   UNL     1      28.226  43.901  53.562  1.00  0.00    -0.038 A 
HETATM   19  C   UNL     1      29.287  43.144  54.084  1.00  0.00     0.048 A 
HETATM   20  C   UNL     1      29.987  43.664  55.152  1.00  0.00     0.105 A 
HETATM   21  C   UNL     1      29.681  44.889  55.696  1.00  0.00     0.105 A 
HETATM   22  O   UNL     1      31.029  43.060  55.785  1.00  0.00    -0.323 OA
HETATM   23  O   UNL     1      30.489  45.207  56.742  1.00  0.00    -0.323 OA
HETATM   24  C   UNL     1      28.661  45.668  55.198  1.00  0.00     0.040 A 
HETATM   25  C   UNL     1      31.328  44.036  56.804  1.00  0.00     0.352 A 
HETATM   26  C   UNL     1      27.930  45.168  54.116  1.00  0.00     0.012 A 
ENDBRANCH  17  18
ENDBRANCH  14  17
ENDBRANCH  10  13
BRANCH   4  27
HETATM   27  C   UNL     1      21.769  45.588  48.521  1.00  0.00     0.237 C 
BRANCH  27  28
HETATM   28  C   UNL     1      21.895  45.084  47.083  1.00  0.00     0.240 C 
HETATM   29  N   UNL     1      21.534  43.763  46.899  1.00  0.00    -0.326 N 
HETATM   30  H   UNL     1      21.195  43.269  47.718  1.00  0.00     0.169 HD
HETATM   31  O   UNL     1      22.233  45.873  46.203  1.00  0.00    -0.271 OA
BRANCH  29  32
HETATM   32  C   UNL     1      21.564  43.039  45.686  1.00  0.00     0.034 A 
HETATM   33  C   UNL     1      22.740  42.603  45.066  1.00  0.00     0.031 A 
HETATM   34  C   UNL     1      22.694  41.888  43.864  1.00  0.00     0.021 A 
HETATM   35  C   UNL     1      21.468  41.602  43.275  1.00  0.00     0.011 A 
HETATM   36 BR   UNL     1      21.407  40.639  41.651  1.00  0.00    -0.051 Br
HETATM   37  C   UNL     1      20.287  42.025  43.878  1.00  0.00     0.021 A 
HETATM   38  C   UNL     1      20.337  42.742  45.080  1.00  0.00     0.031 A 
ENDBRANCH  29  32
ENDBRANCH  27  28
ENDBRANCH   4  27
BRANCH   1  39
HETATM   39  C   UNL     1      21.632  50.415  48.133  1.00  0.00     0.163 C 
BRANCH  39  40
HETATM   40  C   UNL     1      21.080  51.197  49.302  1.00  0.00    -0.017 C 
HETATM   41  C   UNL     1      19.823  51.234  49.770  1.00  0.00     0.008 C 
ENDBRANCH  39  40
ENDBRANCH   1  39
TORSDOF 8
ENDMDL
MODEL 10
REMARK VINA RESULT:      -8.9      4.117      8.626
REMARK  8 active torsions:
REMARK  status: ('A' for Active; 'I' for Inactive)
REMARK    1  A    between atoms: C_2  and  C_3 
REMARK    2  A    between atoms: C_3  and  N_4 
REMARK    3  A    between atoms: N_7  and  C_8 
REMARK    4  A    between atoms: C_8  and  C_9 
REMARK       I    between atoms: C_9  and  N_10 
REMARK    5  A    between atoms: N_10  and  C_11 
REMARK    6  A    between atoms: C_24  and  C_25 
REMARK       I    between atoms: C_25  and  N_26 
REMARK    7  A    between atoms: N_26  and  C_27 
REMARK    8  A    between atoms: C_27  and  C_28 
ROOT
HETATM    1  N   UNL     1      25.281  42.964  49.840  1.00  0.00    -0.262 N 
HETATM    2  C   UNL     1      23.915  43.082  49.629  1.00  0.00     0.332 C 
HETATM    3  O   UNL     1      23.186  42.105  49.450  1.00  0.00    -0.246 OA
HETATM    4  N   UNL     1      23.389  44.369  49.620  1.00  0.00    -0.290 N 
HETATM    5  C   UNL     1      24.219  45.525  49.635  1.00  0.00     0.056 A 
HETATM    6  C   UNL     1      25.599  45.374  49.745  1.00  0.00     0.059 A 
HETATM    7  C   UNL     1      26.173  44.027  49.876  1.00  0.00     0.264 C 
HETATM    8  O   UNL     1      27.389  43.906  50.000  1.00  0.00    -0.267 OA
HETATM    9  C   UNL     1      23.699  46.826  49.505  1.00  0.00     0.048 A 
HETATM   10  C   UNL     1      24.540  47.951  49.476  1.00  0.00     0.034 A 
HETATM   11  C   UNL     1      25.921  47.771  49.608  1.00  0.00     0.018 A 
HETATM   12  C   UNL     1      26.450  46.490  49.748  1.00  0.00     0.020 A 
ENDROOT
BRANCH  10  13
HETATM   13  C   UNL     1      24.031  49.334  49.214  1.00  0.00     0.252 C 
HETATM   14  N   UNL     1      22.748  49.628  49.619  1.00  0.00    -0.353 N 
HETATM   15  H   UNL     1      22.238  49.021  50.243  1.00  0.00     0.163 HD
HETATM   16  O   UNL     1      24.752  50.143  48.640  1.00  0.00    -0.268 OA
BRANCH  14  17
HETATM   17  C   UNL     1      22.127  50.898  49.320  1.00  0.00     0.161 C 
BRANCH  17  18
HETATM   18  C   UNL     1      20.628  50.766  49.257  1.00  0.00    -0.038 A 
HETATM   19  C   UNL     1      19.885  51.523  48.338  1.00  0.00     0.048 A 
HETATM   20  C   UNL     1      18.515  51.367  48.329  1.00  0.00     0.105 A 
HETATM   21  C   UNL     1      17.878  50.493  49.179  1.00  0.00     0.105 A 
HETATM   22  O   UNL     1      17.647  52.029  47.518  1.00  0.00    -0.323 OA
HETATM   23  O   UNL     1      16.528  50.499  49.011  1.00  0.00    -0.323 OA
HETATM   24  C   UNL     1      18.575  49.721  50.080  1.00  0.00     0.040 A 
HETATM   25  C   UNL     1      16.388  51.488  47.969  1.00  0.00     0.352 A 
HETATM   26  C   UNL     1      19.965  49.857  50.114  1.00  0.00     0.012 A 
ENDBRANCH  17  18
ENDBRANCH  14  17
ENDBRANCH  10  13
BRANCH   4  27
HETATM   27  C   UNL     1      21.932  44.499  49.762  1.00  0.00     0.237 C 
BRANCH  27  28
HETATM   28  C   UNL     1      21.174  45.092  48.574  1.00  0.00     0.240 C 
HETATM   29  N   UNL     1      20.294  46.107  48.897  1.00  0.00    -0.326 N 
HETATM   30  H   UNL     1      20.259  46.381  49.874  1.00  0.00     0.169 HD
HETATM   31  O   UNL     1      21.432  44.689  47.441  1.00  0.00    -0.271 OA
BRANCH  29  32
HETATM   32  C   UNL     1      19.461  46.820  48.006  1.00  0.00     0.034 A 
HETATM   33  C   UNL     1      19.933  47.731  47.056  1.00  0.00     0.031 A 
HETATM   34  C   UNL     1      19.049  48.402  46.204  1.00  0.00     0.021 A 
HETATM   35  C   UNL     1      17.683  48.163  46.296  1.00  0.00     0.011 A 
HETATM   36 BR   UNL     1      16.489  49.070  45.146  1.00  0.00    -0.051 Br
HETATM   37  C   UNL     1      17.194  47.257  47.233  1.00  0.00     0.021 A 
HETATM   38  C   UNL     1      18.082  46.589  48.085  1.00  0.00     0.031 A 
ENDBRANCH  29  32
ENDBRANCH  27  28
ENDBRANCH   4  27
BRANCH   1  39
HETATM   39  C   UNL     1      25.824  41.628  50.041  1.00  0.00     0.163 C 
BRANCH  39  40
HETATM   40  C   UNL     1      26.105  40.923  48.735  1.00  0.00    -0.017 C 
HETATM   41  C   UNL     1      27.090  41.150  47.852  1.00  0.00     0.008 C 
ENDBRANCH  39  40
ENDBRANCH   1  39
TORSDOF 8
ENDMDL
