MODEL 1
REMARK VINA RESULT:      -8.1      0.000      0.000
REMARK  6 active torsions:
REMARK  status: ('A' for Active; 'I' for Inactive)
REMARK    1  A    between atoms: C_2  and  O_3 
REMARK    2  A    between atoms: O_3  and  C_4 
REMARK    3  A    between atoms: C_4  and  C_5 
REMARK    4  A    between atoms: C_6  and  O_7 
REMARK    5  A    between atoms: C_12  and  O_13 
REMARK    6  A    between atoms: C_17  and  C_18 
ROOT
HETATM    1  C   UNL     1      26.269  44.518  51.218  1.00  0.00     0.133 C 
HETATM    2  C   UNL     1      25.135  43.484  51.521  1.00  0.00     0.073 C 
HETATM    3  C   UNL     1      23.879  43.730  50.671  1.00  0.00     0.047 C 
HETATM    4  C   UNL     1      25.570  41.993  51.397  1.00  0.00     0.097 C 
HETATM    5  C   UNL     1      26.969  41.820  51.867  1.00  0.00     0.042 A 
HETATM    6  C   UNL     1      27.904  42.805  52.105  1.00  0.00     0.030 A 
HETATM    7  C   UNL     1      29.041  42.084  52.499  1.00  0.00     0.190 A 
HETATM    8  N   UNL     1      28.862  40.768  52.505  1.00  0.00    -0.149 NA
HETATM    9  N   UNL     1      27.579  40.627  52.130  1.00  0.00    -0.279 N 
HETATM   10  H   UNL     1      27.195  39.690  52.070  1.00  0.00     0.189 HD
HETATM   11  C   UNL     1      27.639  44.257  51.905  1.00  0.00     0.075 C 
ENDROOT
BRANCH  11  12
HETATM   12  C   UNL     1      27.780  44.949  53.256  1.00  0.00    -0.045 A 
HETATM   13  C   UNL     1      26.928  46.030  53.547  1.00  0.00     0.050 A 
HETATM   14  C   UNL     1      27.008  46.683  54.775  1.00  0.00     0.117 A 
HETATM   15  F   UNL     1      26.189  47.713  55.024  1.00  0.00    -0.206 F 
HETATM   16  C   UNL     1      27.917  46.283  55.743  1.00  0.00     0.042 A 
HETATM   17  C   UNL     1      28.760  45.207  55.480  1.00  0.00     0.004 A 
HETATM   18  C   UNL     1      28.689  44.544  54.251  1.00  0.00     0.008 A 
ENDBRANCH  11  12
BRANCH   1  19
HETATM   19  C   UNL     1      26.555  44.705  49.740  1.00  0.00     0.267 C 
HETATM   20  O   UNL     1      27.108  43.844  49.067  1.00  0.00    -0.265 OA
BRANCH  19  21
HETATM   21  O   UNL     1      26.064  45.874  49.264  1.00  0.00    -0.316 OA
BRANCH  21  22
HETATM   22  C   UNL     1      25.864  47.001  50.147  1.00  0.00     0.123 C 
HETATM   23  C   UNL     1      24.404  47.436  50.185  1.00  0.00     0.040 C 
HETATM   24  C   UNL     1      26.828  48.145  49.857  1.00  0.00     0.040 C 
ENDBRANCH  21  22
ENDBRANCH  19  21
ENDBRANCH   1  19
BRANCH   2  25
HETATM   25  O   UNL     1      24.699  43.672  52.886  1.00  0.00    -0.389 OA
HETATM   26  H   UNL     1      23.800  44.046  52.880  1.00  0.00     0.210 HD
ENDBRANCH   2  25
BRANCH   7  27
HETATM   27  O   UNL     1      30.243  42.526  52.870  1.00  0.00    -0.343 OA
HETATM   28  H   UNL     1      30.927  41.945  52.506  1.00  0.00     0.219 HD
ENDBRANCH   7  27
TORSDOF 6
ENDMDL
MODEL 2
REMARK VINA RESULT:      -8.0      2.910      5.882
REMARK  6 active torsions:
REMARK  status: ('A' for Active; 'I' for Inactive)
REMARK    1  A    between atoms: C_2  and  O_3 
REMARK    2  A    between atoms: O_3  and  C_4 
REMARK    3  A    between atoms: C_4  and  C_5 
REMARK    4  A    between atoms: C_6  and  O_7 
REMARK    5  A    between atoms: C_12  and  O_13 
REMARK    6  A    between atoms: C_17  and  C_18 
ROOT
HETATM    1  C   UNL     1      25.975  45.853  51.393  1.00  0.00     0.133 C 
HETATM    2  C   UNL     1      26.685  44.691  50.623  1.00  0.00     0.073 C 
HETATM    3  C   UNL     1      27.683  43.929  51.509  1.00  0.00     0.047 C 
HETATM    4  C   UNL     1      25.715  43.683  49.937  1.00  0.00     0.097 C 
HETATM    5  C   UNL     1      24.520  44.391  49.409  1.00  0.00     0.042 A 
HETATM    6  C   UNL     1      24.107  45.675  49.697  1.00  0.00     0.030 A 
HETATM    7  C   UNL     1      22.925  45.809  48.954  1.00  0.00     0.190 A 
HETATM    8  N   UNL     1      22.602  44.721  48.265  1.00  0.00    -0.149 NA
HETATM    9  N   UNL     1      23.602  43.867  48.545  1.00  0.00    -0.279 N 
HETATM   10  H   UNL     1      23.584  42.948  48.116  1.00  0.00     0.189 HD
HETATM   11  C   UNL     1      24.829  46.580  50.634  1.00  0.00     0.075 C 
ENDROOT
BRANCH  11  12
HETATM   12  C   UNL     1      25.301  47.794  49.842  1.00  0.00    -0.045 A 
HETATM   13  C   UNL     1      26.678  48.083  49.815  1.00  0.00     0.050 A 
HETATM   14  C   UNL     1      27.158  49.171  49.091  1.00  0.00     0.117 A 
HETATM   15  F   UNL     1      28.473  49.427  49.088  1.00  0.00    -0.206 F 
HETATM   16  C   UNL     1      26.300  49.990  48.373  1.00  0.00     0.042 A 
HETATM   17  C   UNL     1      24.936  49.715  48.375  1.00  0.00     0.004 A 
HETATM   18  C   UNL     1      24.442  48.624  49.099  1.00  0.00     0.008 A 
ENDBRANCH  11  12
BRANCH   1  19
HETATM   19  C   UNL     1      25.413  45.448  52.742  1.00  0.00     0.267 C 
HETATM   20  O   UNL     1      24.723  44.446  52.887  1.00  0.00    -0.265 OA
BRANCH  19  21
HETATM   21  O   UNL     1      25.825  46.265  53.739  1.00  0.00    -0.316 OA
BRANCH  21  22
HETATM   22  C   UNL     1      27.206  46.263  54.167  1.00  0.00     0.123 C 
HETATM   23  C   UNL     1      27.516  45.072  55.067  1.00  0.00     0.040 C 
HETATM   24  C   UNL     1      27.632  47.598  54.765  1.00  0.00     0.040 C 
ENDBRANCH  21  22
ENDBRANCH  19  21
ENDBRANCH   1  19
BRANCH   2  25
HETATM   25  O   UNL     1      27.491  45.266  49.571  1.00  0.00    -0.389 OA
HETATM   26  H   UNL     1      26.913  45.773  48.974  1.00  0.00     0.210 HD
ENDBRANCH   2  25
BRANCH   7  27
HETATM   27  O   UNL     1      22.107  46.856  48.838  1.00  0.00    -0.343 OA
HETATM   28  H   UNL     1      22.337  47.358  48.042  1.00  0.00     0.219 HD
ENDBRANCH   7  27
TORSDOF 6
ENDMDL
MODEL 3
REMARK VINA RESULT:      -7.9     12.494     14.087
REMARK  6 active torsions:
REMARK  status: ('A' for Active; 'I' for Inactive)
REMARK    1  A    between atoms: C_2  and  O_3 
REMARK    2  A    between atoms: O_3  and  C_4 
REMARK    3  A    between atoms: C_4  and  C_5 
REMARK    4  A    between atoms: C_6  and  O_7 
REMARK    5  A    between atoms: C_12  and  O_13 
REMARK    6  A    between atoms: C_17  and  C_18 
ROOT
HETATM    1  C   UNL     1      30.058  50.365  41.687  1.00  0.00     0.133 C 
HETATM    2  C   UNL     1      30.423  48.988  41.041  1.00  0.00     0.073 C 
HETATM    3  C   UNL     1      29.296  47.954  41.198  1.00  0.00     0.047 C 
HETATM    4  C   UNL     1      30.858  49.069  39.548  1.00  0.00     0.097 C 
HETATM    5  C   UNL     1      31.638  50.309  39.302  1.00  0.00     0.042 A 
HETATM    6  C   UNL     1      31.750  51.410  40.125  1.00  0.00     0.030 A 
HETATM    7  C   UNL     1      32.575  52.278  39.395  1.00  0.00     0.190 A 
HETATM    8  N   UNL     1      32.949  51.793  38.216  1.00  0.00    -0.149 NA
HETATM    9  N   UNL     1      32.377  50.577  38.185  1.00  0.00    -0.279 N 
HETATM   10  H   UNL     1      32.531  49.994  37.369  1.00  0.00     0.189 HD
HETATM   11  C   UNL     1      31.062  51.526  41.441  1.00  0.00     0.075 C 
ENDROOT
BRANCH  11  12
HETATM   12  C   UNL     1      32.132  51.642  42.521  1.00  0.00    -0.045 A 
HETATM   13  C   UNL     1      33.467  51.367  42.173  1.00  0.00     0.050 A 
HETATM   14  C   UNL     1      34.482  51.477  43.120  1.00  0.00     0.117 A 
HETATM   15  F   UNL     1      35.744  51.204  42.765  1.00  0.00    -0.206 F 
HETATM   16  C   UNL     1      34.208  51.867  44.424  1.00  0.00     0.042 A 
HETATM   17  C   UNL     1      32.896  52.156  44.785  1.00  0.00     0.004 A 
HETATM   18  C   UNL     1      31.869  52.050  43.841  1.00  0.00     0.008 A 
ENDBRANCH  11  12
BRANCH   1  19
HETATM   19  C   UNL     1      28.688  50.886  41.298  1.00  0.00     0.267 C 
HETATM   20  O   UNL     1      27.657  50.437  41.783  1.00  0.00    -0.265 OA
BRANCH  19  21
HETATM   21  O   UNL     1      28.758  51.927  40.436  1.00  0.00    -0.316 OA
BRANCH  21  22
HETATM   22  C   UNL     1      28.100  51.863  39.151  1.00  0.00     0.123 C 
HETATM   23  C   UNL     1      27.831  50.424  38.726  1.00  0.00     0.040 C 
HETATM   24  C   UNL     1      28.821  52.682  38.087  1.00  0.00     0.040 C 
ENDBRANCH  21  22
ENDBRANCH  19  21
ENDBRANCH   1  19
BRANCH   2  25
HETATM   25  O   UNL     1      31.541  48.426  41.765  1.00  0.00    -0.389 OA
HETATM   26  H   UNL     1      32.350  48.908  41.516  1.00  0.00     0.210 HD
ENDBRANCH   2  25
BRANCH   7  27
HETATM   27  O   UNL     1      33.033  53.489  39.717  1.00  0.00    -0.343 OA
HETATM   28  H   UNL     1      32.908  54.090  38.968  1.00  0.00     0.219 HD
ENDBRANCH   7  27
TORSDOF 6
ENDMDL
MODEL 4
REMARK VINA RESULT:      -7.7      3.403      5.942
REMARK  6 active torsions:
REMARK  status: ('A' for Active; 'I' for Inactive)
REMARK    1  A    between atoms: C_2  and  O_3 
REMARK    2  A    between atoms: O_3  and  C_4 
REMARK    3  A    between atoms: C_4  and  C_5 
REMARK    4  A    between atoms: C_6  and  O_7 
REMARK    5  A    between atoms: C_12  and  O_13 
REMARK    6  A    between atoms: C_17  and  C_18 
ROOT
HETATM    1  C   UNL     1      26.946  43.970  53.135  1.00  0.00     0.133 C 
HETATM    2  C   UNL     1      25.457  44.293  53.487  1.00  0.00     0.073 C 
HETATM    3  C   UNL     1      25.146  44.060  54.974  1.00  0.00     0.047 C 
HETATM    4  C   UNL     1      24.989  45.719  53.069  1.00  0.00     0.097 C 
HETATM    5  C   UNL     1      25.621  46.117  51.785  1.00  0.00     0.042 A 
HETATM    6  C   UNL     1      26.688  45.516  51.150  1.00  0.00     0.030 A 
HETATM    7  C   UNL     1      26.874  46.309  50.008  1.00  0.00     0.190 A 
HETATM    8  N   UNL     1      26.023  47.324  49.920  1.00  0.00    -0.149 NA
HETATM    9  N   UNL     1      25.251  47.179  51.011  1.00  0.00    -0.279 N 
HETATM   10  H   UNL     1      24.500  47.845  51.162  1.00  0.00     0.189 HD
HETATM   11  C   UNL     1      27.404  44.329  51.693  1.00  0.00     0.075 C 
ENDROOT
BRANCH  11  12
HETATM   12  C   UNL     1      27.235  43.184  50.700  1.00  0.00    -0.045 A 
HETATM   13  C   UNL     1      27.991  42.013  50.892  1.00  0.00     0.050 A 
HETATM   14  C   UNL     1      27.857  40.934  50.022  1.00  0.00     0.117 A 
HETATM   15  F   UNL     1      28.593  39.834  50.224  1.00  0.00    -0.206 F 
HETATM   16  C   UNL     1      26.973  40.979  48.954  1.00  0.00     0.042 A 
HETATM   17  C   UNL     1      26.206  42.123  48.754  1.00  0.00     0.004 A 
HETATM   18  C   UNL     1      26.332  43.212  49.622  1.00  0.00     0.008 A 
ENDBRANCH  11  12
BRANCH   1  19
HETATM   19  C   UNL     1      27.954  44.596  54.079  1.00  0.00     0.267 C 
HETATM   20  O   UNL     1      28.022  45.807  54.252  1.00  0.00    -0.265 OA
BRANCH  19  21
HETATM   21  O   UNL     1      28.687  43.670  54.739  1.00  0.00    -0.316 OA
BRANCH  21  22
HETATM   22  C   UNL     1      30.119  43.595  54.552  1.00  0.00     0.123 C 
HETATM   23  C   UNL     1      30.488  42.699  53.376  1.00  0.00     0.040 C 
HETATM   24  C   UNL     1      30.857  43.239  55.837  1.00  0.00     0.040 C 
ENDBRANCH  21  22
ENDBRANCH  19  21
ENDBRANCH   1  19
BRANCH   2  25
HETATM   25  O   UNL     1      24.608  43.360  52.782  1.00  0.00    -0.389 OA
HETATM   26  H   UNL     1      24.890  43.321  51.851  1.00  0.00     0.210 HD
ENDBRANCH   2  25
BRANCH   7  27
HETATM   27  O   UNL     1      27.759  46.182  49.019  1.00  0.00    -0.343 OA
HETATM   28  H   UNL     1      27.658  45.312  48.606  1.00  0.00     0.219 HD
ENDBRANCH   7  27
TORSDOF 6
ENDMDL
MODEL 5
REMARK VINA RESULT:      -7.5     12.569     14.818
REMARK  6 active torsions:
REMARK  status: ('A' for Active; 'I' for Inactive)
REMARK    1  A    between atoms: C_2  and  O_3 
REMARK    2  A    between atoms: O_3  and  C_4 
REMARK    3  A    between atoms: C_4  and  C_5 
REMARK    4  A    between atoms: C_6  and  O_7 
REMARK    5  A    between atoms: C_12  and  O_13 
REMARK    6  A    between atoms: C_17  and  C_18 
ROOT
HETATM    1  C   UNL     1      32.197  50.907  40.795  1.00  0.00     0.133 C 
HETATM    2  C   UNL     1      32.100  51.113  42.343  1.00  0.00     0.073 C 
HETATM    3  C   UNL     1      33.472  51.375  42.983  1.00  0.00     0.047 C 
HETATM    4  C   UNL     1      31.093  52.216  42.787  1.00  0.00     0.097 C 
HETATM    5  C   UNL     1      29.905  52.223  41.894  1.00  0.00     0.042 A 
HETATM    6  C   UNL     1      29.768  51.600  40.671  1.00  0.00     0.030 A 
HETATM    7  C   UNL     1      28.472  51.958  40.269  1.00  0.00     0.190 A 
HETATM    8  N   UNL     1      27.842  52.741  41.137  1.00  0.00    -0.149 NA
HETATM    9  N   UNL     1      28.732  52.878  42.135  1.00  0.00    -0.279 N 
HETATM   10  H   UNL     1      28.470  53.438  42.940  1.00  0.00     0.189 HD
HETATM   11  C   UNL     1      30.847  50.798  40.031  1.00  0.00     0.075 C 
ENDROOT
BRANCH  11  12
HETATM   12  C   UNL     1      30.345  49.366  39.888  1.00  0.00    -0.045 A 
HETATM   13  C   UNL     1      29.369  48.905  40.790  1.00  0.00     0.050 A 
HETATM   14  C   UNL     1      28.867  47.610  40.689  1.00  0.00     0.117 A 
HETATM   15  F   UNL     1      27.942  47.194  41.565  1.00  0.00    -0.206 F 
HETATM   16  C   UNL     1      29.305  46.746  39.695  1.00  0.00     0.042 A 
HETATM   17  C   UNL     1      30.260  47.187  38.784  1.00  0.00     0.004 A 
HETATM   18  C   UNL     1      30.771  48.485  38.877  1.00  0.00     0.008 A 
ENDBRANCH  11  12
BRANCH   1  19
HETATM   19  C   UNL     1      33.015  51.966  40.082  1.00  0.00     0.267 C 
HETATM   20  O   UNL     1      32.722  53.154  40.122  1.00  0.00    -0.265 OA
BRANCH  19  21
HETATM   21  O   UNL     1      34.115  51.452  39.484  1.00  0.00    -0.316 OA
BRANCH  21  22
HETATM   22  C   UNL     1      35.434  51.729  40.007  1.00  0.00     0.123 C 
HETATM   23  C   UNL     1      36.175  52.753  39.154  1.00  0.00     0.040 C 
HETATM   24  C   UNL     1      36.238  50.460  40.262  1.00  0.00     0.040 C 
ENDBRANCH  21  22
ENDBRANCH  19  21
ENDBRANCH   1  19
BRANCH   2  25
HETATM   25  O   UNL     1      31.645  49.878  42.940  1.00  0.00    -0.389 OA
HETATM   26  H   UNL     1      32.348  49.529  43.515  1.00  0.00     0.210 HD
ENDBRANCH   2  25
BRANCH   7  27
HETATM   27  O   UNL     1      27.800  51.621  39.168  1.00  0.00    -0.343 OA
HETATM   28  H   UNL     1      27.804  52.365  38.548  1.00  0.00     0.219 HD
ENDBRANCH   7  27
TORSDOF 6
ENDMDL
MODEL 6
REMARK VINA RESULT:      -7.4      1.745      2.259
REMARK  6 active torsions:
REMARK  status: ('A' for Active; 'I' for Inactive)
REMARK    1  A    between atoms: C_2  and  O_3 
REMARK    2  A    between atoms: O_3  and  C_4 
REMARK    3  A    between atoms: C_4  and  C_5 
REMARK    4  A    between atoms: C_6  and  O_7 
REMARK    5  A    between atoms: C_12  and  O_13 
REMARK    6  A    between atoms: C_17  and  C_18 
ROOT
HETATM    1  C   UNL     1      26.399  44.357  50.931  1.00  0.00     0.133 C 
HETATM    2  C   UNL     1      25.004  43.845  51.421  1.00  0.00     0.073 C 
HETATM    3  C   UNL     1      23.891  44.879  51.194  1.00  0.00     0.047 C 
HETATM    4  C   UNL     1      24.575  42.470  50.825  1.00  0.00     0.097 C 
HETATM    5  C   UNL     1      25.754  41.581  50.671  1.00  0.00     0.042 A 
HETATM    6  C   UNL     1      27.087  41.931  50.734  1.00  0.00     0.030 A 
HETATM    7  C   UNL     1      27.752  40.719  50.496  1.00  0.00     0.190 A 
HETATM    8  N   UNL     1      26.934  39.693  50.291  1.00  0.00    -0.149 NA
HETATM    9  N   UNL     1      25.712  40.239  50.419  1.00  0.00    -0.279 N 
HETATM   10  H   UNL     1      24.902  39.637  50.314  1.00  0.00     0.189 HD
HETATM   11  C   UNL     1      27.560  43.324  50.965  1.00  0.00     0.075 C 
ENDROOT
BRANCH  11  12
HETATM   12  C   UNL     1      28.348  43.340  52.271  1.00  0.00    -0.045 A 
HETATM   13  C   UNL     1      27.894  44.165  53.316  1.00  0.00     0.050 A 
HETATM   14  C   UNL     1      28.569  44.200  54.533  1.00  0.00     0.117 A 
HETATM   15  F   UNL     1      28.120  44.999  55.510  1.00  0.00    -0.206 F 
HETATM   16  C   UNL     1      29.697  43.421  54.751  1.00  0.00     0.042 A 
HETATM   17  C   UNL     1      30.154  42.588  53.735  1.00  0.00     0.004 A 
HETATM   18  C   UNL     1      29.483  42.544  52.508  1.00  0.00     0.008 A 
ENDBRANCH  11  12
BRANCH   1  19
HETATM   19  C   UNL     1      26.384  44.947  49.534  1.00  0.00     0.267 C 
HETATM   20  O   UNL     1      25.639  44.528  48.656  1.00  0.00    -0.265 OA
BRANCH  19  21
HETATM   21  O   UNL     1      27.215  46.008  49.413  1.00  0.00    -0.316 OA
BRANCH  21  22
HETATM   22  C   UNL     1      26.718  47.354  49.586  1.00  0.00     0.123 C 
HETATM   23  C   UNL     1      27.711  48.392  49.075  1.00  0.00     0.040 C 
HETATM   24  C   UNL     1      26.243  47.622  51.009  1.00  0.00     0.040 C 
ENDBRANCH  21  22
ENDBRANCH  19  21
ENDBRANCH   1  19
BRANCH   2  25
HETATM   25  O   UNL     1      25.060  43.671  52.854  1.00  0.00    -0.389 OA
HETATM   26  H   UNL     1      25.081  44.549  53.276  1.00  0.00     0.210 HD
ENDBRANCH   2  25
BRANCH   7  27
HETATM   27  O   UNL     1      29.059  40.459  50.460  1.00  0.00    -0.343 OA
HETATM   28  H   UNL     1      29.452  40.889  49.686  1.00  0.00     0.219 HD
ENDBRANCH   7  27
TORSDOF 6
ENDMDL
MODEL 7
REMARK VINA RESULT:      -7.4     13.180     14.960
REMARK  6 active torsions:
REMARK  status: ('A' for Active; 'I' for Inactive)
REMARK    1  A    between atoms: C_2  and  O_3 
REMARK    2  A    between atoms: O_3  and  C_4 
REMARK    3  A    between atoms: C_4  and  C_5 
REMARK    4  A    between atoms: C_6  and  O_7 
REMARK    5  A    between atoms: C_12  and  O_13 
REMARK    6  A    between atoms: C_17  and  C_18 
ROOT
HETATM    1  C   UNL     1      31.460  51.736  39.370  1.00  0.00     0.133 C 
HETATM    2  C   UNL     1      30.605  52.371  40.514  1.00  0.00     0.073 C 
HETATM    3  C   UNL     1      29.512  53.307  39.974  1.00  0.00     0.047 C 
HETATM    4  C   UNL     1      29.976  51.341  41.500  1.00  0.00     0.097 C 
HETATM    5  C   UNL     1      30.904  50.202  41.721  1.00  0.00     0.042 A 
HETATM    6  C   UNL     1      32.025  49.876  40.987  1.00  0.00     0.030 A 
HETATM    7  C   UNL     1      32.495  48.712  41.615  1.00  0.00     0.190 A 
HETATM    8  N   UNL     1      31.749  48.322  42.641  1.00  0.00    -0.149 NA
HETATM    9  N   UNL     1      30.787  49.259  42.701  1.00  0.00    -0.279 N 
HETATM   10  H   UNL     1      30.085  49.182  43.429  1.00  0.00     0.189 HD
HETATM   11  C   UNL     1      32.485  50.649  39.800  1.00  0.00     0.075 C 
ENDROOT
BRANCH  11  12
HETATM   12  C   UNL     1      33.868  51.210  40.114  1.00  0.00    -0.045 A 
HETATM   13  C   UNL     1      34.687  51.610  39.042  1.00  0.00     0.050 A 
HETATM   14  C   UNL     1      35.951  52.145  39.279  1.00  0.00     0.117 A 
HETATM   15  F   UNL     1      36.713  52.512  38.240  1.00  0.00    -0.206 F 
HETATM   16  C   UNL     1      36.431  52.306  40.570  1.00  0.00     0.042 A 
HETATM   17  C   UNL     1      35.631  51.929  41.645  1.00  0.00     0.004 A 
HETATM   18  C   UNL     1      34.360  51.391  41.419  1.00  0.00     0.008 A 
ENDBRANCH  11  12
BRANCH   1  19
HETATM   19  C   UNL     1      30.638  51.135  38.245  1.00  0.00     0.267 C 
HETATM   20  O   UNL     1      30.251  51.800  37.293  1.00  0.00    -0.265 OA
BRANCH  19  21
HETATM   21  O   UNL     1      30.464  49.801  38.390  1.00  0.00    -0.316 OA
BRANCH  21  22
HETATM   22  C   UNL     1      29.135  49.236  38.458  1.00  0.00     0.123 C 
HETATM   23  C   UNL     1      28.073  50.313  38.641  1.00  0.00     0.040 C 
HETATM   24  C   UNL     1      29.033  48.108  39.478  1.00  0.00     0.040 C 
ENDBRANCH  21  22
ENDBRANCH  19  21
ENDBRANCH   1  19
BRANCH   2  25
HETATM   25  O   UNL     1      31.463  53.225  41.305  1.00  0.00    -0.389 OA
HETATM   26  H   UNL     1      31.538  54.090  40.864  1.00  0.00     0.210 HD
ENDBRANCH   2  25
BRANCH   7  27
HETATM   27  O   UNL     1      33.567  47.969  41.336  1.00  0.00    -0.343 OA
HETATM   28  H   UNL     1      34.151  48.458  40.739  1.00  0.00     0.219 HD
ENDBRANCH   7  27
TORSDOF 6
ENDMDL
MODEL 8
REMARK VINA RESULT:      -7.1      7.396      9.517
REMARK  6 active torsions:
REMARK  status: ('A' for Active; 'I' for Inactive)
REMARK    1  A    between atoms: C_2  and  O_3 
REMARK    2  A    between atoms: O_3  and  C_4 
REMARK    3  A    between atoms: C_4  and  C_5 
REMARK    4  A    between atoms: C_6  and  O_7 
REMARK    5  A    between atoms: C_12  and  O_13 
REMARK    6  A    between atoms: C_17  and  C_18 
ROOT
HETATM    1  C   UNL     1      20.299  47.530  47.323  1.00  0.00     0.133 C 
HETATM    2  C   UNL     1      20.442  46.639  48.600  1.00  0.00     0.073 C 
HETATM    3  C   UNL     1      19.732  45.284  48.449  1.00  0.00     0.047 C 
HETATM    4  C   UNL     1      21.910  46.413  49.070  1.00  0.00     0.097 C 
HETATM    5  C   UNL     1      22.721  47.637  48.843  1.00  0.00     0.042 A 
HETATM    6  C   UNL     1      22.392  48.734  48.074  1.00  0.00     0.030 A 
HETATM    7  C   UNL     1      23.517  49.564  48.196  1.00  0.00     0.190 A 
HETATM    8  N   UNL     1      24.478  49.051  48.956  1.00  0.00    -0.149 NA
HETATM    9  N   UNL     1      23.963  47.876  49.358  1.00  0.00    -0.279 N 
HETATM   10  H   UNL     1      24.520  47.292  49.973  1.00  0.00     0.189 HD
HETATM   11  C   UNL     1      21.118  48.851  47.312  1.00  0.00     0.075 C 
ENDROOT
BRANCH  11  12
HETATM   12  C   UNL     1      20.349  50.046  47.866  1.00  0.00    -0.045 A 
HETATM   13  C   UNL     1      19.386  50.661  47.046  1.00  0.00     0.050 A 
HETATM   14  C   UNL     1      18.646  51.743  47.514  1.00  0.00     0.117 A 
HETATM   15  F   UNL     1      17.739  52.315  46.710  1.00  0.00    -0.206 F 
HETATM   16  C   UNL     1      18.830  52.238  48.797  1.00  0.00     0.042 A 
HETATM   17  C   UNL     1      19.768  51.635  49.629  1.00  0.00     0.004 A 
HETATM   18  C   UNL     1      20.517  50.547  49.170  1.00  0.00     0.008 A 
ENDBRANCH  11  12
BRANCH   1  19
HETATM   19  C   UNL     1      20.621  46.809  46.028  1.00  0.00     0.267 C 
HETATM   20  O   UNL     1      21.742  46.385  45.779  1.00  0.00    -0.265 OA
BRANCH  19  21
HETATM   21  O   UNL     1      19.528  46.634  45.250  1.00  0.00    -0.316 OA
BRANCH  21  22
HETATM   22  C   UNL     1      18.305  47.354  45.527  1.00  0.00     0.123 C 
HETATM   23  C   UNL     1      17.143  46.407  45.803  1.00  0.00     0.040 C 
HETATM   24  C   UNL     1      17.992  48.400  44.464  1.00  0.00     0.040 C 
ENDBRANCH  21  22
ENDBRANCH  19  21
ENDBRANCH   1  19
BRANCH   2  25
HETATM   25  O   UNL     1      19.758  47.293  49.693  1.00  0.00    -0.389 OA
HETATM   26  H   UNL     1      19.824  46.733  50.486  1.00  0.00     0.210 HD
ENDBRANCH   2  25
BRANCH   7  27
HETATM   27  O   UNL     1      23.744  50.770  47.675  1.00  0.00    -0.343 OA
HETATM   28  H   UNL     1      24.578  51.119  48.023  1.00  0.00     0.219 HD
ENDBRANCH   7  27
TORSDOF 6
ENDMDL
MODEL 9
REMARK VINA RESULT:      -7.1     15.943     17.905
REMARK  6 active torsions:
REMARK  status: ('A' for Active; 'I' for Inactive)
REMARK    1  A    between atoms: C_2  and  O_3 
REMARK    2  A    between atoms: O_3  and  C_4 
REMARK    3  A    between atoms: C_4  and  C_5 
REMARK    4  A    between atoms: C_6  and  O_7 
REMARK    5  A    between atoms: C_12  and  O_13 
REMARK    6  A    between atoms: C_17  and  C_18 
ROOT
HETATM    1  C   UNL     1      39.231  44.391  64.805  1.00  0.00     0.133 C 
HETATM    2  C   UNL     1      38.699  43.737  63.487  1.00  0.00     0.073 C 
HETATM    3  C   UNL     1      39.788  42.945  62.748  1.00  0.00     0.047 C 
HETATM    4  C   UNL     1      37.434  42.845  63.673  1.00  0.00     0.097 C 
HETATM    5  C   UNL     1      36.539  43.424  64.707  1.00  0.00     0.042 A 
HETATM    6  C   UNL     1      36.836  44.416  65.618  1.00  0.00     0.030 A 
HETATM    7  C   UNL     1      35.649  44.547  66.354  1.00  0.00     0.190 A 
HETATM    8  N   UNL     1      34.687  43.717  65.966  1.00  0.00    -0.149 NA
HETATM    9  N   UNL     1      35.247  43.048  64.943  1.00  0.00    -0.279 N 
HETATM   10  H   UNL     1      34.691  42.349  64.462  1.00  0.00     0.189 HD
HETATM   11  C   UNL     1      38.168  45.076  65.709  1.00  0.00     0.075 C 
ENDROOT
BRANCH  11  12
HETATM   12  C   UNL     1      37.979  46.558  65.405  1.00  0.00    -0.045 A 
HETATM   13  C   UNL     1      38.909  47.474  65.931  1.00  0.00     0.050 A 
HETATM   14  C   UNL     1      38.788  48.835  65.666  1.00  0.00     0.117 A 
HETATM   15  F   UNL     1      39.683  49.686  66.184  1.00  0.00    -0.206 F 
HETATM   16  C   UNL     1      37.759  49.324  64.874  1.00  0.00     0.042 A 
HETATM   17  C   UNL     1      36.836  48.434  64.333  1.00  0.00     0.004 A 
HETATM   18  C   UNL     1      36.948  47.064  64.592  1.00  0.00     0.008 A 
ENDBRANCH  11  12
BRANCH   1  19
HETATM   19  C   UNL     1      40.009  43.440  65.695  1.00  0.00     0.267 C 
HETATM   20  O   UNL     1      39.488  42.466  66.223  1.00  0.00    -0.265 OA
BRANCH  19  21
HETATM   21  O   UNL     1      41.323  43.756  65.761  1.00  0.00    -0.316 OA
BRANCH  21  22
HETATM   22  C   UNL     1      41.788  45.061  65.347  1.00  0.00     0.123 C 
HETATM   23  C   UNL     1      42.788  44.966  64.201  1.00  0.00     0.040 C 
HETATM   24  C   UNL     1      42.288  45.900  66.517  1.00  0.00     0.040 C 
ENDBRANCH  21  22
ENDBRANCH  19  21
ENDBRANCH   1  19
BRANCH   2  25
HETATM   25  O   UNL     1      38.326  44.792  62.573  1.00  0.00    -0.389 OA
HETATM   26  H   UNL     1      39.040  44.910  61.921  1.00  0.00     0.210 HD
ENDBRANCH   2  25
BRANCH   7  27
HETATM   27  O   UNL     1      35.356  45.375  67.357  1.00  0.00    -0.343 OA
HETATM   28  H   UNL     1      35.004  46.202  67.000  1.00  0.00     0.219 HD
ENDBRANCH   7  27
TORSDOF 6
ENDMDL
MODEL 10
REMARK VINA RESULT:      -7.0      8.714     11.273
REMARK  6 active torsions:
REMARK  status: ('A' for Active; 'I' for Inactive)
REMARK    1  A    between atoms: C_2  and  O_3 
REMARK    2  A    between atoms: O_3  and  C_4 
REMARK    3  A    between atoms: C_4  and  C_5 
REMARK    4  A    between atoms: C_6  and  O_7 
REMARK    5  A    between atoms: C_12  and  O_13 
REMARK    6  A    between atoms: C_17  and  C_18 
ROOT
HETATM    1  C   UNL     1      18.790  49.510  48.781  1.00  0.00     0.133 C 
HETATM    2  C   UNL     1      20.237  49.888  48.325  1.00  0.00     0.073 C 
HETATM    3  C   UNL     1      20.635  51.306  48.761  1.00  0.00     0.047 C 
HETATM    4  C   UNL     1      21.338  48.875  48.762  1.00  0.00     0.097 C 
HETATM    5  C   UNL     1      20.812  47.486  48.717  1.00  0.00     0.042 A 
HETATM    6  C   UNL     1      19.496  47.088  48.610  1.00  0.00     0.030 A 
HETATM    7  C   UNL     1      19.578  45.687  48.640  1.00  0.00     0.190 A 
HETATM    8  N   UNL     1      20.818  45.229  48.764  1.00  0.00    -0.149 NA
HETATM    9  N   UNL     1      21.563  46.348  48.792  1.00  0.00    -0.279 N 
HETATM   10  H   UNL     1      22.570  46.254  48.872  1.00  0.00     0.189 HD
HETATM   11  C   UNL     1      18.353  48.039  48.532  1.00  0.00     0.075 C 
ENDROOT
BRANCH  11  12
HETATM   12  C   UNL     1      17.661  47.831  47.190  1.00  0.00    -0.045 A 
HETATM   13  C   UNL     1      16.262  47.970  47.129  1.00  0.00     0.050 A 
HETATM   14  C   UNL     1      15.587  47.807  45.922  1.00  0.00     0.117 A 
HETATM   15  F   UNL     1      14.254  47.938  45.893  1.00  0.00    -0.206 F 
HETATM   16  C   UNL     1      16.271  47.515  44.751  1.00  0.00     0.042 A 
HETATM   17  C   UNL     1      17.656  47.387  44.787  1.00  0.00     0.004 A 
HETATM   18  C   UNL     1      18.344  47.549  45.993  1.00  0.00     0.008 A 
ENDBRANCH  11  12
BRANCH   1  19
HETATM   19  C   UNL     1      18.507  49.805  50.242  1.00  0.00     0.267 C 
HETATM   20  O   UNL     1      19.146  49.287  51.149  1.00  0.00    -0.265 OA
BRANCH  19  21
HETATM   21  O   UNL     1      17.543  50.742  50.401  1.00  0.00    -0.316 OA
BRANCH  21  22
HETATM   22  C   UNL     1      17.087  51.527  49.276  1.00  0.00     0.123 C 
HETATM   23  C   UNL     1      17.336  53.015  49.488  1.00  0.00     0.040 C 
HETATM   24  C   UNL     1      15.650  51.205  48.885  1.00  0.00     0.040 C 
ENDBRANCH  21  22
ENDBRANCH  19  21
ENDBRANCH   1  19
BRANCH   2  25
HETATM   25  O   UNL     1      20.265  49.925  46.880  1.00  0.00    -0.389 OA
HETATM   26  H   UNL     1      20.606  49.075  46.550  1.00  0.00     0.210 HD
ENDBRANCH   2  25
BRANCH   7  27
HETATM   27  O   UNL     1      18.608  44.776  48.553  1.00  0.00    -0.343 OA
HETATM   28  H   UNL     1      17.748  45.221  48.550  1.00  0.00     0.219 HD
ENDBRANCH   7  27
TORSDOF 6
ENDMDL
