MODEL 1
REMARK VINA RESULT:      -9.0      0.000      0.000
REMARK  5 active torsions:
REMARK  status: ('A' for Active; 'I' for Inactive)
REMARK    1  A    between atoms: C_4  and  C_5 
REMARK       I    between atoms: C_5  and  N_6 
REMARK    2  A    between atoms: N_6  and  C_7 
REMARK    3  A    between atoms: C_10  and  C_11 
REMARK    4  A    between atoms: C_18  and  N_19 
REMARK       I    between atoms: N_19  and  C_20 
REMARK    5  A    between atoms: C_20  and  C_21 
ROOT
HETATM    1  C   UNL     1      22.010  49.851  48.504  1.00  0.00     0.139 A 
HETATM    2  N   UNL     1      22.087  48.702  49.155  1.00  0.00    -0.228 NA
HETATM    3  C   UNL     1      23.429  48.437  49.318  1.00  0.00     0.088 A 
HETATM    4  C   UNL     1      24.195  49.441  48.747  1.00  0.00     0.063 A 
HETATM    5  N   UNL     1      23.277  50.322  48.242  1.00  0.00    -0.338 N 
HETATM    6  H   UNL     1      23.496  51.163  47.732  1.00  0.00     0.167 HD
HETATM    7  C   UNL     1      24.068  47.349  49.938  1.00  0.00     0.063 A 
HETATM    8  C   UNL     1      25.469  47.309  49.957  1.00  0.00     0.037 A 
HETATM    9  C   UNL     1      26.207  48.348  49.365  1.00  0.00     0.032 A 
HETATM   10  C   UNL     1      25.588  49.440  48.746  1.00  0.00     0.034 A 
ENDROOT
BRANCH   1  11
HETATM   11  C   UNL     1      20.785  50.527  48.064  1.00  0.00     0.010 A 
HETATM   12  C   UNL     1      19.980  50.019  47.037  1.00  0.00     0.017 A 
HETATM   13  C   UNL     1      18.784  50.654  46.675  1.00  0.00     0.030 A 
HETATM   14  C   UNL     1      18.369  51.813  47.326  1.00  0.00     0.035 A 
HETATM   15  C   UNL     1      19.187  52.349  48.326  1.00  0.00     0.030 A 
HETATM   16  C   UNL     1      20.381  51.713  48.690  1.00  0.00     0.017 A 
BRANCH  14  17
HETATM   17  N   UNL     1      17.161  52.479  47.044  1.00  0.00    -0.321 N 
HETATM   18  C   UNL     1      15.921  52.286  47.629  1.00  0.00     0.279 C 
HETATM   19  O   UNL     1      15.665  51.456  48.497  1.00  0.00    -0.265 OA
HETATM   20  H   UNL     1      17.194  53.229  46.361  1.00  0.00     0.169 HD
BRANCH  18  21
HETATM   21  C   UNL     1      14.910  53.198  47.123  1.00  0.00     0.142 A 
HETATM   22  O   UNL     1      14.199  53.977  48.000  1.00  0.00    -0.317 OA
HETATM   23  C   UNL     1      13.332  54.719  47.261  1.00  0.00     0.143 A 
HETATM   24  C   UNL     1      13.466  54.429  45.924  1.00  0.00     0.027 A 
HETATM   25  C   UNL     1      14.483  53.450  45.834  1.00  0.00     0.045 A 
ENDBRANCH  18  21
ENDBRANCH  14  17
ENDBRANCH   1  11
BRANCH   8  26
HETATM   26  N   UNL     1      26.221  46.272  50.543  1.00  0.00    -0.321 N 
HETATM   27  C   UNL     1      26.272  45.880  51.868  1.00  0.00     0.279 C 
HETATM   28  O   UNL     1      25.650  46.393  52.791  1.00  0.00    -0.265 OA
HETATM   29  H   UNL     1      26.809  45.724  49.926  1.00  0.00     0.169 HD
BRANCH  27  30
HETATM   30  C   UNL     1      27.172  44.756  52.071  1.00  0.00     0.142 A 
HETATM   31  O   UNL     1      27.851  44.644  53.260  1.00  0.00    -0.317 OA
HETATM   32  C   UNL     1      28.611  43.521  53.183  1.00  0.00     0.143 A 
HETATM   33  C   UNL     1      28.438  42.903  51.968  1.00  0.00     0.027 A 
HETATM   34  C   UNL     1      27.511  43.697  51.250  1.00  0.00     0.045 A 
ENDBRANCH  27  30
ENDBRANCH   8  26
TORSDOF 5
ENDMDL
MODEL 2
REMARK VINA RESULT:      -8.7      2.181      3.633
REMARK  5 active torsions:
REMARK  status: ('A' for Active; 'I' for Inactive)
REMARK    1  A    between atoms: C_4  and  C_5 
REMARK       I    between atoms: C_5  and  N_6 
REMARK    2  A    between atoms: N_6  and  C_7 
REMARK    3  A    between atoms: C_10  and  C_11 
REMARK    4  A    between atoms: C_18  and  N_19 
REMARK       I    between atoms: N_19  and  C_20 
REMARK    5  A    between atoms: C_20  and  C_21 
ROOT
HETATM    1  C   UNL     1      23.607  47.275  49.519  1.00  0.00     0.139 A 
HETATM    2  N   UNL     1      24.390  47.625  50.525  1.00  0.00    -0.228 NA
HETATM    3  C   UNL     1      25.152  46.519  50.828  1.00  0.00     0.088 A 
HETATM    4  C   UNL     1      24.826  45.461  49.995  1.00  0.00     0.063 A 
HETATM    5  N   UNL     1      23.850  45.963  49.177  1.00  0.00    -0.338 N 
HETATM    6  H   UNL     1      23.366  45.445  48.461  1.00  0.00     0.167 HD
HETATM    7  C   UNL     1      26.141  46.342  51.812  1.00  0.00     0.063 A 
HETATM    8  C   UNL     1      26.768  45.094  51.924  1.00  0.00     0.037 A 
HETATM    9  C   UNL     1      26.405  44.048  51.060  1.00  0.00     0.032 A 
HETATM   10  C   UNL     1      25.424  44.206  50.073  1.00  0.00     0.034 A 
ENDROOT
BRANCH   1  11
HETATM   11  C   UNL     1      22.587  48.107  48.871  1.00  0.00     0.010 A 
HETATM   12  C   UNL     1      22.739  49.492  48.723  1.00  0.00     0.017 A 
HETATM   13  C   UNL     1      21.777  50.256  48.050  1.00  0.00     0.030 A 
HETATM   14  C   UNL     1      20.639  49.656  47.515  1.00  0.00     0.035 A 
HETATM   15  C   UNL     1      20.460  48.281  47.693  1.00  0.00     0.030 A 
HETATM   16  C   UNL     1      21.424  47.515  48.364  1.00  0.00     0.017 A 
BRANCH  14  17
HETATM   17  N   UNL     1      19.653  50.353  46.791  1.00  0.00    -0.321 N 
HETATM   18  C   UNL     1      18.418  50.796  47.235  1.00  0.00     0.279 C 
HETATM   19  O   UNL     1      17.962  50.622  48.361  1.00  0.00    -0.265 OA
HETATM   20  H   UNL     1      19.876  50.611  45.835  1.00  0.00     0.169 HD
BRANCH  18  21
HETATM   21  C   UNL     1      17.685  51.533  46.221  1.00  0.00     0.142 A 
HETATM   22  O   UNL     1      16.630  52.329  46.589  1.00  0.00    -0.317 OA
HETATM   23  C   UNL     1      16.135  52.885  45.452  1.00  0.00     0.143 A 
HETATM   24  C   UNL     1      16.846  52.459  44.356  1.00  0.00     0.027 A 
HETATM   25  C   UNL     1      17.846  51.589  44.849  1.00  0.00     0.045 A 
ENDBRANCH  18  21
ENDBRANCH  14  17
ENDBRANCH   1  11
BRANCH   8  26
HETATM   26  N   UNL     1      27.767  44.796  52.872  1.00  0.00    -0.321 N 
HETATM   27  C   UNL     1      27.624  44.443  54.201  1.00  0.00     0.279 C 
HETATM   28  O   UNL     1      26.561  44.331  54.801  1.00  0.00    -0.265 OA
HETATM   29  H   UNL     1      28.730  44.837  52.555  1.00  0.00     0.169 HD
BRANCH  27  30
HETATM   30  C   UNL     1      28.906  44.210  54.846  1.00  0.00     0.142 A 
HETATM   31  O   UNL     1      29.440  45.185  55.654  1.00  0.00    -0.317 OA
HETATM   32  C   UNL     1      30.626  44.715  56.120  1.00  0.00     0.143 A 
HETATM   33  C   UNL     1      30.871  43.454  55.630  1.00  0.00     0.027 A 
HETATM   34  C   UNL     1      29.765  43.128  54.809  1.00  0.00     0.045 A 
ENDBRANCH  27  30
ENDBRANCH   8  26
TORSDOF 5
ENDMDL
MODEL 3
REMARK VINA RESULT:      -8.6      2.717      5.011
REMARK  5 active torsions:
REMARK  status: ('A' for Active; 'I' for Inactive)
REMARK    1  A    between atoms: C_4  and  C_5 
REMARK       I    between atoms: C_5  and  N_6 
REMARK    2  A    between atoms: N_6  and  C_7 
REMARK    3  A    between atoms: C_10  and  C_11 
REMARK    4  A    between atoms: C_18  and  N_19 
REMARK       I    between atoms: N_19  and  C_20 
REMARK    5  A    between atoms: C_20  and  C_21 
ROOT
HETATM    1  C   UNL     1      24.678  46.629  50.429  1.00  0.00     0.139 A 
HETATM    2  N   UNL     1      25.206  47.124  51.536  1.00  0.00    -0.228 NA
HETATM    3  C   UNL     1      26.055  46.159  52.027  1.00  0.00     0.088 A 
HETATM    4  C   UNL     1      26.045  45.040  51.208  1.00  0.00     0.063 A 
HETATM    5  N   UNL     1      25.170  45.363  50.206  1.00  0.00    -0.338 N 
HETATM    6  H   UNL     1      24.905  44.756  49.447  1.00  0.00     0.167 HD
HETATM    7  C   UNL     1      26.865  46.164  53.177  1.00  0.00     0.063 A 
HETATM    8  C   UNL     1      27.639  45.032  53.464  1.00  0.00     0.037 A 
HETATM    9  C   UNL     1      27.597  43.919  52.607  1.00  0.00     0.032 A 
HETATM   10  C   UNL     1      26.799  43.896  51.457  1.00  0.00     0.034 A 
ENDROOT
BRANCH   1  11
HETATM   11  C   UNL     1      23.680  47.276  49.569  1.00  0.00     0.010 A 
HETATM   12  C   UNL     1      22.802  46.541  48.763  1.00  0.00     0.017 A 
HETATM   13  C   UNL     1      21.820  47.180  47.995  1.00  0.00     0.030 A 
HETATM   14  C   UNL     1      21.696  48.568  48.010  1.00  0.00     0.035 A 
HETATM   15  C   UNL     1      22.595  49.311  48.782  1.00  0.00     0.030 A 
HETATM   16  C   UNL     1      23.575  48.672  49.553  1.00  0.00     0.017 A 
BRANCH  14  17
HETATM   17  N   UNL     1      20.708  49.274  47.298  1.00  0.00    -0.321 N 
HETATM   18  C   UNL     1      19.507  49.774  47.771  1.00  0.00     0.279 C 
HETATM   19  O   UNL     1      19.087  49.654  48.918  1.00  0.00    -0.265 OA
HETATM   20  H   UNL     1      20.904  49.491  46.326  1.00  0.00     0.169 HD
BRANCH  18  21
HETATM   21  C   UNL     1      18.760  50.501  46.758  1.00  0.00     0.142 A 
HETATM   22  O   UNL     1      18.089  51.647  47.101  1.00  0.00    -0.317 OA
HETATM   23  C   UNL     1      17.485  52.107  45.974  1.00  0.00     0.143 A 
HETATM   24  C   UNL     1      17.748  51.277  44.911  1.00  0.00     0.027 A 
HETATM   25  C   UNL     1      18.571  50.242  45.414  1.00  0.00     0.045 A 
ENDBRANCH  18  21
ENDBRANCH  14  17
ENDBRANCH   1  11
BRANCH   8  26
HETATM   26  N   UNL     1      28.483  44.918  54.586  1.00  0.00    -0.321 N 
HETATM   27  C   UNL     1      29.010  45.920  55.379  1.00  0.00     0.279 C 
HETATM   28  O   UNL     1      28.826  47.123  55.231  1.00  0.00    -0.265 OA
HETATM   29  H   UNL     1      28.752  43.981  54.868  1.00  0.00     0.169 HD
BRANCH  27  30
HETATM   30  C   UNL     1      29.839  45.390  56.451  1.00  0.00     0.142 A 
HETATM   31  O   UNL     1      30.629  44.291  56.210  1.00  0.00    -0.317 OA
HETATM   32  C   UNL     1      31.287  44.010  57.365  1.00  0.00     0.143 A 
HETATM   33  C   UNL     1      30.939  44.905  58.348  1.00  0.00     0.027 A 
HETATM   34  C   UNL     1      30.007  45.794  57.762  1.00  0.00     0.045 A 
ENDBRANCH  27  30
ENDBRANCH   8  26
TORSDOF 5
ENDMDL
MODEL 4
REMARK VINA RESULT:      -8.6      3.328     12.650
REMARK  5 active torsions:
REMARK  status: ('A' for Active; 'I' for Inactive)
REMARK    1  A    between atoms: C_4  and  C_5 
REMARK       I    between atoms: C_5  and  N_6 
REMARK    2  A    between atoms: N_6  and  C_7 
REMARK    3  A    between atoms: C_10  and  C_11 
REMARK    4  A    between atoms: C_18  and  N_19 
REMARK       I    between atoms: N_19  and  C_20 
REMARK    5  A    between atoms: C_20  and  C_21 
ROOT
HETATM    1  C   UNL     1      23.889  46.519  49.185  1.00  0.00     0.139 A 
HETATM    2  N   UNL     1      22.567  46.521  49.129  1.00  0.00    -0.228 NA
HETATM    3  C   UNL     1      22.180  47.842  49.124  1.00  0.00     0.088 A 
HETATM    4  C   UNL     1      23.288  48.674  49.187  1.00  0.00     0.063 A 
HETATM    5  N   UNL     1      24.353  47.815  49.222  1.00  0.00    -0.338 N 
HETATM    6  H   UNL     1      25.320  48.089  49.298  1.00  0.00     0.167 HD
HETATM    7  C   UNL     1      20.894  48.410  49.076  1.00  0.00     0.063 A 
HETATM    8  C   UNL     1      20.769  49.806  49.097  1.00  0.00     0.037 A 
HETATM    9  C   UNL     1      21.919  50.610  49.163  1.00  0.00     0.032 A 
HETATM   10  C   UNL     1      23.207  50.063  49.209  1.00  0.00     0.034 A 
ENDROOT
BRANCH   1  11
HETATM   11  C   UNL     1      24.761  45.341  49.252  1.00  0.00     0.010 A 
HETATM   12  C   UNL     1      26.077  45.414  49.724  1.00  0.00     0.017 A 
HETATM   13  C   UNL     1      26.871  44.264  49.831  1.00  0.00     0.030 A 
HETATM   14  C   UNL     1      26.369  43.017  49.464  1.00  0.00     0.035 A 
HETATM   15  C   UNL     1      25.069  42.942  48.954  1.00  0.00     0.030 A 
HETATM   16  C   UNL     1      24.274  44.092  48.849  1.00  0.00     0.017 A 
BRANCH  14  17
HETATM   17  N   UNL     1      27.093  41.816  49.584  1.00  0.00    -0.321 N 
HETATM   18  C   UNL     1      27.791  41.136  48.600  1.00  0.00     0.279 C 
HETATM   19  O   UNL     1      27.868  41.470  47.422  1.00  0.00    -0.265 OA
HETATM   20  H   UNL     1      27.160  41.406  50.510  1.00  0.00     0.169 HD
BRANCH  18  21
HETATM   21  C   UNL     1      28.468  39.953  49.103  1.00  0.00     0.142 A 
HETATM   22  O   UNL     1      28.990  39.042  48.220  1.00  0.00    -0.317 OA
HETATM   23  C   UNL     1      29.553  38.050  48.959  1.00  0.00     0.143 A 
HETATM   24  C   UNL     1      29.400  38.299  50.301  1.00  0.00     0.027 A 
HETATM   25  C   UNL     1      28.702  39.526  50.396  1.00  0.00     0.045 A 
ENDBRANCH  18  21
ENDBRANCH  14  17
ENDBRANCH   1  11
BRANCH   8  26
HETATM   26  N   UNL     1      19.538  50.488  49.058  1.00  0.00    -0.321 N 
HETATM   27  C   UNL     1      18.497  50.450  49.968  1.00  0.00     0.279 C 
HETATM   28  O   UNL     1      18.471  49.788  50.999  1.00  0.00    -0.265 OA
HETATM   29  H   UNL     1      19.372  51.096  48.264  1.00  0.00     0.169 HD
BRANCH  27  30
HETATM   30  C   UNL     1      17.391  51.306  49.568  1.00  0.00     0.142 A 
HETATM   31  O   UNL     1      17.155  52.469  50.260  1.00  0.00    -0.317 OA
HETATM   32  C   UNL     1      16.078  53.066  49.687  1.00  0.00     0.143 A 
HETATM   33  C   UNL     1      15.611  52.312  48.637  1.00  0.00     0.027 A 
HETATM   34  C   UNL     1      16.455  51.178  48.559  1.00  0.00     0.045 A 
ENDBRANCH  27  30
ENDBRANCH   8  26
TORSDOF 5
ENDMDL
MODEL 5
REMARK VINA RESULT:      -8.5     13.713     18.932
REMARK  5 active torsions:
REMARK  status: ('A' for Active; 'I' for Inactive)
REMARK    1  A    between atoms: C_4  and  C_5 
REMARK       I    between atoms: C_5  and  N_6 
REMARK    2  A    between atoms: N_6  and  C_7 
REMARK    3  A    between atoms: C_10  and  C_11 
REMARK    4  A    between atoms: C_18  and  N_19 
REMARK       I    between atoms: N_19  and  C_20 
REMARK    5  A    between atoms: C_20  and  C_21 
ROOT
HETATM    1  C   UNL     1      35.852  52.144  43.814  1.00  0.00     0.139 A 
HETATM    2  N   UNL     1      35.752  51.332  42.774  1.00  0.00    -0.228 NA
HETATM    3  C   UNL     1      34.420  51.001  42.666  1.00  0.00     0.088 A 
HETATM    4  C   UNL     1      33.683  51.617  43.666  1.00  0.00     0.063 A 
HETATM    5  N   UNL     1      34.609  52.333  44.376  1.00  0.00    -0.338 N 
HETATM    6  H   UNL     1      34.415  52.883  45.197  1.00  0.00     0.167 HD
HETATM    7  C   UNL     1      33.765  50.171  41.739  1.00  0.00     0.063 A 
HETATM    8  C   UNL     1      32.380  49.986  41.857  1.00  0.00     0.037 A 
HETATM    9  C   UNL     1      31.674  50.628  42.888  1.00  0.00     0.032 A 
HETATM   10  C   UNL     1      32.308  51.460  43.818  1.00  0.00     0.034 A 
ENDROOT
BRANCH   1  11
HETATM   11  C   UNL     1      37.084  52.732  44.351  1.00  0.00     0.010 A 
HETATM   12  C   UNL     1      37.150  54.063  44.779  1.00  0.00     0.017 A 
HETATM   13  C   UNL     1      38.323  54.585  45.341  1.00  0.00     0.030 A 
HETATM   14  C   UNL     1      39.458  53.790  45.482  1.00  0.00     0.035 A 
HETATM   15  C   UNL     1      39.413  52.470  45.021  1.00  0.00     0.030 A 
HETATM   16  C   UNL     1      38.239  51.948  44.461  1.00  0.00     0.017 A 
BRANCH  14  17
HETATM   17  N   UNL     1      40.656  54.233  46.075  1.00  0.00    -0.321 N 
HETATM   18  C   UNL     1      40.958  54.329  47.423  1.00  0.00     0.279 C 
HETATM   19  O   UNL     1      40.195  54.058  48.345  1.00  0.00    -0.265 OA
HETATM   20  H   UNL     1      41.419  54.475  45.452  1.00  0.00     0.169 HD
BRANCH  18  21
HETATM   21  C   UNL     1      42.318  54.777  47.666  1.00  0.00     0.142 A 
HETATM   22  O   UNL     1      43.066  54.178  48.648  1.00  0.00    -0.317 OA
HETATM   23  C   UNL     1      44.279  54.791  48.655  1.00  0.00     0.143 A 
HETATM   24  C   UNL     1      44.327  55.779  47.701  1.00  0.00     0.027 A 
HETATM   25  C   UNL     1      43.065  55.770  47.061  1.00  0.00     0.045 A 
ENDBRANCH  18  21
ENDBRANCH  14  17
ENDBRANCH   1  11
BRANCH   8  26
HETATM   26  N   UNL     1      31.617  49.176  40.994  1.00  0.00    -0.321 N 
HETATM   27  C   UNL     1      31.822  47.856  40.637  1.00  0.00     0.279 C 
HETATM   28  O   UNL     1      32.741  47.144  41.024  1.00  0.00    -0.265 OA
HETATM   29  H   UNL     1      30.800  49.599  40.567  1.00  0.00     0.169 HD
BRANCH  27  30
HETATM   30  C   UNL     1      30.803  47.374  39.718  1.00  0.00     0.142 A 
HETATM   31  O   UNL     1      30.360  46.077  39.825  1.00  0.00    -0.317 OA
HETATM   32  C   UNL     1      29.424  45.893  38.859  1.00  0.00     0.143 A 
HETATM   33  C   UNL     1      29.251  47.044  38.128  1.00  0.00     0.027 A 
HETATM   34  C   UNL     1      30.138  47.999  38.680  1.00  0.00     0.045 A 
ENDBRANCH  27  30
ENDBRANCH   8  26
TORSDOF 5
ENDMDL
MODEL 6
REMARK VINA RESULT:      -8.4      2.501      2.901
REMARK  5 active torsions:
REMARK  status: ('A' for Active; 'I' for Inactive)
REMARK    1  A    between atoms: C_4  and  C_5 
REMARK       I    between atoms: C_5  and  N_6 
REMARK    2  A    between atoms: N_6  and  C_7 
REMARK    3  A    between atoms: C_10  and  C_11 
REMARK    4  A    between atoms: C_18  and  N_19 
REMARK       I    between atoms: N_19  and  C_20 
REMARK    5  A    between atoms: C_20  and  C_21 
ROOT
HETATM    1  C   UNL     1      21.608  49.046  49.291  1.00  0.00     0.139 A 
HETATM    2  N   UNL     1      21.510  47.813  48.820  1.00  0.00    -0.228 NA
HETATM    3  C   UNL     1      22.729  47.214  49.041  1.00  0.00     0.088 A 
HETATM    4  C   UNL     1      23.601  48.099  49.656  1.00  0.00     0.063 A 
HETATM    5  N   UNL     1      22.870  49.246  49.804  1.00  0.00    -0.338 N 
HETATM    6  H   UNL     1      23.212  50.109  50.196  1.00  0.00     0.167 HD
HETATM    7  C   UNL     1      23.169  45.914  48.736  1.00  0.00     0.063 A 
HETATM    8  C   UNL     1      24.483  45.550  49.059  1.00  0.00     0.037 A 
HETATM    9  C   UNL     1      25.334  46.481  49.680  1.00  0.00     0.032 A 
HETATM   10  C   UNL     1      24.913  47.778  49.995  1.00  0.00     0.034 A 
ENDROOT
BRANCH   1  11
HETATM   11  C   UNL     1      20.573  50.085  49.247  1.00  0.00     0.010 A 
HETATM   12  C   UNL     1      20.594  51.118  48.301  1.00  0.00     0.017 A 
HETATM   13  C   UNL     1      19.563  52.065  48.244  1.00  0.00     0.030 A 
HETATM   14  C   UNL     1      18.492  52.006  49.132  1.00  0.00     0.035 A 
HETATM   15  C   UNL     1      18.484  51.001  50.105  1.00  0.00     0.030 A 
HETATM   16  C   UNL     1      19.513  50.051  50.161  1.00  0.00     0.017 A 
BRANCH  14  17
HETATM   17  N   UNL     1      17.402  52.897  49.106  1.00  0.00    -0.321 N 
HETATM   18  C   UNL     1      16.062  52.603  48.915  1.00  0.00     0.279 C 
HETATM   19  O   UNL     1      15.601  51.486  48.705  1.00  0.00    -0.265 OA
HETATM   20  H   UNL     1      17.599  53.875  49.292  1.00  0.00     0.169 HD
BRANCH  18  21
HETATM   21  C   UNL     1      15.210  53.776  49.006  1.00  0.00     0.142 A 
HETATM   22  O   UNL     1      15.451  54.717  49.976  1.00  0.00    -0.317 OA
HETATM   23  C   UNL     1      14.511  55.687  49.831  1.00  0.00     0.143 A 
HETATM   24  C   UNL     1      13.663  55.389  48.791  1.00  0.00     0.027 A 
HETATM   25  C   UNL     1      14.113  54.158  48.257  1.00  0.00     0.045 A 
ENDBRANCH  18  21
ENDBRANCH  14  17
ENDBRANCH   1  11
BRANCH   8  26
HETATM   26  N   UNL     1      25.037  44.282  48.799  1.00  0.00    -0.321 N 
HETATM   27  C   UNL     1      25.175  43.204  49.653  1.00  0.00     0.279 C 
HETATM   28  O   UNL     1      24.828  43.173  50.829  1.00  0.00    -0.265 OA
HETATM   29  H   UNL     1      25.387  44.115  47.861  1.00  0.00     0.169 HD
BRANCH  27  30
HETATM   30  C   UNL     1      25.799  42.064  49.000  1.00  0.00     0.142 A 
HETATM   31  O   UNL     1      27.098  42.166  48.564  1.00  0.00    -0.317 OA
HETATM   32  C   UNL     1      27.425  40.975  47.998  1.00  0.00     0.143 A 
HETATM   33  C   UNL     1      26.363  40.105  48.057  1.00  0.00     0.027 A 
HETATM   34  C   UNL     1      25.315  40.804  48.702  1.00  0.00     0.045 A 
ENDBRANCH  27  30
ENDBRANCH   8  26
TORSDOF 5
ENDMDL
MODEL 7
REMARK VINA RESULT:      -8.4     11.175     16.547
REMARK  5 active torsions:
REMARK  status: ('A' for Active; 'I' for Inactive)
REMARK    1  A    between atoms: C_4  and  C_5 
REMARK       I    between atoms: C_5  and  N_6 
REMARK    2  A    between atoms: N_6  and  C_7 
REMARK    3  A    between atoms: C_10  and  C_11 
REMARK    4  A    between atoms: C_18  and  N_19 
REMARK       I    between atoms: N_19  and  C_20 
REMARK    5  A    between atoms: C_20  and  C_21 
ROOT
HETATM    1  C   UNL     1      31.086  51.129  41.477  1.00  0.00     0.139 A 
HETATM    2  N   UNL     1      29.912  50.798  41.989  1.00  0.00    -0.228 NA
HETATM    3  C   UNL     1      29.019  50.790  40.942  1.00  0.00     0.088 A 
HETATM    4  C   UNL     1      29.654  51.130  39.758  1.00  0.00     0.063 A 
HETATM    5  N   UNL     1      30.957  51.337  40.122  1.00  0.00    -0.338 N 
HETATM    6  H   UNL     1      31.696  51.628  39.501  1.00  0.00     0.167 HD
HETATM    7  C   UNL     1      27.641  50.507  40.928  1.00  0.00     0.063 A 
HETATM    8  C   UNL     1      26.947  50.582  39.713  1.00  0.00     0.037 A 
HETATM    9  C   UNL     1      27.631  50.934  38.537  1.00  0.00     0.032 A 
HETATM   10  C   UNL     1      29.003  51.216  38.531  1.00  0.00     0.034 A 
ENDROOT
BRANCH   1  11
HETATM   11  C   UNL     1      32.343  51.307  42.211  1.00  0.00     0.010 A 
HETATM   12  C   UNL     1      33.590  51.052  41.627  1.00  0.00     0.017 A 
HETATM   13  C   UNL     1      34.779  51.285  42.331  1.00  0.00     0.030 A 
HETATM   14  C   UNL     1      34.749  51.772  43.636  1.00  0.00     0.035 A 
HETATM   15  C   UNL     1      33.507  51.992  44.240  1.00  0.00     0.030 A 
HETATM   16  C   UNL     1      32.318  51.762  43.535  1.00  0.00     0.017 A 
BRANCH  14  17
HETATM   17  N   UNL     1      35.902  52.069  44.387  1.00  0.00    -0.321 N 
HETATM   18  C   UNL     1      36.829  53.075  44.170  1.00  0.00     0.279 C 
HETATM   19  O   UNL     1      36.806  53.876  43.241  1.00  0.00    -0.265 OA
HETATM   20  H   UNL     1      36.066  51.515  45.222  1.00  0.00     0.169 HD
BRANCH  18  21
HETATM   21  C   UNL     1      37.866  53.116  45.186  1.00  0.00     0.142 A 
HETATM   22  O   UNL     1      38.714  52.048  45.335  1.00  0.00    -0.317 OA
HETATM   23  C   UNL     1      39.567  52.354  46.348  1.00  0.00     0.143 A 
HETATM   24  C   UNL     1      39.282  53.597  46.860  1.00  0.00     0.027 A 
HETATM   25  C   UNL     1      38.187  54.090  46.112  1.00  0.00     0.045 A 
ENDBRANCH  18  21
ENDBRANCH  14  17
ENDBRANCH   1  11
BRANCH   8  26
HETATM   26  N   UNL     1      25.569  50.327  39.575  1.00  0.00    -0.321 N 
HETATM   27  C   UNL     1      24.942  49.197  39.085  1.00  0.00     0.279 C 
HETATM   28  O   UNL     1      25.503  48.189  38.670  1.00  0.00    -0.265 OA
HETATM   29  H   UNL     1      24.932  51.059  39.871  1.00  0.00     0.169 HD
BRANCH  27  30
HETATM   30  C   UNL     1      23.493  49.322  39.110  1.00  0.00     0.142 A 
HETATM   31  O   UNL     1      22.872  50.135  38.193  1.00  0.00    -0.317 OA
HETATM   32  C   UNL     1      21.537  50.070  38.438  1.00  0.00     0.143 A 
HETATM   33  C   UNL     1      21.281  49.230  39.496  1.00  0.00     0.027 A 
HETATM   34  C   UNL     1      22.539  48.747  39.930  1.00  0.00     0.045 A 
ENDBRANCH  27  30
ENDBRANCH   8  26
TORSDOF 5
ENDMDL
MODEL 8
REMARK VINA RESULT:      -8.4     23.659     24.833
REMARK  5 active torsions:
REMARK  status: ('A' for Active; 'I' for Inactive)
REMARK    1  A    between atoms: C_4  and  C_5 
REMARK       I    between atoms: C_5  and  N_6 
REMARK    2  A    between atoms: N_6  and  C_7 
REMARK    3  A    between atoms: C_10  and  C_11 
REMARK    4  A    between atoms: C_18  and  N_19 
REMARK       I    between atoms: N_19  and  C_20 
REMARK    5  A    between atoms: C_20  and  C_21 
ROOT
HETATM    1  C   UNL     1      39.162  46.187  64.931  1.00  0.00     0.139 A 
HETATM    2  N   UNL     1      39.704  45.258  65.702  1.00  0.00    -0.228 NA
HETATM    3  C   UNL     1      39.755  44.108  64.948  1.00  0.00     0.088 A 
HETATM    4  C   UNL     1      39.227  44.330  63.685  1.00  0.00     0.063 A 
HETATM    5  N   UNL     1      38.861  45.649  63.699  1.00  0.00    -0.338 N 
HETATM    6  H   UNL     1      38.413  46.137  62.940  1.00  0.00     0.167 HD
HETATM    7  C   UNL     1      40.235  42.828  65.279  1.00  0.00     0.063 A 
HETATM    8  C   UNL     1      40.161  41.809  64.320  1.00  0.00     0.037 A 
HETATM    9  C   UNL     1      39.615  42.078  63.053  1.00  0.00     0.032 A 
HETATM   10  C   UNL     1      39.135  43.346  62.705  1.00  0.00     0.034 A 
ENDROOT
BRANCH   1  11
HETATM   11  C   UNL     1      38.863  47.573  65.307  1.00  0.00     0.010 A 
HETATM   12  C   UNL     1      39.684  48.642  64.927  1.00  0.00     0.017 A 
HETATM   13  C   UNL     1      39.346  49.963  65.250  1.00  0.00     0.030 A 
HETATM   14  C   UNL     1      38.183  50.245  65.964  1.00  0.00     0.035 A 
HETATM   15  C   UNL     1      37.378  49.180  66.381  1.00  0.00     0.030 A 
HETATM   16  C   UNL     1      37.715  47.859  66.056  1.00  0.00     0.017 A 
BRANCH  14  17
HETATM   17  N   UNL     1      37.759  51.548  66.287  1.00  0.00    -0.321 N 
HETATM   18  C   UNL     1      38.174  52.346  67.340  1.00  0.00     0.279 C 
HETATM   19  O   UNL     1      38.984  52.022  68.203  1.00  0.00    -0.265 OA
HETATM   20  H   UNL     1      37.101  51.991  65.654  1.00  0.00     0.169 HD
BRANCH  18  21
HETATM   21  C   UNL     1      37.558  53.662  67.327  1.00  0.00     0.142 A 
HETATM   22  O   UNL     1      36.893  54.111  68.440  1.00  0.00    -0.317 OA
HETATM   23  C   UNL     1      36.421  55.352  68.147  1.00  0.00     0.143 A 
HETATM   24  C   UNL     1      36.764  55.710  66.866  1.00  0.00     0.027 A 
HETATM   25  C   UNL     1      37.499  54.623  66.336  1.00  0.00     0.045 A 
ENDBRANCH  18  21
ENDBRANCH  14  17
ENDBRANCH   1  11
BRANCH   8  26
HETATM   26  N   UNL     1      40.603  40.489  64.536  1.00  0.00    -0.321 N 
HETATM   27  C   UNL     1      39.855  39.354  64.788  1.00  0.00     0.279 C 
HETATM   28  O   UNL     1      38.633  39.306  64.872  1.00  0.00    -0.265 OA
HETATM   29  H   UNL     1      41.604  40.327  64.504  1.00  0.00     0.169 HD
BRANCH  27  30
HETATM   30  C   UNL     1      40.690  38.174  64.952  1.00  0.00     0.142 A 
HETATM   31  O   UNL     1      41.805  38.024  64.162  1.00  0.00    -0.317 OA
HETATM   32  C   UNL     1      42.391  36.851  64.517  1.00  0.00     0.143 A 
HETATM   33  C   UNL     1      41.679  36.240  65.520  1.00  0.00     0.027 A 
HETATM   34  C   UNL     1      40.583  37.090  65.802  1.00  0.00     0.045 A 
ENDBRANCH  27  30
ENDBRANCH   8  26
TORSDOF 5
ENDMDL
MODEL 9
REMARK VINA RESULT:      -8.4      5.031     13.119
REMARK  5 active torsions:
REMARK  status: ('A' for Active; 'I' for Inactive)
REMARK    1  A    between atoms: C_4  and  C_5 
REMARK       I    between atoms: C_5  and  N_6 
REMARK    2  A    between atoms: N_6  and  C_7 
REMARK    3  A    between atoms: C_10  and  C_11 
REMARK    4  A    between atoms: C_18  and  N_19 
REMARK       I    between atoms: N_19  and  C_20 
REMARK    5  A    between atoms: C_20  and  C_21 
ROOT
HETATM    1  C   UNL     1      24.829  44.208  50.078  1.00  0.00     0.139 A 
HETATM    2  N   UNL     1      23.686  44.860  50.217  1.00  0.00    -0.228 NA
HETATM    3  C   UNL     1      23.047  44.788  49.000  1.00  0.00     0.088 A 
HETATM    4  C   UNL     1      23.816  44.082  48.088  1.00  0.00     0.063 A 
HETATM    5  N   UNL     1      24.933  43.726  48.793  1.00  0.00    -0.338 N 
HETATM    6  H   UNL     1      25.721  43.220  48.420  1.00  0.00     0.167 HD
HETATM    7  C   UNL     1      21.805  45.311  48.596  1.00  0.00     0.063 A 
HETATM    8  C   UNL     1      21.382  45.106  47.276  1.00  0.00     0.037 A 
HETATM    9  C   UNL     1      22.195  44.386  46.384  1.00  0.00     0.032 A 
HETATM   10  C   UNL     1      23.432  43.856  46.769  1.00  0.00     0.034 A 
ENDROOT
BRANCH   1  11
HETATM   11  C   UNL     1      25.873  44.045  51.096  1.00  0.00     0.010 A 
HETATM   12  C   UNL     1      27.222  43.878  50.759  1.00  0.00     0.017 A 
HETATM   13  C   UNL     1      28.208  43.781  51.750  1.00  0.00     0.030 A 
HETATM   14  C   UNL     1      27.867  43.844  53.100  1.00  0.00     0.035 A 
HETATM   15  C   UNL     1      26.518  43.972  53.445  1.00  0.00     0.030 A 
HETATM   16  C   UNL     1      25.532  44.071  52.453  1.00  0.00     0.017 A 
BRANCH  14  17
HETATM   17  N   UNL     1      28.807  43.797  54.147  1.00  0.00    -0.321 N 
HETATM   18  C   UNL     1      29.217  44.829  54.975  1.00  0.00     0.279 C 
HETATM   19  O   UNL     1      28.832  45.992  54.908  1.00  0.00    -0.265 OA
HETATM   20  H   UNL     1      29.213  42.893  54.365  1.00  0.00     0.169 HD
BRANCH  18  21
HETATM   21  C   UNL     1      30.166  44.397  55.986  1.00  0.00     0.142 A 
HETATM   22  O   UNL     1      30.322  45.136  57.131  1.00  0.00    -0.317 OA
HETATM   23  C   UNL     1      31.264  44.510  57.885  1.00  0.00     0.143 A 
HETATM   24  C   UNL     1      31.723  43.383  57.247  1.00  0.00     0.027 A 
HETATM   25  C   UNL     1      31.016  43.307  56.024  1.00  0.00     0.045 A 
ENDBRANCH  18  21
ENDBRANCH  14  17
ENDBRANCH   1  11
BRANCH   8  26
HETATM   26  N   UNL     1      20.164  45.585  46.755  1.00  0.00    -0.321 N 
HETATM   27  C   UNL     1      18.876  45.171  47.043  1.00  0.00     0.279 C 
HETATM   28  O   UNL     1      18.568  44.281  47.827  1.00  0.00    -0.265 OA
HETATM   29  H   UNL     1      20.216  46.337  46.077  1.00  0.00     0.169 HD
BRANCH  27  30
HETATM   30  C   UNL     1      17.881  45.922  46.294  1.00  0.00     0.142 A 
HETATM   31  O   UNL     1      17.149  45.286  45.321  1.00  0.00    -0.317 OA
HETATM   32  C   UNL     1      16.306  46.207  44.786  1.00  0.00     0.143 A 
HETATM   33  C   UNL     1      16.478  47.428  45.394  1.00  0.00     0.027 A 
HETATM   34  C   UNL     1      17.491  47.247  46.366  1.00  0.00     0.045 A 
ENDBRANCH  27  30
ENDBRANCH   8  26
TORSDOF 5
ENDMDL
MODEL 10
REMARK VINA RESULT:      -8.2      1.692     12.409
REMARK  5 active torsions:
REMARK  status: ('A' for Active; 'I' for Inactive)
REMARK    1  A    between atoms: C_4  and  C_5 
REMARK       I    between atoms: C_5  and  N_6 
REMARK    2  A    between atoms: N_6  and  C_7 
REMARK    3  A    between atoms: C_10  and  C_11 
REMARK    4  A    between atoms: C_18  and  N_19 
REMARK       I    between atoms: N_19  and  C_20 
REMARK    5  A    between atoms: C_20  and  C_21 
ROOT
HETATM    1  C   UNL     1      21.894  48.732  48.790  1.00  0.00     0.139 A 
HETATM    2  N   UNL     1      21.184  48.845  47.680  1.00  0.00    -0.228 NA
HETATM    3  C   UNL     1      20.355  49.930  47.857  1.00  0.00     0.088 A 
HETATM    4  C   UNL     1      20.553  50.494  49.108  1.00  0.00     0.063 A 
HETATM    5  N   UNL     1      21.530  49.721  49.676  1.00  0.00    -0.338 N 
HETATM    6  H   UNL     1      21.898  49.839  50.607  1.00  0.00     0.167 HD
HETATM    7  C   UNL     1      19.398  50.490  46.992  1.00  0.00     0.063 A 
HETATM    8  C   UNL     1      18.665  51.604  47.424  1.00  0.00     0.037 A 
HETATM    9  C   UNL     1      18.897  52.142  48.701  1.00  0.00     0.032 A 
HETATM   10  C   UNL     1      19.848  51.600  49.575  1.00  0.00     0.034 A 
ENDROOT
BRANCH   1  11
HETATM   11  C   UNL     1      22.888  47.697  49.092  1.00  0.00     0.010 A 
HETATM   12  C   UNL     1      24.028  47.959  49.862  1.00  0.00     0.017 A 
HETATM   13  C   UNL     1      24.934  46.940  50.184  1.00  0.00     0.030 A 
HETATM   14  C   UNL     1      24.724  45.636  49.740  1.00  0.00     0.035 A 
HETATM   15  C   UNL     1      23.609  45.373  48.938  1.00  0.00     0.030 A 
HETATM   16  C   UNL     1      22.702  46.393  48.618  1.00  0.00     0.017 A 
BRANCH  14  17
HETATM   17  N   UNL     1      25.567  44.555  50.060  1.00  0.00    -0.321 N 
HETATM   18  C   UNL     1      25.438  43.648  51.099  1.00  0.00     0.279 C 
HETATM   19  O   UNL     1      24.553  43.660  51.948  1.00  0.00    -0.265 OA
HETATM   20  H   UNL     1      26.348  44.376  49.436  1.00  0.00     0.169 HD
BRANCH  18  21
HETATM   21  C   UNL     1      26.470  42.626  51.087  1.00  0.00     0.142 A 
HETATM   22  O   UNL     1      27.173  42.357  52.235  1.00  0.00    -0.317 OA
HETATM   23  C   UNL     1      28.064  41.376  51.935  1.00  0.00     0.143 A 
HETATM   24  C   UNL     1      27.954  41.009  50.615  1.00  0.00     0.027 A 
HETATM   25  C   UNL     1      26.927  41.813  50.067  1.00  0.00     0.045 A 
ENDBRANCH  18  21
ENDBRANCH  14  17
ENDBRANCH   1  11
BRANCH   8  26
HETATM   26  N   UNL     1      17.679  52.247  46.651  1.00  0.00    -0.321 N 
HETATM   27  C   UNL     1      16.308  52.071  46.676  1.00  0.00     0.279 C 
HETATM   28  O   UNL     1      15.698  51.294  47.402  1.00  0.00    -0.265 OA
HETATM   29  H   UNL     1      17.996  52.938  45.980  1.00  0.00     0.169 HD
BRANCH  27  30
HETATM   30  C   UNL     1      15.629  52.932  45.720  1.00  0.00     0.142 A 
HETATM   31  O   UNL     1      14.294  53.210  45.893  1.00  0.00    -0.317 OA
HETATM   32  C   UNL     1      13.918  54.022  44.872  1.00  0.00     0.143 A 
HETATM   33  C   UNL     1      14.983  54.277  44.041  1.00  0.00     0.027 A 
HETATM   34  C   UNL     1      16.085  53.576  44.585  1.00  0.00     0.045 A 
ENDBRANCH  27  30
ENDBRANCH   8  26
TORSDOF 5
ENDMDL
