MODEL 1
REMARK VINA RESULT:      -8.1      0.000      0.000
REMARK  2 active torsions:
REMARK  status: ('A' for Active; 'I' for Inactive)
REMARK    1  A    between atoms: C_7  and  N_8 
REMARK       I    between atoms: N_8  and  C_9 
REMARK       I    between atoms: C_9  and  N_10 
REMARK    2  A    between atoms: N_10  and  C_11 
ROOT
HETATM    1  C   UNL     1      28.784  43.073  54.482  1.00  0.00     0.025 A 
HETATM    2  C   UNL     1      29.165  44.193  55.220  1.00  0.00     0.044 A 
HETATM    3  C   UNL     1      30.489  44.288  55.763  1.00  0.00     0.099 C 
HETATM    4  N   UNL     1      31.561  44.379  56.196  1.00  0.00    -0.191 NA
HETATM    5  C   UNL     1      28.255  45.237  55.405  1.00  0.00     0.025 A 
HETATM    6  C   UNL     1      26.973  45.167  54.842  1.00  0.00     0.031 A 
HETATM    7  C   UNL     1      26.584  44.050  54.099  1.00  0.00     0.036 A 
HETATM    8  C   UNL     1      27.501  43.004  53.925  1.00  0.00     0.031 A 
ENDROOT
BRANCH   7   9
HETATM    9  N   UNL     1      25.359  43.938  53.408  1.00  0.00    -0.309 N 
HETATM   10  C   UNL     1      25.039  44.204  52.116  1.00  0.00     0.321 C 
HETATM   11  N   UNL     1      25.681  45.232  51.509  1.00  0.00    -0.338 N 
HETATM   12  O   UNL     1      24.178  43.535  51.554  1.00  0.00    -0.247 OA
HETATM   13  H   UNL     1      26.034  45.933  52.153  1.00  0.00     0.164 HD
HETATM   14  H   UNL     1      24.664  43.349  53.856  1.00  0.00     0.170 HD
BRANCH  11  15
HETATM   15  C   UNL     1      25.667  45.564  50.087  1.00  0.00     0.089 C 
HETATM   16  C   UNL     1      26.866  46.392  49.573  1.00  0.00     0.058 C 
HETATM   17  C   UNL     1      26.645  47.895  49.615  1.00  0.00     0.190 C 
HETATM   18  N   UNL     1      25.313  48.234  49.001  1.00  0.00    -0.067 N 
HETATM   19  C   UNL     1      27.570  48.760  48.776  1.00  0.00     0.035 C 
HETATM   20  H   UNL     1      25.290  47.871  48.038  1.00  0.00     0.280 HD
HETATM   21  C   UNL     1      24.174  47.631  49.754  1.00  0.00     0.237 C 
HETATM   22  C   UNL     1      25.324  49.735  48.890  1.00  0.00     0.235 C 
HETATM   23  C   UNL     1      24.299  46.117  49.650  1.00  0.00     0.053 C 
HETATM   24  C   UNL     1      26.799  50.079  48.671  1.00  0.00     0.030 C 
ENDBRANCH  11  15
ENDBRANCH   7   9
TORSDOF 2
ENDMDL
MODEL 2
REMARK VINA RESULT:      -7.8      1.731      7.226
REMARK  2 active torsions:
REMARK  status: ('A' for Active; 'I' for Inactive)
REMARK    1  A    between atoms: C_7  and  N_8 
REMARK       I    between atoms: N_8  and  C_9 
REMARK       I    between atoms: C_9  and  N_10 
REMARK    2  A    between atoms: N_10  and  C_11 
ROOT
HETATM    1  C   UNL     1      23.997  46.344  49.575  1.00  0.00     0.025 A 
HETATM    2  C   UNL     1      24.566  47.617  49.603  1.00  0.00     0.044 A 
HETATM    3  C   UNL     1      23.735  48.784  49.577  1.00  0.00     0.099 C 
HETATM    4  N   UNL     1      23.070  49.734  49.568  1.00  0.00    -0.191 NA
HETATM    5  C   UNL     1      25.955  47.746  49.683  1.00  0.00     0.025 A 
HETATM    6  C   UNL     1      26.771  46.608  49.750  1.00  0.00     0.031 A 
HETATM    7  C   UNL     1      26.207  45.329  49.725  1.00  0.00     0.036 A 
HETATM    8  C   UNL     1      24.814  45.209  49.636  1.00  0.00     0.031 A 
ENDROOT
BRANCH   7   9
HETATM    9  N   UNL     1      26.937  44.134  49.894  1.00  0.00    -0.309 N 
HETATM   10  C   UNL     1      27.220  43.414  51.010  1.00  0.00     0.321 C 
HETATM   11  N   UNL     1      27.413  44.098  52.165  1.00  0.00    -0.338 N 
HETATM   12  O   UNL     1      27.316  42.194  50.938  1.00  0.00    -0.247 OA
HETATM   13  H   UNL     1      27.710  45.059  52.028  1.00  0.00     0.164 HD
HETATM   14  H   UNL     1      27.070  43.587  49.049  1.00  0.00     0.170 HD
BRANCH  11  15
HETATM   15  C   UNL     1      27.510  43.544  53.512  1.00  0.00     0.089 C 
HETATM   16  C   UNL     1      27.402  44.559  54.672  1.00  0.00     0.058 C 
HETATM   17  C   UNL     1      28.738  45.118  55.133  1.00  0.00     0.190 C 
HETATM   18  N   UNL     1      29.717  43.993  55.345  1.00  0.00    -0.067 N 
HETATM   19  C   UNL     1      28.781  45.788  56.496  1.00  0.00     0.035 C 
HETATM   20  H   UNL     1      29.322  43.335  56.030  1.00  0.00     0.280 HD
HETATM   21  C   UNL     1      30.000  43.246  54.085  1.00  0.00     0.237 C 
HETATM   22  C   UNL     1      30.897  44.647  56.016  1.00  0.00     0.235 C 
HETATM   23  C   UNL     1      28.704  42.581  53.641  1.00  0.00     0.053 C 
HETATM   24  C   UNL     1      30.275  45.785  56.829  1.00  0.00     0.030 C 
ENDBRANCH  11  15
ENDBRANCH   7   9
TORSDOF 2
ENDMDL
MODEL 3
REMARK VINA RESULT:      -7.8      3.687      5.399
REMARK  2 active torsions:
REMARK  status: ('A' for Active; 'I' for Inactive)
REMARK    1  A    between atoms: C_7  and  N_8 
REMARK       I    between atoms: N_8  and  C_9 
REMARK       I    between atoms: C_9  and  N_10 
REMARK    2  A    between atoms: N_10  and  C_11 
ROOT
HETATM    1  C   UNL     1      29.577  45.145  55.873  1.00  0.00     0.025 A 
HETATM    2  C   UNL     1      30.293  43.955  55.748  1.00  0.00     0.044 A 
HETATM    3  C   UNL     1      31.393  43.674  56.624  1.00  0.00     0.099 C 
HETATM    4  N   UNL     1      32.276  43.432  57.336  1.00  0.00    -0.191 NA
HETATM    5  C   UNL     1      29.914  43.025  54.777  1.00  0.00     0.025 A 
HETATM    6  C   UNL     1      28.815  43.276  53.944  1.00  0.00     0.031 A 
HETATM    7  C   UNL     1      28.091  44.465  54.065  1.00  0.00     0.036 A 
HETATM    8  C   UNL     1      28.483  45.396  55.036  1.00  0.00     0.031 A 
ENDROOT
BRANCH   7   9
HETATM    9  N   UNL     1      26.912  44.757  53.348  1.00  0.00    -0.309 N 
HETATM   10  C   UNL     1      26.139  43.976  52.551  1.00  0.00     0.321 C 
HETATM   11  N   UNL     1      26.760  43.022  51.815  1.00  0.00    -0.338 N 
HETATM   12  O   UNL     1      24.929  44.167  52.503  1.00  0.00    -0.247 OA
HETATM   13  H   UNL     1      27.737  43.222  51.623  1.00  0.00     0.164 HD
HETATM   14  H   UNL     1      26.421  45.593  53.647  1.00  0.00     0.170 HD
BRANCH  11  15
HETATM   15  C   UNL     1      26.132  41.937  51.066  1.00  0.00     0.089 C 
HETATM   16  C   UNL     1      26.816  40.556  51.171  1.00  0.00     0.058 C 
HETATM   17  C   UNL     1      27.852  40.294  50.090  1.00  0.00     0.190 C 
HETATM   18  N   UNL     1      27.280  40.632  48.739  1.00  0.00    -0.067 N 
HETATM   19  C   UNL     1      28.274  38.852  49.864  1.00  0.00     0.035 C 
HETATM   20  H   UNL     1      26.426  40.076  48.593  1.00  0.00     0.280 HD
HETATM   21  C   UNL     1      26.924  42.077  48.623  1.00  0.00     0.237 C 
HETATM   22  C   UNL     1      28.299  40.112  47.761  1.00  0.00     0.235 C 
HETATM   23  C   UNL     1      25.810  42.361  49.622  1.00  0.00     0.053 C 
HETATM   24  C   UNL     1      28.906  38.898  48.469  1.00  0.00     0.030 C 
ENDBRANCH  11  15
ENDBRANCH   7   9
TORSDOF 2
ENDMDL
MODEL 4
REMARK VINA RESULT:      -7.7      1.855      2.561
REMARK  2 active torsions:
REMARK  status: ('A' for Active; 'I' for Inactive)
REMARK    1  A    between atoms: C_7  and  N_8 
REMARK       I    between atoms: N_8  and  C_9 
REMARK       I    between atoms: C_9  and  N_10 
REMARK    2  A    between atoms: N_10  and  C_11 
ROOT
HETATM    1  C   UNL     1      28.451  44.964  55.475  1.00  0.00     0.025 A 
HETATM    2  C   UNL     1      29.759  44.824  55.940  1.00  0.00     0.044 A 
HETATM    3  C   UNL     1      30.247  45.661  56.997  1.00  0.00     0.099 C 
HETATM    4  N   UNL     1      30.647  46.326  57.858  1.00  0.00    -0.191 NA
HETATM    5  C   UNL     1      30.583  43.841  55.386  1.00  0.00     0.025 A 
HETATM    6  C   UNL     1      30.097  42.993  54.381  1.00  0.00     0.031 A 
HETATM    7  C   UNL     1      28.788  43.126  53.912  1.00  0.00     0.036 A 
HETATM    8  C   UNL     1      27.971  44.119  54.468  1.00  0.00     0.031 A 
ENDROOT
BRANCH   7   9
HETATM    9  N   UNL     1      28.181  42.254  52.984  1.00  0.00    -0.309 N 
HETATM   10  C   UNL     1      27.773  42.458  51.705  1.00  0.00     0.321 C 
HETATM   11  N   UNL     1      27.287  43.684  51.391  1.00  0.00    -0.338 N 
HETATM   12  O   UNL     1      27.833  41.541  50.894  1.00  0.00    -0.247 OA
HETATM   13  H   UNL     1      26.913  44.194  52.186  1.00  0.00     0.164 HD
HETATM   14  H   UNL     1      28.274  41.265  53.196  1.00  0.00     0.170 HD
BRANCH  11  15
HETATM   15  C   UNL     1      26.998  44.203  50.057  1.00  0.00     0.089 C 
HETATM   16  C   UNL     1      27.298  45.702  49.833  1.00  0.00     0.058 C 
HETATM   17  C   UNL     1      26.118  46.618  50.113  1.00  0.00     0.190 C 
HETATM   18  N   UNL     1      24.886  46.093  49.423  1.00  0.00    -0.067 N 
HETATM   19  C   UNL     1      26.178  48.026  49.546  1.00  0.00     0.035 C 
HETATM   20  H   UNL     1      25.079  46.016  48.415  1.00  0.00     0.280 HD
HETATM   21  C   UNL     1      24.488  44.747  49.928  1.00  0.00     0.237 C 
HETATM   22  C   UNL     1      23.872  47.196  49.580  1.00  0.00     0.235 C 
HETATM   23  C   UNL     1      25.601  43.771  49.575  1.00  0.00     0.053 C 
HETATM   24  C   UNL     1      24.714  48.473  49.590  1.00  0.00     0.030 C 
ENDBRANCH  11  15
ENDBRANCH   7   9
TORSDOF 2
ENDMDL
MODEL 5
REMARK VINA RESULT:      -7.3      7.071      9.596
REMARK  2 active torsions:
REMARK  status: ('A' for Active; 'I' for Inactive)
REMARK    1  A    between atoms: C_7  and  N_8 
REMARK       I    between atoms: N_8  and  C_9 
REMARK       I    between atoms: C_9  and  N_10 
REMARK    2  A    between atoms: N_10  and  C_11 
ROOT
HETATM    1  C   UNL     1      23.015  51.127  48.834  1.00  0.00     0.025 A 
HETATM    2  C   UNL     1      23.699  49.974  48.449  1.00  0.00     0.044 A 
HETATM    3  C   UNL     1      25.004  50.066  47.860  1.00  0.00     0.099 C 
HETATM    4  N   UNL     1      26.063  50.129  47.394  1.00  0.00    -0.191 NA
HETATM    5  C   UNL     1      23.113  48.724  48.665  1.00  0.00     0.025 A 
HETATM    6  C   UNL     1      21.856  48.627  49.277  1.00  0.00     0.031 A 
HETATM    7  C   UNL     1      21.166  49.777  49.668  1.00  0.00     0.036 A 
HETATM    8  C   UNL     1      21.758  51.027  49.440  1.00  0.00     0.031 A 
ENDROOT
BRANCH   7   9
HETATM    9  N   UNL     1      19.951  49.774  50.383  1.00  0.00    -0.309 N 
HETATM   10  C   UNL     1      18.900  48.915  50.348  1.00  0.00     0.321 C 
HETATM   11  N   UNL     1      18.597  48.342  49.157  1.00  0.00    -0.338 N 
HETATM   12  O   UNL     1      18.253  48.703  51.368  1.00  0.00    -0.247 OA
HETATM   13  H   UNL     1      18.909  48.879  48.352  1.00  0.00     0.164 HD
HETATM   14  H   UNL     1      19.942  50.345  51.222  1.00  0.00     0.170 HD
BRANCH  11  15
HETATM   15  C   UNL     1      17.670  47.241  48.917  1.00  0.00     0.089 C 
HETATM   16  C   UNL     1      18.214  46.068  48.071  1.00  0.00     0.058 C 
HETATM   17  C   UNL     1      17.955  46.208  46.580  1.00  0.00     0.190 C 
HETATM   18  N   UNL     1      16.511  46.564  46.342  1.00  0.00    -0.067 N 
HETATM   19  C   UNL     1      18.080  44.955  45.730  1.00  0.00     0.035 C 
HETATM   20  H   UNL     1      15.917  45.839  46.766  1.00  0.00     0.280 HD
HETATM   21  C   UNL     1      16.148  47.879  46.945  1.00  0.00     0.237 C 
HETATM   22  C   UNL     1      16.337  46.439  44.851  1.00  0.00     0.235 C 
HETATM   23  C   UNL     1      16.293  47.753  48.455  1.00  0.00     0.053 C 
HETATM   24  C   UNL     1      17.317  45.331  44.456  1.00  0.00     0.030 C 
ENDBRANCH  11  15
ENDBRANCH   7   9
TORSDOF 2
ENDMDL
MODEL 6
REMARK VINA RESULT:      -7.3     11.945     13.699
REMARK  2 active torsions:
REMARK  status: ('A' for Active; 'I' for Inactive)
REMARK    1  A    between atoms: C_7  and  N_8 
REMARK       I    between atoms: N_8  and  C_9 
REMARK       I    between atoms: C_9  and  N_10 
REMARK    2  A    between atoms: N_10  and  C_11 
ROOT
HETATM    1  C   UNL     1      29.204  48.066  39.119  1.00  0.00     0.025 A 
HETATM    2  C   UNL     1      28.793  46.879  39.725  1.00  0.00     0.044 A 
HETATM    3  C   UNL     1      29.303  45.618  39.273  1.00  0.00     0.099 C 
HETATM    4  N   UNL     1      29.719  44.594  38.922  1.00  0.00    -0.191 NA
HETATM    5  C   UNL     1      27.898  46.931  40.797  1.00  0.00     0.025 A 
HETATM    6  C   UNL     1      27.427  48.164  41.269  1.00  0.00     0.031 A 
HETATM    7  C   UNL     1      27.837  49.357  40.668  1.00  0.00     0.036 A 
HETATM    8  C   UNL     1      28.729  49.296  39.589  1.00  0.00     0.031 A 
ENDROOT
BRANCH   7   9
HETATM    9  N   UNL     1      27.502  50.643  41.140  1.00  0.00    -0.309 N 
HETATM   10  C   UNL     1      28.281  51.720  41.417  1.00  0.00     0.321 C 
HETATM   11  N   UNL     1      29.522  51.487  41.912  1.00  0.00    -0.338 N 
HETATM   12  O   UNL     1      27.841  52.851  41.238  1.00  0.00    -0.247 OA
HETATM   13  H   UNL     1      29.613  50.593  42.387  1.00  0.00     0.164 HD
HETATM   14  H   UNL     1      26.527  50.901  41.034  1.00  0.00     0.170 HD
BRANCH  11  15
HETATM   15  C   UNL     1      30.602  52.455  42.077  1.00  0.00     0.089 C 
HETATM   16  C   UNL     1      31.283  52.938  40.778  1.00  0.00     0.058 C 
HETATM   17  C   UNL     1      32.493  52.114  40.369  1.00  0.00     0.190 C 
HETATM   18  N   UNL     1      33.409  51.929  41.550  1.00  0.00    -0.067 N 
HETATM   19  C   UNL     1      33.452  52.733  39.365  1.00  0.00     0.035 C 
HETATM   20  H   UNL     1      33.681  52.854  41.907  1.00  0.00     0.280 HD
HETATM   21  C   UNL     1      32.754  51.172  42.657  1.00  0.00     0.237 C 
HETATM   22  C   UNL     1      34.654  51.316  40.965  1.00  0.00     0.235 C 
HETATM   23  C   UNL     1      31.593  52.013  43.169  1.00  0.00     0.053 C 
HETATM   24  C   UNL     1      34.723  51.899  39.551  1.00  0.00     0.030 C 
ENDBRANCH  11  15
ENDBRANCH   7   9
TORSDOF 2
ENDMDL
MODEL 7
REMARK VINA RESULT:      -7.1      7.000      9.964
REMARK  2 active torsions:
REMARK  status: ('A' for Active; 'I' for Inactive)
REMARK    1  A    between atoms: C_7  and  N_8 
REMARK       I    between atoms: N_8  and  C_9 
REMARK       I    between atoms: C_9  and  N_10 
REMARK    2  A    between atoms: N_10  and  C_11 
ROOT
HETATM    1  C   UNL     1      23.089  50.875  48.922  1.00  0.00     0.025 A 
HETATM    2  C   UNL     1      23.856  49.816  48.435  1.00  0.00     0.044 A 
HETATM    3  C   UNL     1      25.197  50.041  47.978  1.00  0.00     0.099 C 
HETATM    4  N   UNL     1      26.285  50.211  47.617  1.00  0.00    -0.191 NA
HETATM    5  C   UNL     1      23.316  48.528  48.421  1.00  0.00     0.025 A 
HETATM    6  C   UNL     1      22.022  48.296  48.904  1.00  0.00     0.031 A 
HETATM    7  C   UNL     1      21.248  49.350  49.396  1.00  0.00     0.036 A 
HETATM    8  C   UNL     1      21.794  50.641  49.400  1.00  0.00     0.031 A 
ENDROOT
BRANCH   7   9
HETATM    9  N   UNL     1      19.982  49.197  49.999  1.00  0.00    -0.309 N 
HETATM   10  C   UNL     1      18.741  49.118  49.454  1.00  0.00     0.321 C 
HETATM   11  N   UNL     1      18.501  49.841  48.332  1.00  0.00    -0.338 N 
HETATM   12  O   UNL     1      17.884  48.427  49.993  1.00  0.00    -0.247 OA
HETATM   13  H   UNL     1      19.108  50.649  48.227  1.00  0.00     0.164 HD
HETATM   14  H   UNL     1      19.998  48.852  50.953  1.00  0.00     0.170 HD
BRANCH  11  15
HETATM   15  C   UNL     1      17.337  49.751  47.457  1.00  0.00     0.089 C 
HETATM   16  C   UNL     1      17.626  49.774  45.939  1.00  0.00     0.058 C 
HETATM   17  C   UNL     1      17.600  51.164  45.325  1.00  0.00     0.190 C 
HETATM   18  N   UNL     1      16.355  51.892  45.758  1.00  0.00    -0.067 N 
HETATM   19  C   UNL     1      17.468  51.257  43.814  1.00  0.00     0.035 C 
HETATM   20  H   UNL     1      15.534  51.337  45.482  1.00  0.00     0.280 HD
HETATM   21  C   UNL     1      16.307  52.097  47.235  1.00  0.00     0.237 C 
HETATM   22  C   UNL     1      16.334  53.135  44.908  1.00  0.00     0.235 C 
HETATM   23  C   UNL     1      16.227  50.725  47.891  1.00  0.00     0.053 C 
HETATM   24  C   UNL     1      17.003  52.700  43.602  1.00  0.00     0.030 C 
ENDBRANCH  11  15
ENDBRANCH   7   9
TORSDOF 2
ENDMDL
MODEL 8
REMARK VINA RESULT:      -7.1     12.435     14.160
REMARK  2 active torsions:
REMARK  status: ('A' for Active; 'I' for Inactive)
REMARK    1  A    between atoms: C_7  and  N_8 
REMARK       I    between atoms: N_8  and  C_9 
REMARK       I    between atoms: C_9  and  N_10 
REMARK    2  A    between atoms: N_10  and  C_11 
ROOT
HETATM    1  C   UNL     1      28.494  47.656  38.648  1.00  0.00     0.025 A 
HETATM    2  C   UNL     1      27.876  47.100  39.769  1.00  0.00     0.044 A 
HETATM    3  C   UNL     1      28.071  45.717  40.093  1.00  0.00     0.099 C 
HETATM    4  N   UNL     1      28.231  44.602  40.370  1.00  0.00    -0.191 NA
HETATM    5  C   UNL     1      27.086  47.909  40.589  1.00  0.00     0.025 A 
HETATM    6  C   UNL     1      26.926  49.271  40.299  1.00  0.00     0.031 A 
HETATM    7  C   UNL     1      27.544  49.836  39.180  1.00  0.00     0.036 A 
HETATM    8  C   UNL     1      28.328  49.015  38.358  1.00  0.00     0.031 A 
ENDROOT
BRANCH   7   9
HETATM    9  N   UNL     1      27.526  51.211  38.870  1.00  0.00    -0.309 N 
HETATM   10  C   UNL     1      28.477  52.169  39.020  1.00  0.00     0.321 C 
HETATM   11  N   UNL     1      29.304  52.071  40.090  1.00  0.00    -0.338 N 
HETATM   12  O   UNL     1      28.544  53.091  38.214  1.00  0.00    -0.247 OA
HETATM   13  H   UNL     1      28.910  51.546  40.866  1.00  0.00     0.164 HD
HETATM   14  H   UNL     1      26.802  51.498  38.219  1.00  0.00     0.170 HD
BRANCH  11  15
HETATM   15  C   UNL     1      30.518  52.840  40.341  1.00  0.00     0.089 C 
HETATM   16  C   UNL     1      31.818  52.276  39.724  1.00  0.00     0.058 C 
HETATM   17  C   UNL     1      32.585  51.341  40.645  1.00  0.00     0.190 C 
HETATM   18  N   UNL     1      32.733  51.970  42.005  1.00  0.00    -0.067 N 
HETATM   19  C   UNL     1      34.039  51.064  40.304  1.00  0.00     0.035 C 
HETATM   20  H   UNL     1      33.207  52.876  41.901  1.00  0.00     0.280 HD
HETATM   21  C   UNL     1      31.415  52.203  42.665  1.00  0.00     0.237 C 
HETATM   22  C   UNL     1      33.695  51.067  42.731  1.00  0.00     0.235 C 
HETATM   23  C   UNL     1      30.650  53.218  41.827  1.00  0.00     0.053 C 
HETATM   24  C   UNL     1      34.601  50.525  41.623  1.00  0.00     0.030 C 
ENDBRANCH  11  15
ENDBRANCH   7   9
TORSDOF 2
ENDMDL
MODEL 9
REMARK VINA RESULT:      -7.1      3.352      4.792
REMARK  2 active torsions:
REMARK  status: ('A' for Active; 'I' for Inactive)
REMARK    1  A    between atoms: C_7  and  N_8 
REMARK       I    between atoms: N_8  and  C_9 
REMARK       I    between atoms: C_9  and  N_10 
REMARK    2  A    between atoms: N_10  and  C_11 
ROOT
HETATM    1  C   UNL     1      25.897  47.296  52.065  1.00  0.00     0.025 A 
HETATM    2  C   UNL     1      25.911  46.772  53.358  1.00  0.00     0.044 A 
HETATM    3  C   UNL     1      26.381  47.564  54.457  1.00  0.00     0.099 C 
HETATM    4  N   UNL     1      26.747  48.201  55.354  1.00  0.00    -0.191 NA
HETATM    5  C   UNL     1      25.439  45.475  53.578  1.00  0.00     0.025 A 
HETATM    6  C   UNL     1      24.942  44.712  52.513  1.00  0.00     0.031 A 
HETATM    7  C   UNL     1      24.921  45.231  51.216  1.00  0.00     0.036 A 
HETATM    8  C   UNL     1      25.404  46.529  51.003  1.00  0.00     0.031 A 
ENDROOT
BRANCH   7   9
HETATM    9  N   UNL     1      24.344  44.580  50.106  1.00  0.00    -0.309 N 
HETATM   10  C   UNL     1      23.662  45.073  49.040  1.00  0.00     0.321 C 
HETATM   11  N   UNL     1      22.877  46.159  49.247  1.00  0.00    -0.338 N 
HETATM   12  O   UNL     1      23.756  44.521  47.950  1.00  0.00    -0.247 OA
HETATM   13  H   UNL     1      22.566  46.264  50.208  1.00  0.00     0.164 HD
HETATM   14  H   UNL     1      24.683  43.639  49.933  1.00  0.00     0.170 HD
BRANCH  11  15
HETATM   15  C   UNL     1      22.232  46.987  48.232  1.00  0.00     0.089 C 
HETATM   16  C   UNL     1      22.575  48.493  48.267  1.00  0.00     0.058 C 
HETATM   17  C   UNL     1      21.625  49.325  49.113  1.00  0.00     0.190 C 
HETATM   18  N   UNL     1      20.199  48.993  48.759  1.00  0.00    -0.067 N 
HETATM   19  C   UNL     1      21.627  50.828  48.890  1.00  0.00     0.035 C 
HETATM   20  H   UNL     1      20.061  49.160  47.753  1.00  0.00     0.280 HD
HETATM   21  C   UNL     1      19.864  47.569  49.048  1.00  0.00     0.237 C 
HETATM   22  C   UNL     1      19.384  50.034  49.479  1.00  0.00     0.235 C 
HETATM   23  C   UNL     1      20.723  46.697  48.143  1.00  0.00     0.053 C 
HETATM   24  C   UNL     1      20.294  51.264  49.504  1.00  0.00     0.030 C 
ENDBRANCH  11  15
ENDBRANCH   7   9
TORSDOF 2
ENDMDL
MODEL 10
REMARK VINA RESULT:      -7.0     16.202     18.778
REMARK  2 active torsions:
REMARK  status: ('A' for Active; 'I' for Inactive)
REMARK    1  A    between atoms: C_7  and  N_8 
REMARK       I    between atoms: N_8  and  C_9 
REMARK       I    between atoms: C_9  and  N_10 
REMARK    2  A    between atoms: N_10  and  C_11 
ROOT
HETATM    1  C   UNL     1      39.266  41.353  62.779  1.00  0.00     0.025 A 
HETATM    2  C   UNL     1      39.172  40.404  63.797  1.00  0.00     0.044 A 
HETATM    3  C   UNL     1      40.057  39.276  63.822  1.00  0.00     0.099 C 
HETATM    4  N   UNL     1      40.776  38.367  63.858  1.00  0.00    -0.191 NA
HETATM    5  C   UNL     1      38.222  40.574  64.808  1.00  0.00     0.025 A 
HETATM    6  C   UNL     1      37.382  41.696  64.810  1.00  0.00     0.031 A 
HETATM    7  C   UNL     1      37.473  42.652  63.795  1.00  0.00     0.036 A 
HETATM    8  C   UNL     1      38.422  42.469  62.780  1.00  0.00     0.031 A 
ENDROOT
BRANCH   7   9
HETATM    9  N   UNL     1      36.746  43.861  63.772  1.00  0.00    -0.309 N 
HETATM   10  C   UNL     1      37.146  45.144  63.964  1.00  0.00     0.321 C 
HETATM   11  N   UNL     1      38.144  45.362  64.856  1.00  0.00    -0.338 N 
HETATM   12  O   UNL     1      36.590  46.052  63.357  1.00  0.00    -0.247 OA
HETATM   13  H   UNL     1      38.230  44.637  65.562  1.00  0.00     0.164 HD
HETATM   14  H   UNL     1      35.845  43.813  63.308  1.00  0.00     0.170 HD
BRANCH  11  15
HETATM   15  C   UNL     1      38.881  46.605  65.068  1.00  0.00     0.089 C 
HETATM   16  C   UNL     1      40.318  46.646  64.501  1.00  0.00     0.058 C 
HETATM   17  C   UNL     1      41.386  46.200  65.487  1.00  0.00     0.190 C 
HETATM   18  N   UNL     1      41.189  46.900  66.806  1.00  0.00    -0.067 N 
HETATM   19  C   UNL     1      42.823  46.582  65.178  1.00  0.00     0.035 C 
HETATM   20  H   UNL     1      41.215  47.916  66.649  1.00  0.00     0.280 HD
HETATM   21  C   UNL     1      39.882  46.557  67.437  1.00  0.00     0.237 C 
HETATM   22  C   UNL     1      42.425  46.560  67.597  1.00  0.00     0.235 C 
HETATM   23  C   UNL     1      38.777  47.080  66.529  1.00  0.00     0.053 C 
HETATM   24  C   UNL     1      43.517  46.420  66.534  1.00  0.00     0.030 C 
ENDBRANCH  11  15
ENDBRANCH   7   9
TORSDOF 2
ENDMDL
