MODEL 1
REMARK VINA RESULT:      -8.3      0.000      0.000
REMARK  8 active torsions:
REMARK  status: ('A' for Active; 'I' for Inactive)
REMARK    1  A    between atoms: C_4  and  O_5 
REMARK    2  A    between atoms: O_5  and  C_6 
REMARK    3  A    between atoms: C_6  and  C_7 
REMARK    4  A    between atoms: C_7  and  N_8 
REMARK       I    between atoms: N_8  and  C_9 
REMARK    5  A    between atoms: C_9  and  C_10 
REMARK    6  A    between atoms: C_10  and  S_11 
REMARK    7  A    between atoms: S_11  and  C_12 
REMARK    8  A    between atoms: C_15  and  C_16 
ROOT
HETATM    1  C   UNL     1      22.555  43.612  48.970  1.00  0.00     0.185 C 
ENDROOT
BRANCH   1   2
HETATM    2  C   UNL     1      21.546  44.735  48.752  1.00  0.00     0.227 C 
HETATM    3  N   UNL     1      22.146  45.919  48.345  1.00  0.00    -0.358 N 
HETATM    4  H   UNL     1      23.084  45.864  47.969  1.00  0.00     0.162 HD
HETATM    5  O   UNL     1      20.339  44.639  48.954  1.00  0.00    -0.273 OA
BRANCH   3   6
HETATM    6  C   UNL     1      21.358  47.095  48.012  1.00  0.00     0.149 C 
BRANCH   6   7
HETATM    7  C   UNL     1      21.772  48.324  48.823  1.00  0.00     0.195 C 
BRANCH   7   8
HETATM    8  O   UNL     1      22.974  48.013  49.526  1.00  0.00    -0.350 OA
BRANCH   8   9
HETATM    9  C   UNL     1      24.126  48.619  49.105  1.00  0.00     0.069 A 
HETATM   10  C   UNL     1      25.425  48.276  49.484  1.00  0.00     0.043 A 
HETATM   11  C   UNL     1      26.527  48.988  48.980  1.00  0.00    -0.059 A 
HETATM   12  C   UNL     1      27.928  48.620  49.370  1.00  0.00     0.048 C 
HETATM   13  C   UNL     1      26.311  50.039  48.080  1.00  0.00     0.007 A 
HETATM   14  C   UNL     1      25.017  50.382  47.698  1.00  0.00     0.003 A 
HETATM   15  C   UNL     1      23.931  49.674  48.210  1.00  0.00     0.037 A 
ENDBRANCH   8   9
ENDBRANCH   7   8
ENDBRANCH   6   7
ENDBRANCH   3   6
ENDBRANCH   1   2
BRANCH   1  16
HETATM   16  S   UNL     1      24.269  44.186  48.837  1.00  0.00    -0.081 SA
BRANCH  16  17
HETATM   17  C   UNL     1      24.657  44.371  50.510  1.00  0.00     0.191 A 
HETATM   18  N   UNL     1      25.908  44.658  50.977  1.00  0.00    -0.312 N 
HETATM   19  C   UNL     1      27.059  45.039  50.200  1.00  0.00     0.160 C 
HETATM   20  C   UNL     1      25.826  44.561  52.351  1.00  0.00     0.164 A 
HETATM   21  N   UNL     1      24.562  44.334  52.671  1.00  0.00    -0.128 NA
HETATM   22  N   UNL     1      23.832  44.206  51.515  1.00  0.00    -0.122 NA
BRANCH  20  23
HETATM   23  C   UNL     1      26.943  44.688  53.291  1.00  0.00     0.018 A 
HETATM   24  C   UNL     1      27.169  45.875  54.018  1.00  0.00    -0.048 A 
HETATM   25  C   UNL     1      26.269  47.074  53.882  1.00  0.00     0.049 C 
HETATM   26  C   UNL     1      28.245  45.932  54.921  1.00  0.00     0.007 A 
HETATM   27  C   UNL     1      29.091  44.837  55.100  1.00  0.00     0.001 A 
HETATM   28  C   UNL     1      28.865  43.664  54.390  1.00  0.00     0.001 A 
HETATM   29  C   UNL     1      27.795  43.587  53.497  1.00  0.00     0.016 A 
ENDBRANCH  20  23
ENDBRANCH  16  17
ENDBRANCH   1  16
TORSDOF 8
ENDMDL
MODEL 2
REMARK VINA RESULT:      -8.3     11.040     13.090
REMARK  8 active torsions:
REMARK  status: ('A' for Active; 'I' for Inactive)
REMARK    1  A    between atoms: C_4  and  O_5 
REMARK    2  A    between atoms: O_5  and  C_6 
REMARK    3  A    between atoms: C_6  and  C_7 
REMARK    4  A    between atoms: C_7  and  N_8 
REMARK       I    between atoms: N_8  and  C_9 
REMARK    5  A    between atoms: C_9  and  C_10 
REMARK    6  A    between atoms: C_10  and  S_11 
REMARK    7  A    between atoms: S_11  and  C_12 
REMARK    8  A    between atoms: C_15  and  C_16 
ROOT
HETATM    1  C   UNL     1      26.153  47.366  39.044  1.00  0.00     0.185 C 
ENDROOT
BRANCH   1   2
HETATM    2  C   UNL     1      27.366  46.924  39.856  1.00  0.00     0.227 C 
HETATM    3  N   UNL     1      28.520  46.842  39.090  1.00  0.00    -0.358 N 
HETATM    4  H   UNL     1      28.528  47.327  38.201  1.00  0.00     0.162 HD
HETATM    5  O   UNL     1      27.339  46.623  41.047  1.00  0.00    -0.273 OA
BRANCH   3   6
HETATM    6  C   UNL     1      29.805  46.508  39.682  1.00  0.00     0.149 C 
BRANCH   6   7
HETATM    7  C   UNL     1      30.679  47.742  39.915  1.00  0.00     0.195 C 
BRANCH   7   8
HETATM    8  O   UNL     1      30.741  47.990  41.318  1.00  0.00    -0.350 OA
BRANCH   8   9
HETATM    9  C   UNL     1      31.664  48.899  41.758  1.00  0.00     0.069 A 
HETATM   10  C   UNL     1      31.455  49.886  42.723  1.00  0.00     0.043 A 
HETATM   11  C   UNL     1      32.491  50.765  43.081  1.00  0.00    -0.059 A 
HETATM   12  C   UNL     1      32.282  51.821  44.125  1.00  0.00     0.048 C 
HETATM   13  C   UNL     1      33.745  50.632  42.471  1.00  0.00     0.007 A 
HETATM   14  C   UNL     1      33.958  49.647  41.510  1.00  0.00     0.003 A 
HETATM   15  C   UNL     1      32.919  48.786  41.156  1.00  0.00     0.037 A 
ENDBRANCH   8   9
ENDBRANCH   7   8
ENDBRANCH   6   7
ENDBRANCH   3   6
ENDBRANCH   1   2
BRANCH   1  16
HETATM   16  S   UNL     1      25.608  49.041  39.469  1.00  0.00    -0.081 SA
BRANCH  16  17
HETATM   17  C   UNL     1      27.005  49.942  39.003  1.00  0.00     0.191 A 
HETATM   18  N   UNL     1      27.943  50.406  39.881  1.00  0.00    -0.312 N 
HETATM   19  C   UNL     1      28.057  50.086  41.280  1.00  0.00     0.160 C 
HETATM   20  C   UNL     1      28.793  51.199  39.136  1.00  0.00     0.164 A 
HETATM   21  N   UNL     1      28.427  51.114  37.868  1.00  0.00    -0.128 NA
HETATM   22  N   UNL     1      27.300  50.332  37.787  1.00  0.00    -0.122 NA
BRANCH  20  23
HETATM   23  C   UNL     1      29.905  51.997  39.660  1.00  0.00     0.018 A 
HETATM   24  C   UNL     1      31.241  51.740  39.287  1.00  0.00    -0.048 A 
HETATM   25  C   UNL     1      31.600  50.643  38.321  1.00  0.00     0.049 C 
HETATM   26  C   UNL     1      32.266  52.551  39.807  1.00  0.00     0.007 A 
HETATM   27  C   UNL     1      31.979  53.595  40.685  1.00  0.00     0.001 A 
HETATM   28  C   UNL     1      30.662  53.855  41.047  1.00  0.00     0.001 A 
HETATM   29  C   UNL     1      29.632  53.065  40.533  1.00  0.00     0.016 A 
ENDBRANCH  20  23
ENDBRANCH  16  17
ENDBRANCH   1  16
TORSDOF 8
ENDMDL
MODEL 3
REMARK VINA RESULT:      -8.3      2.099      3.820
REMARK  8 active torsions:
REMARK  status: ('A' for Active; 'I' for Inactive)
REMARK    1  A    between atoms: C_4  and  O_5 
REMARK    2  A    between atoms: O_5  and  C_6 
REMARK    3  A    between atoms: C_6  and  C_7 
REMARK    4  A    between atoms: C_7  and  N_8 
REMARK       I    between atoms: N_8  and  C_9 
REMARK    5  A    between atoms: C_9  and  C_10 
REMARK    6  A    between atoms: C_10  and  S_11 
REMARK    7  A    between atoms: S_11  and  C_12 
REMARK    8  A    between atoms: C_15  and  C_16 
ROOT
HETATM    1  C   UNL     1      23.978  45.394  50.317  1.00  0.00     0.185 C 
ENDROOT
BRANCH   1   2
HETATM    2  C   UNL     1      24.869  46.461  49.690  1.00  0.00     0.227 C 
HETATM    3  N   UNL     1      24.196  47.654  49.466  1.00  0.00    -0.358 N 
HETATM    4  H   UNL     1      23.329  47.805  49.967  1.00  0.00     0.162 HD
HETATM    5  O   UNL     1      26.041  46.292  49.367  1.00  0.00    -0.273 OA
BRANCH   3   6
HETATM    6  C   UNL     1      24.878  48.826  48.941  1.00  0.00     0.149 C 
BRANCH   6   7
HETATM    7  C   UNL     1      23.926  50.000  48.706  1.00  0.00     0.195 C 
BRANCH   7   8
HETATM    8  O   UNL     1      22.719  49.492  48.142  1.00  0.00    -0.350 OA
BRANCH   8   9
HETATM    9  C   UNL     1      21.539  49.906  48.698  1.00  0.00     0.069 A 
HETATM   10  C   UNL     1      20.720  49.160  49.546  1.00  0.00     0.043 A 
HETATM   11  C   UNL     1      19.524  49.705  50.045  1.00  0.00    -0.059 A 
HETATM   12  C   UNL     1      18.642  48.917  50.968  1.00  0.00     0.048 C 
HETATM   13  C   UNL     1      19.168  51.013  49.696  1.00  0.00     0.007 A 
HETATM   14  C   UNL     1      19.985  51.762  48.852  1.00  0.00     0.003 A 
HETATM   15  C   UNL     1      21.165  51.208  48.356  1.00  0.00     0.037 A 
ENDBRANCH   8   9
ENDBRANCH   7   8
ENDBRANCH   6   7
ENDBRANCH   3   6
ENDBRANCH   1   2
BRANCH   1  16
HETATM   16  S   UNL     1      24.850  43.826  50.573  1.00  0.00    -0.081 SA
BRANCH  16  17
HETATM   17  C   UNL     1      25.556  44.122  52.121  1.00  0.00     0.191 A 
HETATM   18  N   UNL     1      26.902  44.187  52.347  1.00  0.00    -0.312 N 
HETATM   19  C   UNL     1      27.949  44.217  51.359  1.00  0.00     0.160 C 
HETATM   20  C   UNL     1      27.047  44.274  53.717  1.00  0.00     0.164 A 
HETATM   21  N   UNL     1      25.841  44.362  54.253  1.00  0.00    -0.128 NA
HETATM   22  N   UNL     1      24.906  44.258  53.251  1.00  0.00    -0.122 NA
BRANCH  20  23
HETATM   23  C   UNL     1      28.316  44.269  54.449  1.00  0.00     0.018 A 
HETATM   24  C   UNL     1      28.789  45.416  55.121  1.00  0.00    -0.048 A 
HETATM   25  C   UNL     1      28.012  46.705  55.136  1.00  0.00     0.049 C 
HETATM   26  C   UNL     1      30.005  45.346  55.824  1.00  0.00     0.007 A 
HETATM   27  C   UNL     1      30.746  44.166  55.861  1.00  0.00     0.001 A 
HETATM   28  C   UNL     1      30.278  43.032  55.206  1.00  0.00     0.001 A 
HETATM   29  C   UNL     1      29.068  43.082  54.511  1.00  0.00     0.016 A 
ENDBRANCH  20  23
ENDBRANCH  16  17
ENDBRANCH   1  16
TORSDOF 8
ENDMDL
MODEL 4
REMARK VINA RESULT:      -8.1      2.675      8.046
REMARK  8 active torsions:
REMARK  status: ('A' for Active; 'I' for Inactive)
REMARK    1  A    between atoms: C_4  and  O_5 
REMARK    2  A    between atoms: O_5  and  C_6 
REMARK    3  A    between atoms: C_6  and  C_7 
REMARK    4  A    between atoms: C_7  and  N_8 
REMARK       I    between atoms: N_8  and  C_9 
REMARK    5  A    between atoms: C_9  and  C_10 
REMARK    6  A    between atoms: C_10  and  S_11 
REMARK    7  A    between atoms: S_11  and  C_12 
REMARK    8  A    between atoms: C_15  and  C_16 
ROOT
HETATM    1  C   UNL     1      24.408  43.381  50.777  1.00  0.00     0.185 C 
ENDROOT
BRANCH   1   2
HETATM    2  C   UNL     1      25.065  43.634  52.130  1.00  0.00     0.227 C 
HETATM    3  N   UNL     1      26.265  42.952  52.276  1.00  0.00    -0.358 N 
HETATM    4  H   UNL     1      26.716  42.612  51.436  1.00  0.00     0.162 HD
HETATM    5  O   UNL     1      24.581  44.323  53.024  1.00  0.00    -0.273 OA
BRANCH   3   6
HETATM    6  C   UNL     1      27.090  43.110  53.463  1.00  0.00     0.149 C 
BRANCH   6   7
HETATM    7  C   UNL     1      28.095  44.256  53.327  1.00  0.00     0.195 C 
BRANCH   7   8
HETATM    8  O   UNL     1      29.388  43.760  53.671  1.00  0.00    -0.350 OA
BRANCH   8   9
HETATM    9  C   UNL     1      29.856  44.036  54.927  1.00  0.00     0.069 A 
HETATM   10  C   UNL     1      29.395  45.044  55.776  1.00  0.00     0.043 A 
HETATM   11  C   UNL     1      29.971  45.225  57.045  1.00  0.00    -0.059 A 
HETATM   12  C   UNL     1      29.476  46.296  57.972  1.00  0.00     0.048 C 
HETATM   13  C   UNL     1      31.003  44.374  57.459  1.00  0.00     0.007 A 
HETATM   14  C   UNL     1      31.463  43.366  56.615  1.00  0.00     0.003 A 
HETATM   15  C   UNL     1      30.890  43.201  55.354  1.00  0.00     0.037 A 
ENDBRANCH   8   9
ENDBRANCH   7   8
ENDBRANCH   6   7
ENDBRANCH   3   6
ENDBRANCH   1   2
BRANCH   1  16
HETATM   16  S   UNL     1      25.276  44.212  49.419  1.00  0.00    -0.081 SA
BRANCH  16  17
HETATM   17  C   UNL     1      24.907  45.858  49.786  1.00  0.00     0.191 A 
HETATM   18  N   UNL     1      23.903  46.567  49.192  1.00  0.00    -0.312 N 
HETATM   19  C   UNL     1      22.872  46.055  48.326  1.00  0.00     0.160 C 
HETATM   20  C   UNL     1      24.046  47.865  49.638  1.00  0.00     0.164 A 
HETATM   21  N   UNL     1      25.022  47.887  50.531  1.00  0.00    -0.128 NA
HETATM   22  N   UNL     1      25.567  46.629  50.616  1.00  0.00    -0.122 NA
BRANCH  20  23
HETATM   23  C   UNL     1      23.255  49.018  49.199  1.00  0.00     0.018 A 
HETATM   24  C   UNL     1      23.817  50.047  48.414  1.00  0.00    -0.048 A 
HETATM   25  C   UNL     1      25.256  50.014  47.972  1.00  0.00     0.049 C 
HETATM   26  C   UNL     1      23.005  51.119  48.005  1.00  0.00     0.007 A 
HETATM   27  C   UNL     1      21.660  51.180  48.368  1.00  0.00     0.001 A 
HETATM   28  C   UNL     1      21.102  50.163  49.134  1.00  0.00     0.001 A 
HETATM   29  C   UNL     1      21.893  49.086  49.541  1.00  0.00     0.016 A 
ENDBRANCH  20  23
ENDBRANCH  16  17
ENDBRANCH   1  16
TORSDOF 8
ENDMDL
MODEL 5
REMARK VINA RESULT:      -8.1      3.085      8.693
REMARK  8 active torsions:
REMARK  status: ('A' for Active; 'I' for Inactive)
REMARK    1  A    between atoms: C_4  and  O_5 
REMARK    2  A    between atoms: O_5  and  C_6 
REMARK    3  A    between atoms: C_6  and  C_7 
REMARK    4  A    between atoms: C_7  and  N_8 
REMARK       I    between atoms: N_8  and  C_9 
REMARK    5  A    between atoms: C_9  and  C_10 
REMARK    6  A    between atoms: C_10  and  S_11 
REMARK    7  A    between atoms: S_11  and  C_12 
REMARK    8  A    between atoms: C_15  and  C_16 
ROOT
HETATM    1  C   UNL     1      23.895  45.620  49.458  1.00  0.00     0.185 C 
ENDROOT
BRANCH   1   2
HETATM    2  C   UNL     1      24.987  44.849  50.192  1.00  0.00     0.227 C 
HETATM    3  N   UNL     1      24.724  44.712  51.547  1.00  0.00    -0.358 N 
HETATM    4  H   UNL     1      23.771  44.858  51.857  1.00  0.00     0.162 HD
HETATM    5  O   UNL     1      26.017  44.428  49.671  1.00  0.00    -0.273 OA
BRANCH   3   6
HETATM    6  C   UNL     1      25.602  43.948  52.419  1.00  0.00     0.149 C 
BRANCH   6   7
HETATM    7  C   UNL     1      26.699  44.811  53.046  1.00  0.00     0.195 C 
BRANCH   7   8
HETATM    8  O   UNL     1      27.939  44.119  52.922  1.00  0.00    -0.350 OA
BRANCH   8   9
HETATM    9  C   UNL     1      28.804  44.181  53.981  1.00  0.00     0.069 A 
HETATM   10  C   UNL     1      28.758  45.099  55.031  1.00  0.00     0.043 A 
HETATM   11  C   UNL     1      29.717  45.057  56.058  1.00  0.00    -0.059 A 
HETATM   12  C   UNL     1      29.670  46.030  57.199  1.00  0.00     0.048 C 
HETATM   13  C   UNL     1      30.714  44.073  56.026  1.00  0.00     0.007 A 
HETATM   14  C   UNL     1      30.761  43.154  54.981  1.00  0.00     0.003 A 
HETATM   15  C   UNL     1      29.809  43.211  53.963  1.00  0.00     0.037 A 
ENDBRANCH   8   9
ENDBRANCH   7   8
ENDBRANCH   6   7
ENDBRANCH   3   6
ENDBRANCH   1   2
BRANCH   1  16
HETATM   16  S   UNL     1      24.141  47.414  49.538  1.00  0.00    -0.081 SA
BRANCH  16  17
HETATM   17  C   UNL     1      22.576  47.957  49.051  1.00  0.00     0.191 A 
HETATM   18  N   UNL     1      22.116  49.229  49.237  1.00  0.00    -0.312 N 
HETATM   19  C   UNL     1      22.874  50.372  49.675  1.00  0.00     0.160 C 
HETATM   20  C   UNL     1      20.787  49.205  48.863  1.00  0.00     0.164 A 
HETATM   21  N   UNL     1      20.517  48.002  48.383  1.00  0.00    -0.128 NA
HETATM   22  N   UNL     1      21.638  47.217  48.510  1.00  0.00    -0.122 NA
BRANCH  20  23
HETATM   23  C   UNL     1      19.841  50.318  48.978  1.00  0.00     0.018 A 
HETATM   24  C   UNL     1      18.823  50.328  49.955  1.00  0.00    -0.048 A 
HETATM   25  C   UNL     1      18.659  49.203  50.943  1.00  0.00     0.049 C 
HETATM   26  C   UNL     1      17.956  51.432  50.032  1.00  0.00     0.007 A 
HETATM   27  C   UNL     1      18.086  52.508  49.155  1.00  0.00     0.001 A 
HETATM   28  C   UNL     1      19.093  52.504  48.197  1.00  0.00     0.001 A 
HETATM   29  C   UNL     1      19.969  51.420  48.114  1.00  0.00     0.016 A 
ENDBRANCH  20  23
ENDBRANCH  16  17
ENDBRANCH   1  16
TORSDOF 8
ENDMDL
MODEL 6
REMARK VINA RESULT:      -8.1      2.919      8.277
REMARK  8 active torsions:
REMARK  status: ('A' for Active; 'I' for Inactive)
REMARK    1  A    between atoms: C_4  and  O_5 
REMARK    2  A    between atoms: O_5  and  C_6 
REMARK    3  A    between atoms: C_6  and  C_7 
REMARK    4  A    between atoms: C_7  and  N_8 
REMARK       I    between atoms: N_8  and  C_9 
REMARK    5  A    between atoms: C_9  and  C_10 
REMARK    6  A    between atoms: C_10  and  S_11 
REMARK    7  A    between atoms: S_11  and  C_12 
REMARK    8  A    between atoms: C_15  and  C_16 
ROOT
HETATM    1  C   UNL     1      23.188  44.972  49.549  1.00  0.00     0.185 C 
ENDROOT
BRANCH   1   2
HETATM    2  C   UNL     1      24.648  45.260  49.883  1.00  0.00     0.227 C 
HETATM    3  N   UNL     1      24.790  46.057  51.010  1.00  0.00    -0.358 N 
HETATM    4  H   UNL     1      23.998  46.129  51.637  1.00  0.00     0.162 HD
HETATM    5  O   UNL     1      25.606  44.878  49.216  1.00  0.00    -0.273 OA
BRANCH   3   6
HETATM    6  C   UNL     1      26.100  46.391  51.544  1.00  0.00     0.149 C 
BRANCH   6   7
HETATM    7  C   UNL     1      26.302  45.865  52.967  1.00  0.00     0.195 C 
BRANCH   7   8
HETATM    8  O   UNL     1      26.599  44.472  52.891  1.00  0.00    -0.350 OA
BRANCH   8   9
HETATM    9  C   UNL     1      27.833  44.065  53.320  1.00  0.00     0.069 A 
HETATM   10  C   UNL     1      28.473  44.471  54.493  1.00  0.00     0.043 A 
HETATM   11  C   UNL     1      29.751  43.979  54.814  1.00  0.00    -0.059 A 
HETATM   12  C   UNL     1      30.443  44.397  56.078  1.00  0.00     0.048 C 
HETATM   13  C   UNL     1      30.371  43.065  53.954  1.00  0.00     0.007 A 
HETATM   14  C   UNL     1      29.733  42.657  52.785  1.00  0.00     0.003 A 
HETATM   15  C   UNL     1      28.470  43.158  52.471  1.00  0.00     0.037 A 
ENDBRANCH   8   9
ENDBRANCH   7   8
ENDBRANCH   6   7
ENDBRANCH   3   6
ENDBRANCH   1   2
BRANCH   1  16
HETATM   16  S   UNL     1      22.635  45.843  48.058  1.00  0.00    -0.081 SA
BRANCH  16  17
HETATM   17  C   UNL     1      22.242  47.382  48.734  1.00  0.00     0.191 A 
HETATM   18  N   UNL     1      21.018  47.978  48.618  1.00  0.00    -0.312 N 
HETATM   19  C   UNL     1      19.809  47.387  48.106  1.00  0.00     0.160 C 
HETATM   20  C   UNL     1      21.167  49.244  49.147  1.00  0.00     0.164 A 
HETATM   21  N   UNL     1      22.390  49.341  49.642  1.00  0.00    -0.128 NA
HETATM   22  N   UNL     1      23.067  48.175  49.374  1.00  0.00    -0.122 NA
BRANCH  20  23
HETATM   23  C   UNL     1      20.148  50.297  49.157  1.00  0.00     0.018 A 
HETATM   24  C   UNL     1      19.056  50.263  50.049  1.00  0.00    -0.048 A 
HETATM   25  C   UNL     1      18.882  49.152  51.051  1.00  0.00     0.049 C 
HETATM   26  C   UNL     1      18.119  51.311  50.028  1.00  0.00     0.007 A 
HETATM   27  C   UNL     1      18.253  52.375  49.135  1.00  0.00     0.001 A 
HETATM   28  C   UNL     1      19.333  52.414  48.261  1.00  0.00     0.001 A 
HETATM   29  C   UNL     1      20.277  51.386  48.276  1.00  0.00     0.016 A 
ENDBRANCH  20  23
ENDBRANCH  16  17
ENDBRANCH   1  16
TORSDOF 8
ENDMDL
MODEL 7
REMARK VINA RESULT:      -8.0      2.470      3.840
REMARK  8 active torsions:
REMARK  status: ('A' for Active; 'I' for Inactive)
REMARK    1  A    between atoms: C_4  and  O_5 
REMARK    2  A    between atoms: O_5  and  C_6 
REMARK    3  A    between atoms: C_6  and  C_7 
REMARK    4  A    between atoms: C_7  and  N_8 
REMARK       I    between atoms: N_8  and  C_9 
REMARK    5  A    between atoms: C_9  and  C_10 
REMARK    6  A    between atoms: C_10  and  S_11 
REMARK    7  A    between atoms: S_11  and  C_12 
REMARK    8  A    between atoms: C_15  and  C_16 
ROOT
HETATM    1  C   UNL     1      22.536  44.199  49.673  1.00  0.00     0.185 C 
ENDROOT
BRANCH   1   2
HETATM    2  C   UNL     1      21.598  44.730  48.594  1.00  0.00     0.227 C 
HETATM    3  N   UNL     1      20.640  45.598  49.100  1.00  0.00    -0.358 N 
HETATM    4  H   UNL     1      20.811  46.007  50.010  1.00  0.00     0.162 HD
HETATM    5  O   UNL     1      21.637  44.403  47.411  1.00  0.00    -0.273 OA
BRANCH   3   6
HETATM    6  C   UNL     1      19.691  46.274  48.230  1.00  0.00     0.149 C 
BRANCH   6   7
HETATM    7  C   UNL     1      18.831  47.291  48.982  1.00  0.00     0.195 C 
BRANCH   7   8
HETATM    8  O   UNL     1      19.699  48.202  49.653  1.00  0.00    -0.350 OA
BRANCH   8   9
HETATM    9  C   UNL     1      19.530  49.537  49.400  1.00  0.00     0.069 A 
HETATM   10  C   UNL     1      18.437  50.317  49.779  1.00  0.00     0.043 A 
HETATM   11  C   UNL     1      18.386  51.682  49.448  1.00  0.00    -0.059 A 
HETATM   12  C   UNL     1      17.222  52.534  49.862  1.00  0.00     0.048 C 
HETATM   13  C   UNL     1      19.451  52.258  48.746  1.00  0.00     0.007 A 
HETATM   14  C   UNL     1      20.545  51.483  48.369  1.00  0.00     0.003 A 
HETATM   15  C   UNL     1      20.581  50.128  48.695  1.00  0.00     0.037 A 
ENDBRANCH   8   9
ENDBRANCH   7   8
ENDBRANCH   6   7
ENDBRANCH   3   6
ENDBRANCH   1   2
BRANCH   1  16
HETATM   16  S   UNL     1      24.260  44.681  49.390  1.00  0.00    -0.081 SA
BRANCH  16  17
HETATM   17  C   UNL     1      24.883  44.532  50.993  1.00  0.00     0.191 A 
HETATM   18  N   UNL     1      26.214  44.470  51.293  1.00  0.00    -0.312 N 
HETATM   19  C   UNL     1      27.318  44.702  50.398  1.00  0.00     0.160 C 
HETATM   20  C   UNL     1      26.281  44.194  52.644  1.00  0.00     0.164 A 
HETATM   21  N   UNL     1      25.049  44.201  53.126  1.00  0.00    -0.128 NA
HETATM   22  N   UNL     1      24.172  44.404  52.087  1.00  0.00    -0.122 NA
BRANCH  20  23
HETATM   23  C   UNL     1      27.504  43.937  53.410  1.00  0.00     0.018 A 
HETATM   24  C   UNL     1      28.071  44.918  54.251  1.00  0.00    -0.048 A 
HETATM   25  C   UNL     1      27.447  46.277  54.421  1.00  0.00     0.049 C 
HETATM   26  C   UNL     1      29.235  44.608  54.977  1.00  0.00     0.007 A 
HETATM   27  C   UNL     1      29.834  43.353  54.872  1.00  0.00     0.001 A 
HETATM   28  C   UNL     1      29.272  42.383  54.050  1.00  0.00     0.001 A 
HETATM   29  C   UNL     1      28.111  42.671  53.329  1.00  0.00     0.016 A 
ENDBRANCH  20  23
ENDBRANCH  16  17
ENDBRANCH   1  16
TORSDOF 8
ENDMDL
MODEL 8
REMARK VINA RESULT:      -8.0      2.049      3.326
REMARK  8 active torsions:
REMARK  status: ('A' for Active; 'I' for Inactive)
REMARK    1  A    between atoms: C_4  and  O_5 
REMARK    2  A    between atoms: O_5  and  C_6 
REMARK    3  A    between atoms: C_6  and  C_7 
REMARK    4  A    between atoms: C_7  and  N_8 
REMARK       I    between atoms: N_8  and  C_9 
REMARK    5  A    between atoms: C_9  and  C_10 
REMARK    6  A    between atoms: C_10  and  S_11 
REMARK    7  A    between atoms: S_11  and  C_12 
REMARK    8  A    between atoms: C_15  and  C_16 
ROOT
HETATM    1  C   UNL     1      24.223  43.059  50.856  1.00  0.00     0.185 C 
ENDROOT
BRANCH   1   2
HETATM    2  C   UNL     1      23.384  43.374  49.622  1.00  0.00     0.227 C 
HETATM    3  N   UNL     1      23.516  44.693  49.210  1.00  0.00    -0.358 N 
HETATM    4  H   UNL     1      24.316  45.213  49.549  1.00  0.00     0.162 HD
HETATM    5  O   UNL     1      22.632  42.579  49.066  1.00  0.00    -0.273 OA
BRANCH   3   6
HETATM    6  C   UNL     1      22.857  45.184  48.010  1.00  0.00     0.149 C 
BRANCH   6   7
HETATM    7  C   UNL     1      21.926  46.364  48.297  1.00  0.00     0.195 C 
BRANCH   7   8
HETATM    8  O   UNL     1      22.212  47.399  47.358  1.00  0.00    -0.350 OA
BRANCH   8   9
HETATM    9  C   UNL     1      22.231  48.686  47.824  1.00  0.00     0.069 A 
HETATM   10  C   UNL     1      21.127  49.529  47.961  1.00  0.00     0.043 A 
HETATM   11  C   UNL     1      21.286  50.838  48.448  1.00  0.00    -0.059 A 
HETATM   12  C   UNL     1      20.106  51.749  48.613  1.00  0.00     0.048 C 
HETATM   13  C   UNL     1      22.563  51.285  48.811  1.00  0.00     0.007 A 
HETATM   14  C   UNL     1      23.665  50.445  48.678  1.00  0.00     0.003 A 
HETATM   15  C   UNL     1      23.497  49.151  48.185  1.00  0.00     0.037 A 
ENDBRANCH   8   9
ENDBRANCH   7   8
ENDBRANCH   6   7
ENDBRANCH   3   6
ENDBRANCH   1   2
BRANCH   1  16
HETATM   16  S   UNL     1      24.494  44.516  51.900  1.00  0.00    -0.081 SA
BRANCH  16  17
HETATM   17  C   UNL     1      26.177  44.337  52.239  1.00  0.00     0.191 A 
HETATM   18  N   UNL     1      26.694  44.210  53.497  1.00  0.00    -0.312 N 
HETATM   19  C   UNL     1      25.962  44.011  54.721  1.00  0.00     0.160 C 
HETATM   20  C   UNL     1      28.065  44.256  53.345  1.00  0.00     0.164 A 
HETATM   21  N   UNL     1      28.333  44.300  52.050  1.00  0.00    -0.128 NA
HETATM   22  N   UNL     1      27.148  44.360  51.358  1.00  0.00    -0.122 NA
BRANCH  20  23
HETATM   23  C   UNL     1      29.051  44.256  54.428  1.00  0.00     0.018 A 
HETATM   24  C   UNL     1      29.237  45.378  55.262  1.00  0.00    -0.048 A 
HETATM   25  C   UNL     1      28.424  46.635  55.096  1.00  0.00     0.049 C 
HETATM   26  C   UNL     1      30.185  45.314  56.299  1.00  0.00     0.007 A 
HETATM   27  C   UNL     1      30.942  44.162  56.508  1.00  0.00     0.001 A 
HETATM   28  C   UNL     1      30.756  43.052  55.692  1.00  0.00     0.001 A 
HETATM   29  C   UNL     1      29.812  43.096  54.664  1.00  0.00     0.016 A 
ENDBRANCH  20  23
ENDBRANCH  16  17
ENDBRANCH   1  16
TORSDOF 8
ENDMDL
MODEL 9
REMARK VINA RESULT:      -8.0      2.454      4.314
REMARK  8 active torsions:
REMARK  status: ('A' for Active; 'I' for Inactive)
REMARK    1  A    between atoms: C_4  and  O_5 
REMARK    2  A    between atoms: O_5  and  C_6 
REMARK    3  A    between atoms: C_6  and  C_7 
REMARK    4  A    between atoms: C_7  and  N_8 
REMARK       I    between atoms: N_8  and  C_9 
REMARK    5  A    between atoms: C_9  and  C_10 
REMARK    6  A    between atoms: C_10  and  S_11 
REMARK    7  A    between atoms: S_11  and  C_12 
REMARK    8  A    between atoms: C_15  and  C_16 
ROOT
HETATM    1  C   UNL     1      23.790  45.196  50.561  1.00  0.00     0.185 C 
ENDROOT
BRANCH   1   2
HETATM    2  C   UNL     1      24.447  46.408  49.910  1.00  0.00     0.227 C 
HETATM    3  N   UNL     1      23.531  47.394  49.571  1.00  0.00    -0.358 N 
HETATM    4  H   UNL     1      22.622  47.362  50.016  1.00  0.00     0.162 HD
HETATM    5  O   UNL     1      25.646  46.503  49.659  1.00  0.00    -0.273 OA
BRANCH   3   6
HETATM    6  C   UNL     1      23.955  48.663  49.004  1.00  0.00     0.149 C 
BRANCH   6   7
HETATM    7  C   UNL     1      22.949  49.785  49.266  1.00  0.00     0.195 C 
BRANCH   7   8
HETATM    8  O   UNL     1      21.634  49.254  49.110  1.00  0.00    -0.350 OA
BRANCH   8   9
HETATM    9  C   UNL     1      20.669  50.091  48.620  1.00  0.00     0.069 A 
HETATM   10  C   UNL     1      20.054  49.998  47.370  1.00  0.00     0.043 A 
HETATM   11  C   UNL     1      19.077  50.932  46.985  1.00  0.00    -0.059 A 
HETATM   12  C   UNL     1      18.400  50.834  45.650  1.00  0.00     0.048 C 
HETATM   13  C   UNL     1      18.713  51.950  47.874  1.00  0.00     0.007 A 
HETATM   14  C   UNL     1      19.322  52.044  49.123  1.00  0.00     0.003 A 
HETATM   15  C   UNL     1      20.297  51.117  49.491  1.00  0.00     0.037 A 
ENDBRANCH   8   9
ENDBRANCH   7   8
ENDBRANCH   6   7
ENDBRANCH   3   6
ENDBRANCH   1   2
BRANCH   1  16
HETATM   16  S   UNL     1      24.906  43.771  50.658  1.00  0.00    -0.081 SA
BRANCH  16  17
HETATM   17  C   UNL     1      25.603  44.036  52.215  1.00  0.00     0.191 A 
HETATM   18  N   UNL     1      26.945  44.157  52.441  1.00  0.00    -0.312 N 
HETATM   19  C   UNL     1      27.985  44.279  51.452  1.00  0.00     0.160 C 
HETATM   20  C   UNL     1      27.092  44.195  53.812  1.00  0.00     0.164 A 
HETATM   21  N   UNL     1      25.885  44.203  54.354  1.00  0.00    -0.128 NA
HETATM   22  N   UNL     1      24.952  44.094  53.351  1.00  0.00    -0.122 NA
BRANCH  20  23
HETATM   23  C   UNL     1      28.362  44.221  54.541  1.00  0.00     0.018 A 
HETATM   24  C   UNL     1      29.237  43.115  54.546  1.00  0.00    -0.048 A 
HETATM   25  C   UNL     1      28.923  41.849  53.793  1.00  0.00     0.049 C 
HETATM   26  C   UNL     1      30.453  43.204  55.247  1.00  0.00     0.007 A 
HETATM   27  C   UNL     1      30.799  44.365  55.938  1.00  0.00     0.001 A 
HETATM   28  C   UNL     1      29.942  45.459  55.928  1.00  0.00     0.001 A 
HETATM   29  C   UNL     1      28.735  45.390  55.229  1.00  0.00     0.016 A 
ENDBRANCH  20  23
ENDBRANCH  16  17
ENDBRANCH   1  16
TORSDOF 8
ENDMDL
MODEL 10
REMARK VINA RESULT:      -8.0      3.317      4.908
REMARK  8 active torsions:
REMARK  status: ('A' for Active; 'I' for Inactive)
REMARK    1  A    between atoms: C_4  and  O_5 
REMARK    2  A    between atoms: O_5  and  C_6 
REMARK    3  A    between atoms: C_6  and  C_7 
REMARK    4  A    between atoms: C_7  and  N_8 
REMARK       I    between atoms: N_8  and  C_9 
REMARK    5  A    between atoms: C_9  and  C_10 
REMARK    6  A    between atoms: C_10  and  S_11 
REMARK    7  A    between atoms: S_11  and  C_12 
REMARK    8  A    between atoms: C_15  and  C_16 
ROOT
HETATM    1  C   UNL     1      24.073  47.038  49.568  1.00  0.00     0.185 C 
ENDROOT
BRANCH   1   2
HETATM    2  C   UNL     1      22.884  47.642  48.828  1.00  0.00     0.227 C 
HETATM    3  N   UNL     1      22.243  48.628  49.563  1.00  0.00    -0.358 N 
HETATM    4  H   UNL     1      22.750  49.041  50.337  1.00  0.00     0.162 HD
HETATM    5  O   UNL     1      22.491  47.279  47.722  1.00  0.00    -0.273 OA
BRANCH   3   6
HETATM    6  C   UNL     1      21.129  49.384  49.014  1.00  0.00     0.149 C 
BRANCH   6   7
HETATM    7  C   UNL     1      20.867  50.681  49.781  1.00  0.00     0.195 C 
BRANCH   7   8
HETATM    8  O   UNL     1      20.484  51.686  48.844  1.00  0.00    -0.350 OA
BRANCH   8   9
HETATM    9  C   UNL     1      19.145  51.877  48.636  1.00  0.00     0.069 A 
HETATM   10  C   UNL     1      18.227  52.367  49.565  1.00  0.00     0.043 A 
HETATM   11  C   UNL     1      16.871  52.508  49.222  1.00  0.00    -0.059 A 
HETATM   12  C   UNL     1      15.877  53.046  50.209  1.00  0.00     0.048 C 
HETATM   13  C   UNL     1      16.451  52.167  47.931  1.00  0.00     0.007 A 
HETATM   14  C   UNL     1      17.365  51.680  47.000  1.00  0.00     0.003 A 
HETATM   15  C   UNL     1      18.706  51.536  47.354  1.00  0.00     0.037 A 
ENDBRANCH   8   9
ENDBRANCH   7   8
ENDBRANCH   6   7
ENDBRANCH   3   6
ENDBRANCH   1   2
BRANCH   1  16
HETATM   16  S   UNL     1      24.175  45.240  49.364  1.00  0.00    -0.081 SA
BRANCH  16  17
HETATM   17  C   UNL     1      24.830  44.797  50.899  1.00  0.00     0.191 A 
HETATM   18  N   UNL     1      26.165  44.666  51.151  1.00  0.00    -0.312 N 
HETATM   19  C   UNL     1      27.254  45.042  50.287  1.00  0.00     0.160 C 
HETATM   20  C   UNL     1      26.257  44.150  52.428  1.00  0.00     0.164 A 
HETATM   21  N   UNL     1      25.035  44.085  52.933  1.00  0.00    -0.128 NA
HETATM   22  N   UNL     1      24.140  44.483  51.969  1.00  0.00    -0.122 NA
BRANCH  20  23
HETATM   23  C   UNL     1      27.490  43.745  53.106  1.00  0.00     0.018 A 
HETATM   24  C   UNL     1      28.133  44.584  54.041  1.00  0.00    -0.048 A 
HETATM   25  C   UNL     1      27.581  45.936  54.406  1.00  0.00     0.049 C 
HETATM   26  C   UNL     1      29.304  44.133  54.676  1.00  0.00     0.007 A 
HETATM   27  C   UNL     1      29.838  42.878  54.389  1.00  0.00     0.001 A 
HETATM   28  C   UNL     1      29.203  42.046  53.474  1.00  0.00     0.001 A 
HETATM   29  C   UNL     1      28.034  42.474  52.842  1.00  0.00     0.016 A 
ENDBRANCH  20  23
ENDBRANCH  16  17
ENDBRANCH   1  16
TORSDOF 8
ENDMDL
