MODEL 1
REMARK VINA RESULT:      -9.1      0.000      0.000
REMARK  6 active torsions:
REMARK  status: ('A' for Active; 'I' for Inactive)
REMARK    1  A    between atoms: C_7  and  S_8 
REMARK    2  A    between atoms: S_8  and  C_9 
REMARK    3  A    between atoms: C_9  and  C_10 
REMARK    4  A    between atoms: C_18  and  C_19 
REMARK    5  A    between atoms: C_29  and  C_30 
REMARK    6  A    between atoms: C_30  and  O_31 
ROOT
HETATM    1  C   UNL     1      23.449  43.782  47.024  1.00  0.00     0.070 C 
HETATM    2  C   UNL     1      23.619  44.795  48.128  1.00  0.00     0.037 A 
HETATM    3  N   UNL     1      24.647  44.537  49.024  1.00  0.00    -0.192 N 
HETATM    4  C   UNL     1      24.950  45.342  50.058  1.00  0.00     0.726 A 
HETATM    5  N   UNL     1      24.193  46.457  50.293  1.00  0.00    -0.082 N 
HETATM    6  N   UNL     1      24.618  47.111  51.397  1.00  0.00    -0.128 NA
HETATM    7  C   UNL     1      25.690  46.374  51.728  1.00  0.00     0.226 A 
HETATM    8  N   UNL     1      25.910  45.272  50.940  1.00  0.00    -0.035 NA
HETATM    9  C   UNL     1      23.042  46.859  49.463  1.00  0.00     0.204 A 
HETATM   10  C   UNL     1      22.837  45.889  48.300  1.00  0.00     0.070 A 
HETATM   11  H   UNL     1      25.232  43.723  48.853  1.00  0.00     0.184 HD
ENDROOT
BRANCH   9  12
HETATM   12  C   UNL     1      23.194  48.313  48.995  1.00  0.00    -0.017 A 
HETATM   13  C   UNL     1      22.114  49.251  49.033  1.00  0.00    -0.017 A 
HETATM   14  C   UNL     1      22.331  50.556  48.515  1.00  0.00    -0.025 A 
HETATM   15  C   UNL     1      20.818  48.979  49.543  1.00  0.00     0.013 A 
HETATM   16  C   UNL     1      21.295  51.505  48.510  1.00  0.00     0.012 A 
HETATM   17  C   UNL     1      23.584  50.909  47.995  1.00  0.00     0.012 A 
HETATM   18  C   UNL     1      20.033  51.196  49.010  1.00  0.00     0.001 A 
HETATM   19  C   UNL     1      19.795  49.933  49.528  1.00  0.00     0.001 A 
HETATM   20  C   UNL     1      24.631  49.996  47.964  1.00  0.00     0.002 A 
HETATM   21  C   UNL     1      24.438  48.710  48.451  1.00  0.00     0.010 A 
ENDBRANCH   9  12
BRANCH  10  22
HETATM   22  C   UNL     1      21.787  46.231  47.323  1.00  0.00     0.293 C 
HETATM   23  O   UNL     1      22.006  46.547  46.163  1.00  0.00    -0.259 OA
BRANCH  22  24
HETATM   24  O   UNL     1      20.572  46.128  47.912  1.00  0.00    -0.323 OA
HETATM   25  C   UNL     1      19.974  44.840  47.753  1.00  0.00     0.213 C 
ENDBRANCH  22  24
ENDBRANCH  10  22
BRANCH   7  26
HETATM   26  S   UNL     1      26.790  46.783  53.011  1.00  0.00    -0.083 SA
BRANCH  26  27
HETATM   27  C   UNL     1      26.637  45.349  54.109  1.00  0.00     0.123 C 
BRANCH  27  28
HETATM   28  C   UNL     1      27.982  44.688  54.320  1.00  0.00    -0.027 A 
HETATM   29  C   UNL     1      28.870  45.071  55.339  1.00  0.00     0.041 A 
HETATM   30 CL   UNL     1      28.523  46.379  56.413  1.00  0.00    -0.084 Cl
HETATM   31  C   UNL     1      30.081  44.392  55.521  1.00  0.00     0.024 A 
HETATM   32  C   UNL     1      30.421  43.326  54.689  1.00  0.00     0.002 A 
HETATM   33  C   UNL     1      29.553  42.935  53.675  1.00  0.00     0.001 A 
HETATM   34  C   UNL     1      28.343  43.607  53.494  1.00  0.00     0.009 A 
ENDBRANCH  27  28
ENDBRANCH  26  27
ENDBRANCH   7  26
TORSDOF 6
ENDMDL
MODEL 2
REMARK VINA RESULT:      -8.6      6.414      8.043
REMARK  6 active torsions:
REMARK  status: ('A' for Active; 'I' for Inactive)
REMARK    1  A    between atoms: C_7  and  S_8 
REMARK    2  A    between atoms: S_8  and  C_9 
REMARK    3  A    between atoms: C_9  and  C_10 
REMARK    4  A    between atoms: C_18  and  C_19 
REMARK    5  A    between atoms: C_29  and  C_30 
REMARK    6  A    between atoms: C_30  and  O_31 
ROOT
HETATM    1  C   UNL     1      29.830  37.435  50.641  1.00  0.00     0.070 C 
HETATM    2  C   UNL     1      28.887  38.576  50.359  1.00  0.00     0.037 A 
HETATM    3  N   UNL     1      29.032  39.690  51.174  1.00  0.00    -0.192 N 
HETATM    4  C   UNL     1      28.286  40.802  51.052  1.00  0.00     0.726 A 
HETATM    5  N   UNL     1      27.292  40.851  50.114  1.00  0.00    -0.082 N 
HETATM    6  N   UNL     1      26.623  42.024  50.173  1.00  0.00    -0.128 NA
HETATM    7  C   UNL     1      27.327  42.666  51.118  1.00  0.00     0.226 A 
HETATM    8  N   UNL     1      28.340  41.938  51.691  1.00  0.00    -0.035 NA
HETATM    9  C   UNL     1      26.977  39.744  49.190  1.00  0.00     0.204 A 
HETATM   10  C   UNL     1      27.925  38.565  49.403  1.00  0.00     0.070 A 
HETATM   11  H   UNL     1      29.779  39.677  51.864  1.00  0.00     0.184 HD
ENDROOT
BRANCH   9  12
HETATM   12  C   UNL     1      26.969  40.238  47.737  1.00  0.00    -0.017 A 
HETATM   13  C   UNL     1      25.784  40.250  46.934  1.00  0.00    -0.017 A 
HETATM   14  C   UNL     1      25.888  40.660  45.579  1.00  0.00    -0.025 A 
HETATM   15  C   UNL     1      24.493  39.868  47.384  1.00  0.00     0.013 A 
HETATM   16  C   UNL     1      24.757  40.667  44.745  1.00  0.00     0.012 A 
HETATM   17  C   UNL     1      27.126  41.056  45.054  1.00  0.00     0.012 A 
HETATM   18  C   UNL     1      23.509  40.276  45.221  1.00  0.00     0.001 A 
HETATM   19  C   UNL     1      23.377  39.878  46.541  1.00  0.00     0.001 A 
HETATM   20  C   UNL     1      28.273  41.047  45.839  1.00  0.00     0.002 A 
HETATM   21  C   UNL     1      28.198  40.636  47.163  1.00  0.00     0.010 A 
ENDBRANCH   9  12
BRANCH  10  22
HETATM   22  C   UNL     1      27.797  37.429  48.471  1.00  0.00     0.293 C 
HETATM   23  O   UNL     1      28.502  37.266  47.486  1.00  0.00    -0.259 OA
BRANCH  22  24
HETATM   24  O   UNL     1      26.798  36.616  48.887  1.00  0.00    -0.323 OA
HETATM   25  C   UNL     1      25.828  36.346  47.872  1.00  0.00     0.213 C 
ENDBRANCH  22  24
ENDBRANCH  10  22
BRANCH   7  26
HETATM   26  S   UNL     1      27.057  44.324  51.572  1.00  0.00    -0.083 SA
BRANCH  26  27
HETATM   27  C   UNL     1      26.610  44.167  53.321  1.00  0.00     0.123 C 
BRANCH  27  28
HETATM   28  C   UNL     1      27.686  44.762  54.205  1.00  0.00    -0.027 A 
HETATM   29  C   UNL     1      27.602  46.058  54.742  1.00  0.00     0.041 A 
HETATM   30 CL   UNL     1      26.280  47.113  54.388  1.00  0.00    -0.084 Cl
HETATM   31  C   UNL     1      28.602  46.541  55.594  1.00  0.00     0.024 A 
HETATM   32  C   UNL     1      29.696  45.740  55.921  1.00  0.00     0.002 A 
HETATM   33  C   UNL     1      29.793  44.454  55.397  1.00  0.00     0.001 A 
HETATM   34  C   UNL     1      28.796  43.968  54.550  1.00  0.00     0.009 A 
ENDBRANCH  27  28
ENDBRANCH  26  27
ENDBRANCH   7  26
TORSDOF 6
ENDMDL
MODEL 3
REMARK VINA RESULT:      -8.6      1.686      2.361
REMARK  6 active torsions:
REMARK  status: ('A' for Active; 'I' for Inactive)
REMARK    1  A    between atoms: C_7  and  S_8 
REMARK    2  A    between atoms: S_8  and  C_9 
REMARK    3  A    between atoms: C_9  and  C_10 
REMARK    4  A    between atoms: C_18  and  C_19 
REMARK    5  A    between atoms: C_29  and  C_30 
REMARK    6  A    between atoms: C_30  and  O_31 
ROOT
HETATM    1  C   UNL     1      21.288  44.402  45.436  1.00  0.00     0.070 C 
HETATM    2  C   UNL     1      21.794  45.067  46.691  1.00  0.00     0.037 A 
HETATM    3  N   UNL     1      23.000  44.583  47.181  1.00  0.00    -0.192 N 
HETATM    4  C   UNL     1      23.604  45.070  48.279  1.00  0.00     0.726 A 
HETATM    5  N   UNL     1      23.000  46.063  49.000  1.00  0.00    -0.082 N 
HETATM    6  N   UNL     1      23.731  46.388  50.090  1.00  0.00    -0.128 NA
HETATM    7  C   UNL     1      24.805  45.603  49.914  1.00  0.00     0.226 A 
HETATM    8  N   UNL     1      24.750  44.769  48.825  1.00  0.00    -0.035 NA
HETATM    9  C   UNL     1      21.702  46.666  48.642  1.00  0.00     0.204 A 
HETATM   10  C   UNL     1      21.150  46.058  47.354  1.00  0.00     0.070 A 
HETATM   11  H   UNL     1      23.471  43.858  46.646  1.00  0.00     0.184 HD
ENDROOT
BRANCH   9  12
HETATM   12  C   UNL     1      21.817  48.195  48.568  1.00  0.00    -0.017 A 
HETATM   13  C   UNL     1      20.826  49.070  49.117  1.00  0.00    -0.017 A 
HETATM   14  C   UNL     1      20.985  50.470  48.939  1.00  0.00    -0.025 A 
HETATM   15  C   UNL     1      19.671  48.647  49.826  1.00  0.00     0.013 A 
HETATM   16  C   UNL     1      20.027  51.367  49.440  1.00  0.00     0.012 A 
HETATM   17  C   UNL     1      22.099  50.972  48.253  1.00  0.00     0.012 A 
HETATM   18  C   UNL     1      18.901  50.913  50.122  1.00  0.00     0.001 A 
HETATM   19  C   UNL     1      18.724  49.553  50.316  1.00  0.00     0.001 A 
HETATM   20  C   UNL     1      23.061  50.119  47.727  1.00  0.00     0.002 A 
HETATM   21  C   UNL     1      22.919  48.746  47.875  1.00  0.00     0.010 A 
ENDBRANCH   9  12
BRANCH  10  22
HETATM   22  C   UNL     1      19.908  46.645  46.818  1.00  0.00     0.293 C 
HETATM   23  O   UNL     1      19.867  47.414  45.869  1.00  0.00    -0.259 OA
BRANCH  22  24
HETATM   24  O   UNL     1      18.850  46.192  47.531  1.00  0.00    -0.323 OA
HETATM   25  C   UNL     1      17.994  45.324  46.785  1.00  0.00     0.213 C 
ENDBRANCH  22  24
ENDBRANCH  10  22
BRANCH   7  26
HETATM   26  S   UNL     1      26.219  45.651  50.926  1.00  0.00    -0.083 SA
BRANCH  26  27
HETATM   27  C   UNL     1      25.498  45.541  52.585  1.00  0.00     0.123 C 
BRANCH  27  28
HETATM   28  C   UNL     1      26.526  45.886  53.641  1.00  0.00    -0.027 A 
HETATM   29  C   UNL     1      27.291  44.915  54.309  1.00  0.00     0.041 A 
HETATM   30 CL   UNL     1      27.080  43.224  54.020  1.00  0.00    -0.084 Cl
HETATM   31  C   UNL     1      28.264  45.294  55.241  1.00  0.00     0.024 A 
HETATM   32  C   UNL     1      28.485  46.641  55.520  1.00  0.00     0.002 A 
HETATM   33  C   UNL     1      27.736  47.615  54.867  1.00  0.00     0.001 A 
HETATM   34  C   UNL     1      26.768  47.242  53.934  1.00  0.00     0.009 A 
ENDBRANCH  27  28
ENDBRANCH  26  27
ENDBRANCH   7  26
TORSDOF 6
ENDMDL
MODEL 4
REMARK VINA RESULT:      -8.2      3.798      5.381
REMARK  6 active torsions:
REMARK  status: ('A' for Active; 'I' for Inactive)
REMARK    1  A    between atoms: C_7  and  S_8 
REMARK    2  A    between atoms: S_8  and  C_9 
REMARK    3  A    between atoms: C_9  and  C_10 
REMARK    4  A    between atoms: C_18  and  C_19 
REMARK    5  A    between atoms: C_29  and  C_30 
REMARK    6  A    between atoms: C_30  and  O_31 
ROOT
HETATM    1  C   UNL     1      18.971  47.232  43.894  1.00  0.00     0.070 C 
HETATM    2  C   UNL     1      19.483  46.882  45.268  1.00  0.00     0.037 A 
HETATM    3  N   UNL     1      20.714  46.242  45.303  1.00  0.00    -0.192 N 
HETATM    4  C   UNL     1      21.327  45.872  46.442  1.00  0.00     0.726 A 
HETATM    5  N   UNL     1      20.707  46.084  47.643  1.00  0.00    -0.082 N 
HETATM    6  N   UNL     1      21.452  45.606  48.665  1.00  0.00    -0.128 NA
HETATM    7  C   UNL     1      22.546  45.194  48.007  1.00  0.00     0.226 A 
HETATM    8  N   UNL     1      22.494  45.324  46.642  1.00  0.00    -0.035 NA
HETATM    9  C   UNL     1      19.383  46.718  47.785  1.00  0.00     0.204 A 
HETATM   10  C   UNL     1      18.823  47.130  46.425  1.00  0.00     0.070 A 
HETATM   11  H   UNL     1      21.196  46.094  44.420  1.00  0.00     0.184 HD
ENDROOT
BRANCH   9  12
HETATM   12  C   UNL     1      19.449  47.891  48.774  1.00  0.00    -0.017 A 
HETATM   13  C   UNL     1      20.393  48.959  48.640  1.00  0.00    -0.017 A 
HETATM   14  C   UNL     1      20.424  49.964  49.643  1.00  0.00    -0.025 A 
HETATM   15  C   UNL     1      21.324  49.093  47.577  1.00  0.00     0.013 A 
HETATM   16  C   UNL     1      21.348  51.021  49.567  1.00  0.00     0.012 A 
HETATM   17  C   UNL     1      19.536  49.909  50.726  1.00  0.00     0.012 A 
HETATM   18  C   UNL     1      22.252  51.112  48.513  1.00  0.00     0.001 A 
HETATM   19  C   UNL     1      22.239  50.149  47.517  1.00  0.00     0.001 A 
HETATM   20  C   UNL     1      18.619  48.873  50.849  1.00  0.00     0.002 A 
HETATM   21  C   UNL     1      18.580  47.870  49.889  1.00  0.00     0.010 A 
ENDBRANCH   9  12
BRANCH  10  22
HETATM   22  C   UNL     1      17.551  47.878  46.427  1.00  0.00     0.293 C 
HETATM   23  O   UNL     1      16.472  47.395  46.735  1.00  0.00    -0.259 OA
BRANCH  22  24
HETATM   24  O   UNL     1      17.780  49.157  46.047  1.00  0.00    -0.323 OA
HETATM   25  C   UNL     1      17.212  50.121  46.937  1.00  0.00     0.213 C 
ENDBRANCH  22  24
ENDBRANCH  10  22
BRANCH   7  26
HETATM   26  S   UNL     1      23.980  44.593  48.788  1.00  0.00    -0.083 SA
BRANCH  26  27
HETATM   27  C   UNL     1      24.185  45.766  50.154  1.00  0.00     0.123 C 
BRANCH  27  28
HETATM   28  C   UNL     1      25.133  46.881  49.766  1.00  0.00    -0.027 A 
HETATM   29  C   UNL     1      26.527  46.713  49.715  1.00  0.00     0.041 A 
HETATM   30 CL   UNL     1      27.289  45.224  50.149  1.00  0.00    -0.084 Cl
HETATM   31  C   UNL     1      27.355  47.764  49.301  1.00  0.00     0.024 A 
HETATM   32  C   UNL     1      26.805  48.991  48.936  1.00  0.00     0.002 A 
HETATM   33  C   UNL     1      25.426  49.173  48.982  1.00  0.00     0.001 A 
HETATM   34  C   UNL     1      24.597  48.127  49.390  1.00  0.00     0.009 A 
ENDBRANCH  27  28
ENDBRANCH  26  27
ENDBRANCH   7  26
TORSDOF 6
ENDMDL
MODEL 5
REMARK VINA RESULT:      -8.1     19.944     22.726
REMARK  6 active torsions:
REMARK  status: ('A' for Active; 'I' for Inactive)
REMARK    1  A    between atoms: C_7  and  S_8 
REMARK    2  A    between atoms: S_8  and  C_9 
REMARK    3  A    between atoms: C_9  and  C_10 
REMARK    4  A    between atoms: C_18  and  C_19 
REMARK    5  A    between atoms: C_29  and  C_30 
REMARK    6  A    between atoms: C_30  and  O_31 
ROOT
HETATM    1  C   UNL     1      43.093  47.316  66.278  1.00  0.00     0.070 C 
HETATM    2  C   UNL     1      42.008  46.290  66.484  1.00  0.00     0.037 A 
HETATM    3  N   UNL     1      41.016  46.639  67.389  1.00  0.00    -0.192 N 
HETATM    4  C   UNL     1      39.966  45.851  67.681  1.00  0.00     0.726 A 
HETATM    5  N   UNL     1      39.868  44.614  67.106  1.00  0.00    -0.082 N 
HETATM    6  N   UNL     1      38.777  43.954  67.555  1.00  0.00    -0.128 NA
HETATM    7  C   UNL     1      38.220  44.892  68.337  1.00  0.00     0.226 A 
HETATM    8  N   UNL     1      38.933  46.058  68.452  1.00  0.00    -0.035 NA
HETATM    9  C   UNL     1      40.852  44.070  66.152  1.00  0.00     0.204 A 
HETATM   10  C   UNL     1      41.963  45.080  65.873  1.00  0.00     0.070 A 
HETATM   11  H   UNL     1      41.064  47.564  67.810  1.00  0.00     0.184 HD
ENDROOT
BRANCH   9  12
HETATM   12  C   UNL     1      40.155  43.592  64.870  1.00  0.00    -0.017 A 
HETATM   13  C   UNL     1      40.043  42.208  64.524  1.00  0.00    -0.017 A 
HETATM   14  C   UNL     1      39.442  41.866  63.283  1.00  0.00    -0.025 A 
HETATM   15  C   UNL     1      40.500  41.130  65.326  1.00  0.00     0.013 A 
HETATM   16  C   UNL     1      39.329  40.522  62.890  1.00  0.00     0.012 A 
HETATM   17  C   UNL     1      38.961  42.870  62.432  1.00  0.00     0.012 A 
HETATM   18  C   UNL     1      39.800  39.493  63.701  1.00  0.00     0.001 A 
HETATM   19  C   UNL     1      40.384  39.797  64.920  1.00  0.00     0.001 A 
HETATM   20  C   UNL     1      39.068  44.212  62.774  1.00  0.00     0.002 A 
HETATM   21  C   UNL     1      39.665  44.571  63.975  1.00  0.00     0.010 A 
ENDBRANCH   9  12
BRANCH  10  22
HETATM   22  C   UNL     1      42.959  44.711  64.850  1.00  0.00     0.293 C 
HETATM   23  O   UNL     1      43.077  45.275  63.773  1.00  0.00    -0.259 OA
BRANCH  22  24
HETATM   24  O   UNL     1      43.705  43.675  65.300  1.00  0.00    -0.323 OA
HETATM   25  C   UNL     1      44.967  44.078  65.838  1.00  0.00     0.213 C 
ENDBRANCH  22  24
ENDBRANCH  10  22
BRANCH   7  26
HETATM   26  S   UNL     1      36.675  44.714  69.116  1.00  0.00    -0.083 SA
BRANCH  26  27
HETATM   27  C   UNL     1      35.561  44.513  67.701  1.00  0.00     0.123 C 
BRANCH  27  28
HETATM   28  C   UNL     1      35.872  45.529  66.624  1.00  0.00    -0.027 A 
HETATM   29  C   UNL     1      36.182  45.170  65.302  1.00  0.00     0.041 A 
HETATM   30 CL   UNL     1      36.293  43.520  64.802  1.00  0.00    -0.084 Cl
HETATM   31  C   UNL     1      36.413  46.154  64.333  1.00  0.00     0.024 A 
HETATM   32  C   UNL     1      36.338  47.505  64.669  1.00  0.00     0.002 A 
HETATM   33  C   UNL     1      36.032  47.877  65.975  1.00  0.00     0.001 A 
HETATM   34  C   UNL     1      35.797  46.899  66.943  1.00  0.00     0.009 A 
ENDBRANCH  27  28
ENDBRANCH  26  27
ENDBRANCH   7  26
TORSDOF 6
ENDMDL
MODEL 6
REMARK VINA RESULT:      -8.1      4.785      8.516
REMARK  6 active torsions:
REMARK  status: ('A' for Active; 'I' for Inactive)
REMARK    1  A    between atoms: C_7  and  S_8 
REMARK    2  A    between atoms: S_8  and  C_9 
REMARK    3  A    between atoms: C_9  and  C_10 
REMARK    4  A    between atoms: C_18  and  C_19 
REMARK    5  A    between atoms: C_29  and  C_30 
REMARK    6  A    between atoms: C_30  and  O_31 
ROOT
HETATM    1  C   UNL     1      22.999  43.999  50.161  1.00  0.00     0.070 C 
HETATM    2  C   UNL     1      22.457  44.945  49.119  1.00  0.00     0.037 A 
HETATM    3  N   UNL     1      21.318  44.514  48.453  1.00  0.00    -0.192 N 
HETATM    4  C   UNL     1      20.693  45.236  47.506  1.00  0.00     0.726 A 
HETATM    5  N   UNL     1      21.210  46.444  47.125  1.00  0.00    -0.082 N 
HETATM    6  N   UNL     1      20.476  46.997  46.134  1.00  0.00    -0.128 NA
HETATM    7  C   UNL     1      19.483  46.101  46.028  1.00  0.00     0.226 A 
HETATM    8  N   UNL     1      19.596  45.001  46.840  1.00  0.00    -0.035 NA
HETATM    9  C   UNL     1      22.432  47.035  47.703  1.00  0.00     0.204 A 
HETATM   10  C   UNL     1      23.013  46.138  48.795  1.00  0.00     0.070 A 
HETATM   11  H   UNL     1      20.910  43.627  48.738  1.00  0.00     0.184 HD
ENDROOT
BRANCH   9  12
HETATM   12  C   UNL     1      22.161  48.463  48.197  1.00  0.00    -0.017 A 
HETATM   13  C   UNL     1      21.022  48.797  48.998  1.00  0.00    -0.017 A 
HETATM   14  C   UNL     1      20.817  50.157  49.350  1.00  0.00    -0.025 A 
HETATM   15  C   UNL     1      20.058  47.867  49.468  1.00  0.00     0.013 A 
HETATM   16  C   UNL     1      19.703  50.537  50.116  1.00  0.00     0.012 A 
HETATM   17  C   UNL     1      21.724  51.139  48.929  1.00  0.00     0.012 A 
HETATM   18  C   UNL     1      18.773  49.597  50.550  1.00  0.00     0.001 A 
HETATM   19  C   UNL     1      18.952  48.262  50.228  1.00  0.00     0.001 A 
HETATM   20  C   UNL     1      22.830  50.810  48.155  1.00  0.00     0.002 A 
HETATM   21  C   UNL     1      23.043  49.488  47.786  1.00  0.00     0.010 A 
ENDBRANCH   9  12
BRANCH  10  22
HETATM   22  C   UNL     1      24.176  46.659  49.537  1.00  0.00     0.293 C 
HETATM   23  O   UNL     1      24.103  47.478  50.440  1.00  0.00    -0.259 OA
BRANCH  22  24
HETATM   24  O   UNL     1      25.307  46.082  49.065  1.00  0.00    -0.323 OA
HETATM   25  C   UNL     1      26.491  46.541  49.720  1.00  0.00     0.213 C 
ENDBRANCH  22  24
ENDBRANCH  10  22
BRANCH   7  26
HETATM   26  S   UNL     1      18.095  46.307  44.999  1.00  0.00    -0.083 SA
BRANCH  26  27
HETATM   27  C   UNL     1      18.013  48.109  44.834  1.00  0.00     0.123 C 
BRANCH  27  28
HETATM   28  C   UNL     1      17.272  48.722  46.003  1.00  0.00    -0.027 A 
HETATM   29  C   UNL     1      17.719  49.874  46.672  1.00  0.00     0.041 A 
HETATM   30 CL   UNL     1      19.197  50.663  46.249  1.00  0.00    -0.084 Cl
HETATM   31  C   UNL     1      16.969  50.427  47.716  1.00  0.00     0.024 A 
HETATM   32  C   UNL     1      15.767  49.841  48.106  1.00  0.00     0.002 A 
HETATM   33  C   UNL     1      15.309  48.699  47.454  1.00  0.00     0.001 A 
HETATM   34  C   UNL     1      16.053  48.147  46.410  1.00  0.00     0.009 A 
ENDBRANCH  27  28
ENDBRANCH  26  27
ENDBRANCH   7  26
TORSDOF 6
ENDMDL
MODEL 7
REMARK VINA RESULT:      -8.0     13.831     15.432
REMARK  6 active torsions:
REMARK  status: ('A' for Active; 'I' for Inactive)
REMARK    1  A    between atoms: C_7  and  S_8 
REMARK    2  A    between atoms: S_8  and  C_9 
REMARK    3  A    between atoms: C_9  and  C_10 
REMARK    4  A    between atoms: C_18  and  C_19 
REMARK    5  A    between atoms: C_29  and  C_30 
REMARK    6  A    between atoms: C_30  and  O_31 
ROOT
HETATM    1  C   UNL     1      35.939  54.552  39.035  1.00  0.00     0.070 C 
HETATM    2  C   UNL     1      36.096  53.375  39.963  1.00  0.00     0.037 A 
HETATM    3  N   UNL     1      37.310  53.295  40.630  1.00  0.00    -0.192 N 
HETATM    4  C   UNL     1      37.614  52.321  41.506  1.00  0.00     0.726 A 
HETATM    5  N   UNL     1      36.716  51.315  41.738  1.00  0.00    -0.082 N 
HETATM    6  N   UNL     1      37.215  50.408  42.608  1.00  0.00    -0.128 NA
HETATM    7  C   UNL     1      38.388  50.980  42.921  1.00  0.00     0.226 A 
HETATM    8  N   UNL     1      38.672  52.142  42.248  1.00  0.00    -0.035 NA
HETATM    9  C   UNL     1      35.395  51.225  41.088  1.00  0.00     0.204 A 
HETATM   10  C   UNL     1      35.159  52.414  40.158  1.00  0.00     0.070 A 
HETATM   11  H   UNL     1      37.981  54.045  40.483  1.00  0.00     0.184 HD
ENDROOT
BRANCH   9  12
HETATM   12  C   UNL     1      34.286  51.071  42.137  1.00  0.00    -0.017 A 
HETATM   13  C   UNL     1      33.228  50.115  42.004  1.00  0.00    -0.017 A 
HETATM   14  C   UNL     1      32.208  50.092  42.992  1.00  0.00    -0.025 A 
HETATM   15  C   UNL     1      33.106  49.180  40.944  1.00  0.00     0.013 A 
HETATM   16  C   UNL     1      31.138  49.187  42.893  1.00  0.00     0.012 A 
HETATM   17  C   UNL     1      32.254  50.980  44.075  1.00  0.00     0.012 A 
HETATM   18  C   UNL     1      31.048  48.291  41.832  1.00  0.00     0.001 A 
HETATM   19  C   UNL     1      32.033  48.287  40.858  1.00  0.00     0.001 A 
HETATM   20  C   UNL     1      33.285  51.903  44.202  1.00  0.00     0.002 A 
HETATM   21  C   UNL     1      34.285  51.954  43.241  1.00  0.00     0.010 A 
ENDBRANCH   9  12
BRANCH  10  22
HETATM   22  C   UNL     1      33.831  52.511  39.524  1.00  0.00     0.293 C 
HETATM   23  O   UNL     1      32.952  53.278  39.888  1.00  0.00    -0.259 OA
BRANCH  22  24
HETATM   24  O   UNL     1      33.758  51.637  38.492  1.00  0.00    -0.323 OA
HETATM   25  C   UNL     1      32.418  51.290  38.139  1.00  0.00     0.213 C 
ENDBRANCH  22  24
ENDBRANCH  10  22
BRANCH   7  26
HETATM   26  S   UNL     1      39.474  50.367  44.133  1.00  0.00    -0.083 SA
BRANCH  26  27
HETATM   27  C   UNL     1      40.571  51.783  44.408  1.00  0.00     0.123 C 
BRANCH  27  28
HETATM   28  C   UNL     1      40.214  52.496  45.695  1.00  0.00    -0.027 A 
HETATM   29  C   UNL     1      41.177  53.072  46.541  1.00  0.00     0.041 A 
HETATM   30 CL   UNL     1      42.869  52.965  46.210  1.00  0.00    -0.084 Cl
HETATM   31  C   UNL     1      40.788  53.763  47.695  1.00  0.00     0.024 A 
HETATM   32  C   UNL     1      39.438  53.887  48.020  1.00  0.00     0.002 A 
HETATM   33  C   UNL     1      38.472  53.322  47.192  1.00  0.00     0.001 A 
HETATM   34  C   UNL     1      38.856  52.636  46.039  1.00  0.00     0.009 A 
ENDBRANCH  27  28
ENDBRANCH  26  27
ENDBRANCH   7  26
TORSDOF 6
ENDMDL
MODEL 8
REMARK VINA RESULT:      -8.0     11.437     13.925
REMARK  6 active torsions:
REMARK  status: ('A' for Active; 'I' for Inactive)
REMARK    1  A    between atoms: C_7  and  S_8 
REMARK    2  A    between atoms: S_8  and  C_9 
REMARK    3  A    between atoms: C_9  and  C_10 
REMARK    4  A    between atoms: C_18  and  C_19 
REMARK    5  A    between atoms: C_29  and  C_30 
REMARK    6  A    between atoms: C_30  and  O_31 
ROOT
HETATM    1  C   UNL     1      34.338  50.230  42.002  1.00  0.00     0.070 C 
HETATM    2  C   UNL     1      33.311  49.791  40.989  1.00  0.00     0.037 A 
HETATM    3  N   UNL     1      32.867  48.482  41.116  1.00  0.00    -0.192 N 
HETATM    4  C   UNL     1      31.942  47.930  40.309  1.00  0.00     0.726 A 
HETATM    5  N   UNL     1      31.428  48.658  39.272  1.00  0.00    -0.082 N 
HETATM    6  N   UNL     1      30.553  47.924  38.548  1.00  0.00    -0.128 NA
HETATM    7  C   UNL     1      30.530  46.788  39.261  1.00  0.00     0.226 A 
HETATM    8  N   UNL     1      31.384  46.751  40.335  1.00  0.00    -0.035 NA
HETATM    9  C   UNL     1      31.815  50.050  38.972  1.00  0.00     0.204 A 
HETATM   10  C   UNL     1      32.832  50.568  39.987  1.00  0.00     0.070 A 
HETATM   11  H   UNL     1      33.225  47.933  41.893  1.00  0.00     0.184 HD
ENDROOT
BRANCH   9  12
HETATM   12  C   UNL     1      30.574  50.947  38.872  1.00  0.00    -0.017 A 
HETATM   13  C   UNL     1      29.500  50.883  39.817  1.00  0.00    -0.017 A 
HETATM   14  C   UNL     1      28.361  51.705  39.603  1.00  0.00    -0.025 A 
HETATM   15  C   UNL     1      29.473  50.046  40.962  1.00  0.00     0.013 A 
HETATM   16  C   UNL     1      27.272  51.661  40.491  1.00  0.00     0.012 A 
HETATM   17  C   UNL     1      28.307  52.564  38.498  1.00  0.00     0.012 A 
HETATM   18  C   UNL     1      27.280  50.818  41.598  1.00  0.00     0.001 A 
HETATM   19  C   UNL     1      28.380  50.012  41.835  1.00  0.00     0.001 A 
HETATM   20  C   UNL     1      29.354  52.625  37.586  1.00  0.00     0.002 A 
HETATM   21  C   UNL     1      30.471  51.821  37.765  1.00  0.00     0.010 A 
ENDBRANCH   9  12
BRANCH  10  22
HETATM   22  C   UNL     1      33.225  51.985  39.873  1.00  0.00     0.293 C 
HETATM   23  O   UNL     1      32.775  52.880  40.572  1.00  0.00    -0.259 OA
BRANCH  22  24
HETATM   24  O   UNL     1      34.152  52.118  38.895  1.00  0.00    -0.323 OA
HETATM   25  C   UNL     1      35.423  52.563  39.377  1.00  0.00     0.213 C 
ENDBRANCH  22  24
ENDBRANCH  10  22
BRANCH   7  26
HETATM   26  S   UNL     1      29.463  45.455  38.929  1.00  0.00    -0.083 SA
BRANCH  26  27
HETATM   27  C   UNL     1      28.104  46.270  38.050  1.00  0.00     0.123 C 
BRANCH  27  28
HETATM   28  C   UNL     1      27.061  46.774  39.024  1.00  0.00    -0.027 A 
HETATM   29  C   UNL     1      26.461  48.040  38.913  1.00  0.00     0.041 A 
HETATM   30 CL   UNL     1      26.909  49.162  37.677  1.00  0.00    -0.084 Cl
HETATM   31  C   UNL     1      25.465  48.437  39.813  1.00  0.00     0.024 A 
HETATM   32  C   UNL     1      25.056  47.579  40.833  1.00  0.00     0.002 A 
HETATM   33  C   UNL     1      25.640  46.322  40.957  1.00  0.00     0.001 A 
HETATM   34  C   UNL     1      26.631  45.922  40.059  1.00  0.00     0.009 A 
ENDBRANCH  27  28
ENDBRANCH  26  27
ENDBRANCH   7  26
TORSDOF 6
ENDMDL
MODEL 9
REMARK VINA RESULT:      -7.9      7.425     10.709
REMARK  6 active torsions:
REMARK  status: ('A' for Active; 'I' for Inactive)
REMARK    1  A    between atoms: C_7  and  S_8 
REMARK    2  A    between atoms: S_8  and  C_9 
REMARK    3  A    between atoms: C_9  and  C_10 
REMARK    4  A    between atoms: C_18  and  C_19 
REMARK    5  A    between atoms: C_29  and  C_30 
REMARK    6  A    between atoms: C_30  and  O_31 
ROOT
HETATM    1  C   UNL     1      17.834  44.680  46.574  1.00  0.00     0.070 C 
HETATM    2  C   UNL     1      17.820  46.187  46.519  1.00  0.00     0.037 A 
HETATM    3  N   UNL     1      16.645  46.758  46.050  1.00  0.00    -0.192 N 
HETATM    4  C   UNL     1      16.453  48.086  45.950  1.00  0.00     0.726 A 
HETATM    5  N   UNL     1      17.468  48.943  46.276  1.00  0.00    -0.082 N 
HETATM    6  N   UNL     1      17.105  50.229  46.067  1.00  0.00    -0.128 NA
HETATM    7  C   UNL     1      15.827  50.070  45.693  1.00  0.00     0.226 A 
HETATM    8  N   UNL     1      15.401  48.770  45.591  1.00  0.00    -0.035 NA
HETATM    9  C   UNL     1      18.792  48.505  46.756  1.00  0.00     0.204 A 
HETATM   10  C   UNL     1      18.860  46.983  46.868  1.00  0.00     0.070 A 
HETATM   11  H   UNL     1      15.874  46.136  45.822  1.00  0.00     0.184 HD
ENDROOT
BRANCH   9  12
HETATM   12  C   UNL     1      19.150  49.209  48.072  1.00  0.00    -0.017 A 
HETATM   13  C   UNL     1      20.435  49.795  48.307  1.00  0.00    -0.017 A 
HETATM   14  C   UNL     1      20.696  50.364  49.582  1.00  0.00    -0.025 A 
HETATM   15  C   UNL     1      21.490  49.847  47.360  1.00  0.00     0.013 A 
HETATM   16  C   UNL     1      21.950  50.931  49.868  1.00  0.00     0.012 A 
HETATM   17  C   UNL     1      19.707  50.357  50.574  1.00  0.00     0.012 A 
HETATM   18  C   UNL     1      22.964  50.954  48.915  1.00  0.00     0.001 A 
HETATM   19  C   UNL     1      22.734  50.413  47.661  1.00  0.00     0.001 A 
HETATM   20  C   UNL     1      18.460  49.790  50.340  1.00  0.00     0.002 A 
HETATM   21  C   UNL     1      18.186  49.216  49.107  1.00  0.00     0.010 A 
ENDBRANCH   9  12
BRANCH  10  22
HETATM   22  C   UNL     1      20.093  46.411  47.442  1.00  0.00     0.293 C 
HETATM   23  O   UNL     1      20.191  46.006  48.590  1.00  0.00    -0.259 OA
BRANCH  22  24
HETATM   24  O   UNL     1      21.066  46.403  46.501  1.00  0.00    -0.323 OA
HETATM   25  C   UNL     1      22.025  45.359  46.688  1.00  0.00     0.213 C 
ENDBRANCH  22  24
ENDBRANCH  10  22
BRANCH   7  26
HETATM   26  S   UNL     1      14.728  51.389  45.410  1.00  0.00    -0.083 SA
BRANCH  26  27
HETATM   27  C   UNL     1      15.615  52.784  46.152  1.00  0.00     0.123 C 
BRANCH  27  28
HETATM   28  C   UNL     1      15.128  53.040  47.562  1.00  0.00    -0.027 A 
HETATM   29  C   UNL     1      14.182  54.031  47.876  1.00  0.00     0.041 A 
HETATM   30 CL   UNL     1      13.532  55.090  46.675  1.00  0.00    -0.084 Cl
HETATM   31  C   UNL     1      13.729  54.192  49.191  1.00  0.00     0.024 A 
HETATM   32  C   UNL     1      14.212  53.370  50.207  1.00  0.00     0.002 A 
HETATM   33  C   UNL     1      15.149  52.383  49.913  1.00  0.00     0.001 A 
HETATM   34  C   UNL     1      15.600  52.218  48.603  1.00  0.00     0.009 A 
ENDBRANCH  27  28
ENDBRANCH  26  27
ENDBRANCH   7  26
TORSDOF 6
ENDMDL
MODEL 10
REMARK VINA RESULT:      -7.9     10.700     12.625
REMARK  6 active torsions:
REMARK  status: ('A' for Active; 'I' for Inactive)
REMARK    1  A    between atoms: C_7  and  S_8 
REMARK    2  A    between atoms: S_8  and  C_9 
REMARK    3  A    between atoms: C_9  and  C_10 
REMARK    4  A    between atoms: C_18  and  C_19 
REMARK    5  A    between atoms: C_29  and  C_30 
REMARK    6  A    between atoms: C_30  and  O_31 
ROOT
HETATM    1  C   UNL     1      29.528  44.365  37.845  1.00  0.00     0.070 C 
HETATM    2  C   UNL     1      29.174  45.496  38.776  1.00  0.00     0.037 A 
HETATM    3  N   UNL     1      30.251  46.170  39.336  1.00  0.00    -0.192 N 
HETATM    4  C   UNL     1      30.120  47.212  40.176  1.00  0.00     0.726 A 
HETATM    5  N   UNL     1      28.871  47.624  40.553  1.00  0.00    -0.082 N 
HETATM    6  N   UNL     1      28.942  48.649  41.432  1.00  0.00    -0.128 NA
HETATM    7  C   UNL     1      30.267  48.853  41.473  1.00  0.00     0.226 A 
HETATM    8  N   UNL     1      31.019  47.978  40.730  1.00  0.00    -0.035 NA
HETATM    9  C   UNL     1      27.621  46.998  40.083  1.00  0.00     0.204 A 
HETATM   10  C   UNL     1      27.910  45.863  39.103  1.00  0.00     0.070 A 
HETATM   11  H   UNL     1      31.186  45.888  39.051  1.00  0.00     0.184 HD
ENDROOT
BRANCH   9  12
HETATM   12  C   UNL     1      26.675  48.055  39.495  1.00  0.00    -0.017 A 
HETATM   13  C   UNL     1      25.279  48.099  39.810  1.00  0.00    -0.017 A 
HETATM   14  C   UNL     1      24.469  49.071  39.164  1.00  0.00    -0.025 A 
HETATM   15  C   UNL     1      24.623  47.230  40.721  1.00  0.00     0.013 A 
HETATM   16  C   UNL     1      23.090  49.138  39.424  1.00  0.00     0.012 A 
HETATM   17  C   UNL     1      25.038  49.970  38.253  1.00  0.00     0.012 A 
HETATM   18  C   UNL     1      22.482  48.261  40.317  1.00  0.00     0.001 A 
HETATM   19  C   UNL     1      23.249  47.308  40.967  1.00  0.00     0.001 A 
HETATM   20  C   UNL     1      26.394  49.926  37.954  1.00  0.00     0.002 A 
HETATM   21  C   UNL     1      27.203  48.976  38.561  1.00  0.00     0.010 A 
ENDBRANCH   9  12
BRANCH  10  22
HETATM   22  C   UNL     1      26.747  45.218  38.466  1.00  0.00     0.293 C 
HETATM   23  O   UNL     1      26.005  44.429  39.031  1.00  0.00    -0.259 OA
BRANCH  22  24
HETATM   24  O   UNL     1      26.638  45.646  37.186  1.00  0.00    -0.323 OA
HETATM   25  C   UNL     1      25.299  45.975  36.811  1.00  0.00     0.213 C 
ENDBRANCH  22  24
ENDBRANCH  10  22
BRANCH   7  26
HETATM   26  S   UNL     1      31.022  50.162  42.336  1.00  0.00    -0.083 SA
BRANCH  26  27
HETATM   27  C   UNL     1      31.759  51.125  40.990  1.00  0.00     0.123 C 
BRANCH  27  28
HETATM   28  C   UNL     1      30.688  51.657  40.061  1.00  0.00    -0.027 A 
HETATM   29  C   UNL     1      30.785  51.581  38.662  1.00  0.00     0.041 A 
HETATM   30 CL   UNL     1      32.174  50.921  37.873  1.00  0.00    -0.084 Cl
HETATM   31  C   UNL     1      29.742  52.043  37.850  1.00  0.00     0.024 A 
HETATM   32  C   UNL     1      28.593  52.586  38.422  1.00  0.00     0.002 A 
HETATM   33  C   UNL     1      28.481  52.668  39.807  1.00  0.00     0.001 A 
HETATM   34  C   UNL     1      29.518  52.205  40.620  1.00  0.00     0.009 A 
ENDBRANCH  27  28
ENDBRANCH  26  27
ENDBRANCH   7  26
TORSDOF 6
ENDMDL
