MODEL 1
REMARK VINA RESULT:      -9.7      0.000      0.000
REMARK  6 active torsions:
REMARK  status: ('A' for Active; 'I' for Inactive)
REMARK    1  A    between atoms: O_2  and  C_3 
REMARK    2  A    between atoms: C_5  and  C_6 
REMARK    3  A    between atoms: C_12  and  C_13 
REMARK       I    between atoms: C_13  and  N_14 
REMARK    4  A    between atoms: N_14  and  C_15 
REMARK    5  A    between atoms: C_17  and  O_18 
REMARK    6  A    between atoms: C_23  and  C_24 
ROOT
HETATM    1  C   UNL     1      24.712  46.058  51.641  1.00  0.00     0.118 C 
HETATM    2  N   UNL     1      25.739  45.707  52.625  1.00  0.00    -0.365 N 
HETATM    3  C   UNL     1      26.483  44.577  52.485  1.00  0.00     0.138 A 
HETATM    4  N   UNL     1      26.174  43.624  51.548  1.00  0.00    -0.240 N 
HETATM    5  N   UNL     1      26.999  42.566  51.564  1.00  0.00    -0.181 NA
HETATM    6  C   UNL     1      27.911  42.898  52.482  1.00  0.00     0.160 A 
HETATM    7  C   UNL     1      27.629  44.129  53.120  1.00  0.00     0.096 A 
HETATM    8  C   UNL     1      25.069  43.705  50.614  1.00  0.00     0.221 C 
HETATM    9  C   UNL     1      24.070  44.795  51.044  1.00  0.00     0.066 C 
HETATM   10  H   UNL     1      26.171  46.536  53.038  1.00  0.00     0.161 HD
ENDROOT
BRANCH   7  11
HETATM   11  C   UNL     1      28.393  44.772  54.174  1.00  0.00     0.261 C 
HETATM   12  N   UNL     1      29.375  43.954  54.701  1.00  0.00    -0.323 N 
HETATM   13  H   UNL     1      29.556  43.105  54.177  1.00  0.00     0.169 HD
HETATM   14  O   UNL     1      28.168  45.930  54.501  1.00  0.00    -0.267 OA
BRANCH  12  15
HETATM   15  C   UNL     1      30.178  44.184  55.833  1.00  0.00     0.037 A 
HETATM   16  C   UNL     1      30.041  45.296  56.667  1.00  0.00     0.066 A 
HETATM   17  C   UNL     1      30.852  45.418  57.794  1.00  0.00     0.067 A 
HETATM   18  C   UNL     1      31.805  44.455  58.102  1.00  0.00     0.036 A 
HETATM   19  C   UNL     1      31.951  43.347  57.272  1.00  0.00     0.005 A 
HETATM   20  C   UNL     1      31.136  43.209  56.146  1.00  0.00     0.029 A 
BRANCH  17  21
HETATM   21  O   UNL     1      30.733  46.483  58.640  1.00  0.00    -0.361 OA
HETATM   22  H   UNL     1      30.291  46.182  59.452  1.00  0.00     0.217 HD
ENDBRANCH  17  21
ENDBRANCH  12  15
ENDBRANCH   7  11
BRANCH   1  23
HETATM   23  C   UNL     1      25.189  47.094  50.642  1.00  0.00    -0.033 A 
HETATM   24  C   UNL     1      24.262  47.646  49.740  1.00  0.00     0.046 A 
HETATM   25  C   UNL     1      24.626  48.642  48.826  1.00  0.00     0.068 A 
HETATM   26  C   UNL     1      25.945  49.085  48.791  1.00  0.00     0.037 A 
HETATM   27  C   UNL     1      26.884  48.547  49.670  1.00  0.00     0.003 A 
HETATM   28  C   UNL     1      26.509  47.567  50.591  1.00  0.00     0.009 A 
BRANCH  25  29
HETATM   29  O   UNL     1      23.605  49.091  48.035  1.00  0.00    -0.356 OA
HETATM   30  C   UNL     1      23.504  50.499  47.862  1.00  0.00     0.210 C 
ENDBRANCH  25  29
ENDBRANCH   1  23
BRANCH   8  31
HETATM   31  C   UNL     1      25.577  43.871  49.197  1.00  0.00     0.409 C 
HETATM   32  F   UNL     1      26.720  44.573  49.109  1.00  0.00    -0.169 F 
HETATM   33  F   UNL     1      25.781  42.683  48.584  1.00  0.00    -0.169 F 
HETATM   34  F   UNL     1      24.651  44.524  48.446  1.00  0.00    -0.169 F 
ENDBRANCH   8  31
TORSDOF 6
ENDMDL
MODEL 2
REMARK VINA RESULT:      -9.3      3.044      8.767
REMARK  6 active torsions:
REMARK  status: ('A' for Active; 'I' for Inactive)
REMARK    1  A    between atoms: O_2  and  C_3 
REMARK    2  A    between atoms: C_5  and  C_6 
REMARK    3  A    between atoms: C_12  and  C_13 
REMARK       I    between atoms: C_13  and  N_14 
REMARK    4  A    between atoms: N_14  and  C_15 
REMARK    5  A    between atoms: C_17  and  O_18 
REMARK    6  A    between atoms: C_23  and  C_24 
ROOT
HETATM    1  C   UNL     1      26.782  45.072  50.636  1.00  0.00     0.118 C 
HETATM    2  N   UNL     1      25.773  46.033  50.184  1.00  0.00    -0.365 N 
HETATM    3  C   UNL     1      24.679  45.623  49.487  1.00  0.00     0.138 A 
HETATM    4  N   UNL     1      24.574  44.343  49.004  1.00  0.00    -0.240 N 
HETATM    5  N   UNL     1      23.440  44.117  48.322  1.00  0.00    -0.181 NA
HETATM    6  C   UNL     1      22.767  45.264  48.451  1.00  0.00     0.160 A 
HETATM    7  C   UNL     1      23.500  46.259  49.140  1.00  0.00     0.096 A 
HETATM    8  C   UNL     1      25.567  43.303  49.182  1.00  0.00     0.221 C 
HETATM    9  C   UNL     1      26.907  43.903  49.646  1.00  0.00     0.066 C 
HETATM   10  H   UNL     1      25.682  46.822  50.828  1.00  0.00     0.161 HD
ENDROOT
BRANCH   7  11
HETATM   11  C   UNL     1      23.082  47.618  49.433  1.00  0.00     0.261 C 
HETATM   12  N   UNL     1      21.748  47.843  49.148  1.00  0.00    -0.323 N 
HETATM   13  H   UNL     1      21.202  47.011  48.956  1.00  0.00     0.169 HD
HETATM   14  O   UNL     1      23.864  48.431  49.909  1.00  0.00    -0.267 OA
BRANCH  12  15
HETATM   15  C   UNL     1      21.057  49.069  49.148  1.00  0.00     0.037 A 
HETATM   16  C   UNL     1      19.846  49.274  49.813  1.00  0.00     0.066 A 
HETATM   17  C   UNL     1      19.255  50.537  49.796  1.00  0.00     0.067 A 
HETATM   18  C   UNL     1      19.844  51.598  49.120  1.00  0.00     0.036 A 
HETATM   19  C   UNL     1      21.049  51.399  48.452  1.00  0.00     0.005 A 
HETATM   20  C   UNL     1      21.656  50.141  48.471  1.00  0.00     0.029 A 
BRANCH  17  21
HETATM   21  O   UNL     1      18.081  50.777  50.449  1.00  0.00    -0.361 OA
HETATM   22  H   UNL     1      18.003  51.735  50.600  1.00  0.00     0.217 HD
ENDBRANCH  17  21
ENDBRANCH  12  15
ENDBRANCH   7  11
BRANCH   1  23
HETATM   23  C   UNL     1      26.614  44.690  52.094  1.00  0.00    -0.033 A 
HETATM   24  C   UNL     1      27.671  44.035  52.751  1.00  0.00     0.046 A 
HETATM   25  C   UNL     1      27.601  43.700  54.108  1.00  0.00     0.068 A 
HETATM   26  C   UNL     1      26.446  44.001  54.825  1.00  0.00     0.037 A 
HETATM   27  C   UNL     1      25.381  44.643  54.193  1.00  0.00     0.003 A 
HETATM   28  C   UNL     1      25.466  44.990  52.844  1.00  0.00     0.009 A 
BRANCH  25  29
HETATM   29  O   UNL     1      28.719  43.090  54.604  1.00  0.00    -0.356 OA
HETATM   30  C   UNL     1      29.834  42.989  53.727  1.00  0.00     0.210 C 
ENDBRANCH  25  29
ENDBRANCH   1  23
BRANCH   8  31
HETATM   31  C   UNL     1      25.042  42.211  50.091  1.00  0.00     0.409 C 
HETATM   32  F   UNL     1      24.132  42.639  50.984  1.00  0.00    -0.169 F 
HETATM   33  F   UNL     1      24.485  41.192  49.398  1.00  0.00    -0.169 F 
HETATM   34  F   UNL     1      26.066  41.665  50.799  1.00  0.00    -0.169 F 
ENDBRANCH   8  31
TORSDOF 6
ENDMDL
MODEL 3
REMARK VINA RESULT:      -8.7      3.731      7.388
REMARK  6 active torsions:
REMARK  status: ('A' for Active; 'I' for Inactive)
REMARK    1  A    between atoms: O_2  and  C_3 
REMARK    2  A    between atoms: C_5  and  C_6 
REMARK    3  A    between atoms: C_12  and  C_13 
REMARK       I    between atoms: C_13  and  N_14 
REMARK    4  A    between atoms: N_14  and  C_15 
REMARK    5  A    between atoms: C_17  and  O_18 
REMARK    6  A    between atoms: C_23  and  C_24 
ROOT
HETATM    1  C   UNL     1      26.482  43.398  54.066  1.00  0.00     0.118 C 
HETATM    2  N   UNL     1      26.512  42.806  52.726  1.00  0.00    -0.365 N 
HETATM    3  C   UNL     1      26.192  43.545  51.629  1.00  0.00     0.138 A 
HETATM    4  N   UNL     1      25.638  44.795  51.741  1.00  0.00    -0.240 N 
HETATM    5  N   UNL     1      25.366  45.371  50.560  1.00  0.00    -0.181 NA
HETATM    6  C   UNL     1      25.842  44.494  49.671  1.00  0.00     0.160 A 
HETATM    7  C   UNL     1      26.343  43.315  50.273  1.00  0.00     0.096 A 
HETATM    8  C   UNL     1      25.349  45.468  52.993  1.00  0.00     0.221 C 
HETATM    9  C   UNL     1      25.388  44.473  54.167  1.00  0.00     0.066 C 
HETATM   10  H   UNL     1      27.230  42.084  52.644  1.00  0.00     0.161 HD
ENDROOT
BRANCH   7  11
HETATM   11  C   UNL     1      26.908  42.156  49.606  1.00  0.00     0.261 C 
HETATM   12  N   UNL     1      26.908  41.025  50.400  1.00  0.00    -0.323 N 
HETATM   13  H   UNL     1      26.361  41.096  51.251  1.00  0.00     0.169 HD
HETATM   14  O   UNL     1      27.301  42.224  48.448  1.00  0.00    -0.267 OA
BRANCH  12  15
HETATM   15  C   UNL     1      27.523  39.786  50.144  1.00  0.00     0.037 A 
HETATM   16  C   UNL     1      28.876  39.531  50.380  1.00  0.00     0.066 A 
HETATM   17  C   UNL     1      29.390  38.257  50.139  1.00  0.00     0.067 A 
HETATM   18  C   UNL     1      28.583  37.235  49.657  1.00  0.00     0.036 A 
HETATM   19  C   UNL     1      27.235  37.484  49.416  1.00  0.00     0.005 A 
HETATM   20  C   UNL     1      26.706  38.753  49.663  1.00  0.00     0.029 A 
BRANCH  17  21
HETATM   21  O   UNL     1      30.703  37.968  50.375  1.00  0.00    -0.361 OA
HETATM   22  H   UNL     1      31.145  38.777  50.686  1.00  0.00     0.217 HD
ENDBRANCH  17  21
ENDBRANCH  12  15
ENDBRANCH   7  11
BRANCH   1  23
HETATM   23  C   UNL     1      27.858  43.806  54.556  1.00  0.00    -0.033 A 
HETATM   24  C   UNL     1      27.961  44.811  55.535  1.00  0.00     0.046 A 
HETATM   25  C   UNL     1      29.197  45.199  56.066  1.00  0.00     0.068 A 
HETATM   26  C   UNL     1      30.360  44.592  55.599  1.00  0.00     0.037 A 
HETATM   27  C   UNL     1      30.284  43.599  54.623  1.00  0.00     0.003 A 
HETATM   28  C   UNL     1      29.046  43.204  54.111  1.00  0.00     0.009 A 
BRANCH  25  29
HETATM   29  O   UNL     1      29.126  46.170  57.025  1.00  0.00    -0.356 OA
HETATM   30  C   UNL     1      30.042  46.066  58.108  1.00  0.00     0.210 C 
ENDBRANCH  25  29
ENDBRANCH   1  23
BRANCH   8  31
HETATM   31  C   UNL     1      26.259  46.664  53.179  1.00  0.00     0.409 C 
HETATM   32  F   UNL     1      27.563  46.389  52.999  1.00  0.00    -0.169 F 
HETATM   33  F   UNL     1      25.940  47.683  52.348  1.00  0.00    -0.169 F 
HETATM   34  F   UNL     1      26.126  47.155  54.440  1.00  0.00    -0.169 F 
ENDBRANCH   8  31
TORSDOF 6
ENDMDL
MODEL 4
REMARK VINA RESULT:      -8.6      5.919      8.516
REMARK  6 active torsions:
REMARK  status: ('A' for Active; 'I' for Inactive)
REMARK    1  A    between atoms: O_2  and  C_3 
REMARK    2  A    between atoms: C_5  and  C_6 
REMARK    3  A    between atoms: C_12  and  C_13 
REMARK       I    between atoms: C_13  and  N_14 
REMARK    4  A    between atoms: N_14  and  C_15 
REMARK    5  A    between atoms: C_17  and  O_18 
REMARK    6  A    between atoms: C_23  and  C_24 
ROOT
HETATM    1  C   UNL     1      18.376  48.227  49.888  1.00  0.00     0.118 C 
HETATM    2  N   UNL     1      19.371  47.154  49.816  1.00  0.00    -0.365 N 
HETATM    3  C   UNL     1      19.404  46.302  48.755  1.00  0.00     0.138 A 
HETATM    4  N   UNL     1      18.398  46.277  47.823  1.00  0.00    -0.240 N 
HETATM    5  N   UNL     1      18.580  45.361  46.859  1.00  0.00    -0.181 NA
HETATM    6  C   UNL     1      19.782  44.850  47.141  1.00  0.00     0.160 A 
HETATM    7  C   UNL     1      20.337  45.372  48.334  1.00  0.00     0.096 A 
HETATM    8  C   UNL     1      17.227  47.132  47.839  1.00  0.00     0.221 C 
HETATM    9  C   UNL     1      17.062  47.802  49.215  1.00  0.00     0.066 C 
HETATM   10  H   UNL     1      20.250  47.418  50.265  1.00  0.00     0.161 HD
ENDROOT
BRANCH   7  11
HETATM   11  C   UNL     1      21.608  45.021  48.942  1.00  0.00     0.261 C 
HETATM   12  N   UNL     1      22.478  46.091  49.024  1.00  0.00    -0.323 N 
HETATM   13  H   UNL     1      22.067  46.998  48.831  1.00  0.00     0.169 HD
HETATM   14  O   UNL     1      21.822  43.885  49.347  1.00  0.00    -0.267 OA
BRANCH  12  15
HETATM   15  C   UNL     1      23.836  46.078  49.395  1.00  0.00     0.037 A 
HETATM   16  C   UNL     1      24.699  45.011  49.134  1.00  0.00     0.066 A 
HETATM   17  C   UNL     1      26.041  45.104  49.497  1.00  0.00     0.067 A 
HETATM   18  C   UNL     1      26.540  46.240  50.124  1.00  0.00     0.036 A 
HETATM   19  C   UNL     1      25.684  47.305  50.391  1.00  0.00     0.005 A 
HETATM   20  C   UNL     1      24.339  47.227  50.022  1.00  0.00     0.029 A 
BRANCH  17  21
HETATM   21  O   UNL     1      26.916  44.088  49.242  1.00  0.00    -0.361 OA
HETATM   22  H   UNL     1      26.854  43.441  49.966  1.00  0.00     0.217 HD
ENDBRANCH  17  21
ENDBRANCH  12  15
ENDBRANCH   7  11
BRANCH   1  23
HETATM   23  C   UNL     1      18.934  49.572  49.462  1.00  0.00    -0.033 A 
HETATM   24  C   UNL     1      20.247  49.634  48.960  1.00  0.00     0.046 A 
HETATM   25  C   UNL     1      20.804  50.834  48.504  1.00  0.00     0.068 A 
HETATM   26  C   UNL     1      20.051  52.003  48.566  1.00  0.00     0.037 A 
HETATM   27  C   UNL     1      18.750  51.967  49.067  1.00  0.00     0.003 A 
HETATM   28  C   UNL     1      18.194  50.763  49.503  1.00  0.00     0.009 A 
BRANCH  25  29
HETATM   29  O   UNL     1      22.080  50.725  48.025  1.00  0.00    -0.356 OA
HETATM   30  C   UNL     1      23.130  50.787  48.983  1.00  0.00     0.210 C 
ENDBRANCH  25  29
ENDBRANCH   1  23
BRANCH   8  31
HETATM   31  C   UNL     1      17.264  48.112  46.686  1.00  0.00     0.409 C 
HETATM   32  F   UNL     1      18.505  48.505  46.347  1.00  0.00    -0.169 F 
HETATM   33  F   UNL     1      16.677  47.616  45.573  1.00  0.00    -0.169 F 
HETATM   34  F   UNL     1      16.567  49.233  47.008  1.00  0.00    -0.169 F 
ENDBRANCH   8  31
TORSDOF 6
ENDMDL
MODEL 5
REMARK VINA RESULT:      -8.5     11.479     13.790
REMARK  6 active torsions:
REMARK  status: ('A' for Active; 'I' for Inactive)
REMARK    1  A    between atoms: O_2  and  C_3 
REMARK    2  A    between atoms: C_5  and  C_6 
REMARK    3  A    between atoms: C_12  and  C_13 
REMARK       I    between atoms: C_13  and  N_14 
REMARK    4  A    between atoms: N_14  and  C_15 
REMARK    5  A    between atoms: C_17  and  O_18 
REMARK    6  A    between atoms: C_23  and  C_24 
ROOT
HETATM    1  C   UNL     1      28.598  51.271  41.608  1.00  0.00     0.118 C 
HETATM    2  N   UNL     1      27.627  50.214  41.317  1.00  0.00    -0.365 N 
HETATM    3  C   UNL     1      27.195  49.993  40.045  1.00  0.00     0.138 A 
HETATM    4  N   UNL     1      27.483  50.866  39.027  1.00  0.00    -0.240 N 
HETATM    5  N   UNL     1      26.960  50.505  37.845  1.00  0.00    -0.181 NA
HETATM    6  C   UNL     1      26.396  49.322  38.104  1.00  0.00     0.160 A 
HETATM    7  C   UNL     1      26.478  48.959  39.470  1.00  0.00     0.096 A 
HETATM    8  C   UNL     1      28.268  52.077  39.167  1.00  0.00     0.221 C 
HETATM    9  C   UNL     1      28.419  52.460  40.650  1.00  0.00     0.066 C 
HETATM   10  H   UNL     1      27.728  49.418  41.950  1.00  0.00     0.161 HD
ENDROOT
BRANCH   7  11
HETATM   11  C   UNL     1      25.952  47.760  40.096  1.00  0.00     0.261 C 
HETATM   12  N   UNL     1      26.940  46.956  40.633  1.00  0.00    -0.323 N 
HETATM   13  H   UNL     1      27.859  47.381  40.687  1.00  0.00     0.169 HD
HETATM   14  O   UNL     1      24.746  47.548  40.141  1.00  0.00    -0.267 OA
BRANCH  12  15
HETATM   15  C   UNL     1      26.810  45.656  41.156  1.00  0.00     0.037 A 
HETATM   16  C   UNL     1      25.995  45.339  42.246  1.00  0.00     0.066 A 
HETATM   17  C   UNL     1      25.893  44.014  42.668  1.00  0.00     0.067 A 
HETATM   18  C   UNL     1      26.595  42.999  42.029  1.00  0.00     0.036 A 
HETATM   19  C   UNL     1      27.411  43.309  40.945  1.00  0.00     0.005 A 
HETATM   20  C   UNL     1      27.514  44.632  40.507  1.00  0.00     0.029 A 
BRANCH  17  21
HETATM   21  O   UNL     1      25.093  43.666  43.718  1.00  0.00    -0.361 OA
HETATM   22  H   UNL     1      25.344  42.774  44.013  1.00  0.00     0.217 HD
ENDBRANCH  17  21
ENDBRANCH  12  15
ENDBRANCH   7  11
BRANCH   1  23
HETATM   23  C   UNL     1      30.013  50.743  41.750  1.00  0.00    -0.033 A 
HETATM   24  C   UNL     1      30.998  51.580  42.306  1.00  0.00     0.046 A 
HETATM   25  C   UNL     1      32.310  51.138  42.511  1.00  0.00     0.068 A 
HETATM   26  C   UNL     1      32.659  49.844  42.136  1.00  0.00     0.037 A 
HETATM   27  C   UNL     1      31.702  48.998  41.576  1.00  0.00     0.003 A 
HETATM   28  C   UNL     1      30.391  49.440  41.392  1.00  0.00     0.009 A 
BRANCH  25  29
HETATM   29  O   UNL     1      33.141  52.062  43.081  1.00  0.00    -0.356 OA
HETATM   30  C   UNL     1      33.320  51.976  44.490  1.00  0.00     0.210 C 
ENDBRANCH  25  29
ENDBRANCH   1  23
BRANCH   8  31
HETATM   31  C   UNL     1      29.587  51.947  38.435  1.00  0.00     0.409 C 
HETATM   32  F   UNL     1      29.994  50.676  38.269  1.00  0.00    -0.169 F 
HETATM   33  F   UNL     1      29.553  52.525  37.212  1.00  0.00    -0.169 F 
HETATM   34  F   UNL     1      30.565  52.591  39.125  1.00  0.00    -0.169 F 
ENDBRANCH   8  31
TORSDOF 6
ENDMDL
MODEL 6
REMARK VINA RESULT:      -8.4      6.212      9.137
REMARK  6 active torsions:
REMARK  status: ('A' for Active; 'I' for Inactive)
REMARK    1  A    between atoms: O_2  and  C_3 
REMARK    2  A    between atoms: C_5  and  C_6 
REMARK    3  A    between atoms: C_12  and  C_13 
REMARK       I    between atoms: C_13  and  N_14 
REMARK    4  A    between atoms: N_14  and  C_15 
REMARK    5  A    between atoms: C_17  and  O_18 
REMARK    6  A    between atoms: C_23  and  C_24 
ROOT
HETATM    1  C   UNL     1      18.780  48.703  50.198  1.00  0.00     0.118 C 
HETATM    2  N   UNL     1      19.805  47.821  49.633  1.00  0.00    -0.365 N 
HETATM    3  C   UNL     1      19.495  46.927  48.655  1.00  0.00     0.138 A 
HETATM    4  N   UNL     1      18.195  46.669  48.303  1.00  0.00    -0.240 N 
HETATM    5  N   UNL     1      18.072  45.745  47.337  1.00  0.00    -0.181 NA
HETATM    6  C   UNL     1      19.338  45.473  47.007  1.00  0.00     0.160 A 
HETATM    7  C   UNL     1      20.278  46.154  47.816  1.00  0.00     0.096 A 
HETATM    8  C   UNL     1      17.032  47.303  48.893  1.00  0.00     0.221 C 
HETATM    9  C   UNL     1      17.407  48.013  50.206  1.00  0.00     0.066 C 
HETATM   10  H   UNL     1      20.726  48.263  49.626  1.00  0.00     0.161 HD
ENDROOT
BRANCH   7  11
HETATM   11  C   UNL     1      21.726  46.070  47.746  1.00  0.00     0.261 C 
HETATM   12  N   UNL     1      22.307  45.774  48.965  1.00  0.00    -0.323 N 
HETATM   13  H   UNL     1      21.662  45.476  49.689  1.00  0.00     0.169 HD
HETATM   14  O   UNL     1      22.317  46.227  46.685  1.00  0.00    -0.267 OA
BRANCH  12  15
HETATM   15  C   UNL     1      23.674  45.783  49.298  1.00  0.00     0.037 A 
HETATM   16  C   UNL     1      24.532  44.704  49.075  1.00  0.00     0.066 A 
HETATM   17  C   UNL     1      25.884  44.819  49.396  1.00  0.00     0.067 A 
HETATM   18  C   UNL     1      26.396  45.989  49.943  1.00  0.00     0.036 A 
HETATM   19  C   UNL     1      25.546  47.067  50.171  1.00  0.00     0.005 A 
HETATM   20  C   UNL     1      24.191  46.966  49.844  1.00  0.00     0.029 A 
BRANCH  17  21
HETATM   21  O   UNL     1      26.753  43.790  49.176  1.00  0.00    -0.361 OA
HETATM   22  H   UNL     1      26.891  43.704  48.217  1.00  0.00     0.217 HD
ENDBRANCH  17  21
ENDBRANCH  12  15
ENDBRANCH   7  11
BRANCH   1  23
HETATM   23  C   UNL     1      18.817  50.098  49.603  1.00  0.00    -0.033 A 
HETATM   24  C   UNL     1      17.774  50.993  49.905  1.00  0.00     0.046 A 
HETATM   25  C   UNL     1      17.773  52.309  49.429  1.00  0.00     0.068 A 
HETATM   26  C   UNL     1      18.818  52.742  48.617  1.00  0.00     0.037 A 
HETATM   27  C   UNL     1      19.858  51.870  48.297  1.00  0.00     0.003 A 
HETATM   28  C   UNL     1      19.862  50.564  48.791  1.00  0.00     0.009 A 
BRANCH  25  29
HETATM   29  O   UNL     1      16.703  53.060  49.831  1.00  0.00    -0.356 OA
HETATM   30  C   UNL     1      15.489  52.878  49.112  1.00  0.00     0.210 C 
ENDBRANCH  25  29
ENDBRANCH   1  23
BRANCH   8  31
HETATM   31  C   UNL     1      16.346  48.205  47.888  1.00  0.00     0.409 C 
HETATM   32  F   UNL     1      15.544  49.128  48.447  1.00  0.00    -0.169 F 
HETATM   33  F   UNL     1      17.231  48.858  47.100  1.00  0.00    -0.169 F 
HETATM   34  F   UNL     1      15.576  47.463  47.050  1.00  0.00    -0.169 F 
ENDBRANCH   8  31
TORSDOF 6
ENDMDL
MODEL 7
REMARK VINA RESULT:      -8.4     11.616     13.851
REMARK  6 active torsions:
REMARK  status: ('A' for Active; 'I' for Inactive)
REMARK    1  A    between atoms: O_2  and  C_3 
REMARK    2  A    between atoms: C_5  and  C_6 
REMARK    3  A    between atoms: C_12  and  C_13 
REMARK       I    between atoms: C_13  and  N_14 
REMARK    4  A    between atoms: N_14  and  C_15 
REMARK    5  A    between atoms: C_17  and  O_18 
REMARK    6  A    between atoms: C_23  and  C_24 
ROOT
HETATM    1  C   UNL     1      28.815  51.223  41.644  1.00  0.00     0.118 C 
HETATM    2  N   UNL     1      27.812  50.197  41.351  1.00  0.00    -0.365 N 
HETATM    3  C   UNL     1      27.318  50.043  40.092  1.00  0.00     0.138 A 
HETATM    4  N   UNL     1      27.578  50.956  39.102  1.00  0.00    -0.240 N 
HETATM    5  N   UNL     1      26.995  50.659  37.930  1.00  0.00    -0.181 NA
HETATM    6  C   UNL     1      26.419  49.476  38.162  1.00  0.00     0.160 A 
HETATM    7  C   UNL     1      26.556  49.049  39.504  1.00  0.00     0.096 A 
HETATM    8  C   UNL     1      28.391  52.145  39.259  1.00  0.00     0.221 C 
HETATM    9  C   UNL     1      28.617  52.457  40.750  1.00  0.00     0.066 C 
HETATM   10  H   UNL     1      27.925  49.372  41.942  1.00  0.00     0.161 HD
ENDROOT
BRANCH   7  11
HETATM   11  C   UNL     1      26.034  47.832  40.100  1.00  0.00     0.261 C 
HETATM   12  N   UNL     1      27.025  47.023  40.624  1.00  0.00    -0.323 N 
HETATM   13  H   UNL     1      27.941  47.452  40.693  1.00  0.00     0.169 HD
HETATM   14  O   UNL     1      24.830  47.611  40.133  1.00  0.00    -0.267 OA
BRANCH  12  15
HETATM   15  C   UNL     1      26.901  45.710  41.116  1.00  0.00     0.037 A 
HETATM   16  C   UNL     1      26.114  45.369  42.218  1.00  0.00     0.066 A 
HETATM   17  C   UNL     1      26.015  44.034  42.608  1.00  0.00     0.067 A 
HETATM   18  C   UNL     1      26.693  43.032  41.924  1.00  0.00     0.036 A 
HETATM   19  C   UNL     1      27.483  43.367  40.828  1.00  0.00     0.005 A 
HETATM   20  C   UNL     1      27.581  44.700  40.422  1.00  0.00     0.029 A 
BRANCH  17  21
HETATM   21  O   UNL     1      25.241  43.662  43.670  1.00  0.00    -0.361 OA
HETATM   22  H   UNL     1      24.387  43.345  43.331  1.00  0.00     0.217 HD
ENDBRANCH  17  21
ENDBRANCH  12  15
ENDBRANCH   7  11
BRANCH   1  23
HETATM   23  C   UNL     1      30.224  50.664  41.698  1.00  0.00    -0.033 A 
HETATM   24  C   UNL     1      30.465  49.379  41.179  1.00  0.00     0.046 A 
HETATM   25  C   UNL     1      31.750  48.824  41.153  1.00  0.00     0.068 A 
HETATM   26  C   UNL     1      32.817  49.551  41.672  1.00  0.00     0.037 A 
HETATM   27  C   UNL     1      32.602  50.825  42.199  1.00  0.00     0.003 A 
HETATM   28  C   UNL     1      31.320  51.379  42.205  1.00  0.00     0.009 A 
BRANCH  25  29
HETATM   29  O   UNL     1      31.822  47.578  40.595  1.00  0.00    -0.356 OA
HETATM   30  C   UNL     1      30.669  47.122  39.898  1.00  0.00     0.210 C 
ENDBRANCH  25  29
ENDBRANCH   1  23
BRANCH   8  31
HETATM   31  C   UNL     1      29.674  52.026  38.463  1.00  0.00     0.409 C 
HETATM   32  F   UNL     1      29.607  52.581  37.240  1.00  0.00    -0.169 F 
HETATM   33  F   UNL     1      30.728  52.580  39.104  1.00  0.00    -0.169 F 
HETATM   34  F   UNL     1      29.990  50.716  38.288  1.00  0.00    -0.169 F 
ENDBRANCH   8  31
TORSDOF 6
ENDMDL
MODEL 8
REMARK VINA RESULT:      -8.3      2.863      4.888
REMARK  6 active torsions:
REMARK  status: ('A' for Active; 'I' for Inactive)
REMARK    1  A    between atoms: O_2  and  C_3 
REMARK    2  A    between atoms: C_5  and  C_6 
REMARK    3  A    between atoms: C_12  and  C_13 
REMARK       I    between atoms: C_13  and  N_14 
REMARK    4  A    between atoms: N_14  and  C_15 
REMARK    5  A    between atoms: C_17  and  O_18 
REMARK    6  A    between atoms: C_23  and  C_24 
ROOT
HETATM    1  C   UNL     1      27.061  43.995  49.745  1.00  0.00     0.118 C 
HETATM    2  N   UNL     1      27.344  44.673  51.012  1.00  0.00    -0.365 N 
HETATM    3  C   UNL     1      26.362  44.871  51.933  1.00  0.00     0.138 A 
HETATM    4  N   UNL     1      25.043  44.636  51.638  1.00  0.00    -0.240 N 
HETATM    5  N   UNL     1      24.208  44.904  52.654  1.00  0.00    -0.181 NA
HETATM    6  C   UNL     1      25.031  45.238  53.651  1.00  0.00     0.160 A 
HETATM    7  C   UNL     1      26.390  45.269  53.258  1.00  0.00     0.096 A 
HETATM    8  C   UNL     1      24.549  44.150  50.365  1.00  0.00     0.221 C 
HETATM    9  C   UNL     1      25.628  44.287  49.274  1.00  0.00     0.066 C 
HETATM   10  H   UNL     1      28.297  44.495  51.337  1.00  0.00     0.161 HD
ENDROOT
BRANCH   7  11
HETATM   11  C   UNL     1      27.538  45.613  54.078  1.00  0.00     0.261 C 
HETATM   12  N   UNL     1      28.277  44.509  54.458  1.00  0.00    -0.323 N 
HETATM   13  H   UNL     1      28.043  43.647  53.977  1.00  0.00     0.169 HD
HETATM   14  O   UNL     1      27.793  46.779  54.350  1.00  0.00    -0.267 OA
BRANCH  12  15
HETATM   15  C   UNL     1      29.339  44.452  55.380  1.00  0.00     0.037 A 
HETATM   16  C   UNL     1      29.509  45.367  56.421  1.00  0.00     0.066 A 
HETATM   17  C   UNL     1      30.566  45.206  57.316  1.00  0.00     0.067 A 
HETATM   18  C   UNL     1      31.464  44.153  57.187  1.00  0.00     0.036 A 
HETATM   19  C   UNL     1      31.302  43.240  56.148  1.00  0.00     0.005 A 
HETATM   20  C   UNL     1      30.241  43.386  55.252  1.00  0.00     0.029 A 
BRANCH  17  21
HETATM   21  O   UNL     1      30.752  46.071  58.355  1.00  0.00    -0.361 OA
HETATM   22  H   UNL     1      29.887  46.438  58.607  1.00  0.00     0.217 HD
ENDBRANCH  17  21
ENDBRANCH  12  15
ENDBRANCH   7  11
BRANCH   1  23
HETATM   23  C   UNL     1      27.469  42.535  49.760  1.00  0.00    -0.033 A 
HETATM   24  C   UNL     1      28.027  41.997  50.934  1.00  0.00     0.046 A 
HETATM   25  C   UNL     1      28.379  40.646  51.030  1.00  0.00     0.068 A 
HETATM   26  C   UNL     1      28.193  39.813  49.931  1.00  0.00     0.037 A 
HETATM   27  C   UNL     1      27.648  40.325  48.753  1.00  0.00     0.003 A 
HETATM   28  C   UNL     1      27.283  41.670  48.671  1.00  0.00     0.009 A 
BRANCH  25  29
HETATM   29  O   UNL     1      28.886  40.273  52.244  1.00  0.00    -0.356 OA
HETATM   30  C   UNL     1      28.407  40.981  53.381  1.00  0.00     0.210 C 
ENDBRANCH  25  29
ENDBRANCH   1  23
BRANCH   8  31
HETATM   31  C   UNL     1      24.001  42.745  50.503  1.00  0.00     0.409 C 
HETATM   32  F   UNL     1      24.663  41.990  51.398  1.00  0.00    -0.169 F 
HETATM   33  F   UNL     1      22.694  42.738  50.853  1.00  0.00    -0.169 F 
HETATM   34  F   UNL     1      24.072  42.100  49.309  1.00  0.00    -0.169 F 
ENDBRANCH   8  31
TORSDOF 6
ENDMDL
MODEL 9
REMARK VINA RESULT:      -8.3     13.322     14.999
REMARK  6 active torsions:
REMARK  status: ('A' for Active; 'I' for Inactive)
REMARK    1  A    between atoms: O_2  and  C_3 
REMARK    2  A    between atoms: C_5  and  C_6 
REMARK    3  A    between atoms: C_12  and  C_13 
REMARK       I    between atoms: C_13  and  N_14 
REMARK    4  A    between atoms: N_14  and  C_15 
REMARK    5  A    between atoms: C_17  and  O_18 
REMARK    6  A    between atoms: C_23  and  C_24 
ROOT
HETATM    1  C   UNL     1      29.755  50.552  38.103  1.00  0.00     0.118 C 
HETATM    2  N   UNL     1      30.927  51.328  38.513  1.00  0.00    -0.365 N 
HETATM    3  C   UNL     1      30.833  52.275  39.486  1.00  0.00     0.138 A 
HETATM    4  N   UNL     1      29.618  52.684  39.974  1.00  0.00    -0.240 N 
HETATM    5  N   UNL     1      29.709  53.640  40.912  1.00  0.00    -0.181 NA
HETATM    6  C   UNL     1      31.027  53.778  41.085  1.00  0.00     0.160 A 
HETATM    7  C   UNL     1      31.787  52.977  40.200  1.00  0.00     0.096 A 
HETATM    8  C   UNL     1      28.333  52.169  39.545  1.00  0.00     0.221 C 
HETATM    9  C   UNL     1      28.472  51.389  38.225  1.00  0.00     0.066 C 
HETATM   10  H   UNL     1      31.791  50.787  38.432  1.00  0.00     0.161 HD
ENDROOT
BRANCH   7  11
HETATM   11  C   UNL     1      33.234  52.901  40.102  1.00  0.00     0.261 C 
HETATM   12  N   UNL     1      33.763  51.821  40.783  1.00  0.00    -0.323 N 
HETATM   13  H   UNL     1      33.085  51.135  41.096  1.00  0.00     0.169 HD
HETATM   14  O   UNL     1      33.866  53.720  39.446  1.00  0.00    -0.267 OA
BRANCH  12  15
HETATM   15  C   UNL     1      35.117  51.538  41.040  1.00  0.00     0.037 A 
HETATM   16  C   UNL     1      36.041  51.210  40.045  1.00  0.00     0.066 A 
HETATM   17  C   UNL     1      37.375  50.989  40.387  1.00  0.00     0.067 A 
HETATM   18  C   UNL     1      37.804  51.082  41.706  1.00  0.00     0.036 A 
HETATM   19  C   UNL     1      36.887  51.405  42.702  1.00  0.00     0.005 A 
HETATM   20  C   UNL     1      35.551  51.638  42.369  1.00  0.00     0.029 A 
BRANCH  17  21
HETATM   21  O   UNL     1      38.307  50.683  39.439  1.00  0.00    -0.361 OA
HETATM   22  H   UNL     1      38.102  51.187  38.633  1.00  0.00     0.217 HD
ENDBRANCH  17  21
ENDBRANCH  12  15
ENDBRANCH   7  11
BRANCH   1  23
HETATM   23  C   UNL     1      29.711  49.177  38.742  1.00  0.00    -0.033 A 
HETATM   24  C   UNL     1      30.875  48.673  39.351  1.00  0.00     0.046 A 
HETATM   25  C   UNL     1      30.889  47.434  40.001  1.00  0.00     0.068 A 
HETATM   26  C   UNL     1      29.729  46.666  40.030  1.00  0.00     0.037 A 
HETATM   27  C   UNL     1      28.564  47.141  39.427  1.00  0.00     0.003 A 
HETATM   28  C   UNL     1      28.553  48.386  38.795  1.00  0.00     0.009 A 
BRANCH  25  29
HETATM   29  O   UNL     1      32.090  47.098  40.563  1.00  0.00    -0.356 OA
HETATM   30  C   UNL     1      32.760  48.116  41.296  1.00  0.00     0.210 C 
ENDBRANCH  25  29
ENDBRANCH   1  23
BRANCH   8  31
HETATM   31  C   UNL     1      27.677  51.374  40.654  1.00  0.00     0.409 C 
HETATM   32  F   UNL     1      26.761  50.490  40.220  1.00  0.00    -0.169 F 
HETATM   33  F   UNL     1      28.579  50.693  41.398  1.00  0.00    -0.169 F 
HETATM   34  F   UNL     1      27.042  52.214  41.514  1.00  0.00    -0.169 F 
ENDBRANCH   8  31
TORSDOF 6
ENDMDL
MODEL 10
REMARK VINA RESULT:      -8.2     16.315     19.208
REMARK  6 active torsions:
REMARK  status: ('A' for Active; 'I' for Inactive)
REMARK    1  A    between atoms: O_2  and  C_3 
REMARK    2  A    between atoms: C_5  and  C_6 
REMARK    3  A    between atoms: C_12  and  C_13 
REMARK       I    between atoms: C_13  and  N_14 
REMARK    4  A    between atoms: N_14  and  C_15 
REMARK    5  A    between atoms: C_17  and  O_18 
REMARK    6  A    between atoms: C_23  and  C_24 
ROOT
HETATM    1  C   UNL     1      38.907  42.973  62.769  1.00  0.00     0.118 C 
HETATM    2  N   UNL     1      39.534  44.245  63.137  1.00  0.00    -0.365 N 
HETATM    3  C   UNL     1      39.008  45.024  64.121  1.00  0.00     0.138 A 
HETATM    4  N   UNL     1      37.775  44.762  64.663  1.00  0.00    -0.240 N 
HETATM    5  N   UNL     1      37.403  45.643  65.604  1.00  0.00    -0.181 NA
HETATM    6  C   UNL     1      38.470  46.438  65.724  1.00  0.00     0.160 A 
HETATM    7  C   UNL     1      39.497  46.125  64.801  1.00  0.00     0.096 A 
HETATM    8  C   UNL     1      36.917  43.657  64.283  1.00  0.00     0.221 C 
HETATM    9  C   UNL     1      37.383  43.039  62.952  1.00  0.00     0.066 C 
HETATM   10  H   UNL     1      40.548  44.220  63.015  1.00  0.00     0.161 HD
ENDROOT
BRANCH   7  11
HETATM   11  C   UNL     1      40.774  46.798  64.642  1.00  0.00     0.261 C 
HETATM   12  N   UNL     1      41.853  45.967  64.880  1.00  0.00    -0.323 N 
HETATM   13  H   UNL     1      41.629  44.979  64.947  1.00  0.00     0.169 HD
HETATM   14  O   UNL     1      40.831  47.973  64.303  1.00  0.00    -0.267 OA
BRANCH  12  15
HETATM   15  C   UNL     1      43.211  46.318  64.981  1.00  0.00     0.037 A 
HETATM   16  C   UNL     1      44.188  45.901  64.075  1.00  0.00     0.066 A 
HETATM   17  C   UNL     1      45.504  46.336  64.229  1.00  0.00     0.067 A 
HETATM   18  C   UNL     1      45.866  47.174  65.276  1.00  0.00     0.036 A 
HETATM   19  C   UNL     1      44.898  47.590  66.186  1.00  0.00     0.005 A 
HETATM   20  C   UNL     1      43.575  47.168  66.035  1.00  0.00     0.029 A 
BRANCH  17  21
HETATM   21  O   UNL     1      46.480  45.962  63.352  1.00  0.00    -0.361 OA
HETATM   22  H   UNL     1      46.683  45.022  63.500  1.00  0.00     0.217 HD
ENDBRANCH  17  21
ENDBRANCH  12  15
ENDBRANCH   7  11
BRANCH   1  23
HETATM   23  C   UNL     1      39.598  41.778  63.398  1.00  0.00    -0.033 A 
HETATM   24  C   UNL     1      40.476  41.990  64.477  1.00  0.00     0.046 A 
HETATM   25  C   UNL     1      41.107  40.927  65.133  1.00  0.00     0.068 A 
HETATM   26  C   UNL     1      40.879  39.625  64.697  1.00  0.00     0.037 A 
HETATM   27  C   UNL     1      40.018  39.390  63.625  1.00  0.00     0.003 A 
HETATM   28  C   UNL     1      39.379  40.454  62.987  1.00  0.00     0.009 A 
BRANCH  25  29
HETATM   29  O   UNL     1      41.910  41.297  66.176  1.00  0.00    -0.356 OA
HETATM   30  C   UNL     1      42.779  42.401  65.953  1.00  0.00     0.210 C 
ENDBRANCH  25  29
ENDBRANCH   1  23
BRANCH   8  31
HETATM   31  C   UNL     1      36.805  42.654  65.412  1.00  0.00     0.409 C 
HETATM   32  F   UNL     1      36.696  41.379  64.997  1.00  0.00    -0.169 F 
HETATM   33  F   UNL     1      37.858  42.717  66.259  1.00  0.00    -0.169 F 
HETATM   34  F   UNL     1      35.704  42.923  66.163  1.00  0.00    -0.169 F 
ENDBRANCH   8  31
TORSDOF 6
ENDMDL
