MODEL 1
REMARK VINA RESULT:     -10.3      0.000      0.000
REMARK  6 active torsions:
REMARK  status: ('A' for Active; 'I' for Inactive)
REMARK    1  A    between atoms: C_6  and  C_7 
REMARK    2  A    between atoms: C_7  and  N_8 
REMARK       I    between atoms: N_8  and  C_9 
REMARK    3  A    between atoms: N_8  and  C_19 
REMARK    4  A    between atoms: C_9  and  C_10 
REMARK    5  A    between atoms: C_12  and  O_13 
REMARK    6  A    between atoms: C_19  and  C_20 
ROOT
HETATM    1  N   UNL     1      25.889  45.784  51.136  1.00  0.00    -0.341 N 
HETATM    2  C   UNL     1      25.533  47.136  51.180  1.00  0.00     0.254 C 
HETATM    3  O   UNL     1      24.937  47.638  52.133  1.00  0.00    -0.267 OA
ENDROOT
BRANCH   1   4
HETATM    4  C   UNL     1      25.584  44.976  52.324  1.00  0.00     0.170 C 
BRANCH   4   5
HETATM    5  C   UNL     1      26.739  44.845  53.276  1.00  0.00     0.029 A 
HETATM    6  C   UNL     1      27.800  44.023  53.176  1.00  0.00     0.028 A 
HETATM    7  C   UNL     1      28.874  44.043  54.171  1.00  0.00    -0.008 A 
HETATM    8  C   UNL     1      28.798  44.937  55.250  1.00  0.00     0.051 A 
HETATM    9  C   UNL     1      29.978  43.196  54.052  1.00  0.00     0.014 A 
HETATM   10  C   UNL     1      29.819  44.993  56.215  1.00  0.00    -0.034 A 
HETATM   11  N   UNL     1      27.677  45.773  55.342  1.00  0.00    -0.322 N 
HETATM   12  C   UNL     1      29.772  45.948  57.373  1.00  0.00     0.050 C 
HETATM   13  C   UNL     1      30.919  44.134  56.075  1.00  0.00     0.009 A 
HETATM   14  C   UNL     1      30.997  43.243  55.003  1.00  0.00     0.002 A 
HETATM   15  C   UNL     1      26.648  45.779  54.443  1.00  0.00     0.253 A 
HETATM   16  H   UNL     1      27.583  46.425  56.107  1.00  0.00     0.169 HD
HETATM   17  O   UNL     1      25.682  46.523  54.597  1.00  0.00    -0.268 OA
ENDBRANCH   4   5
ENDBRANCH   1   4
BRANCH   1  18
HETATM   18  C   UNL     1      26.395  45.076  49.947  1.00  0.00     0.158 C 
BRANCH  18  19
HETATM   19  C   UNL     1      26.078  43.573  49.894  1.00  0.00     0.139 C 
HETATM   20  O   UNL     1      27.240  42.852  49.429  1.00  0.00    -0.384 OA
HETATM   21  C   UNL     1      26.814  41.883  48.460  1.00  0.00     0.168 C 
HETATM   22  C   UNL     1      25.310  41.782  48.583  1.00  0.00     0.029 C 
HETATM   23  C   UNL     1      24.942  43.196  48.955  1.00  0.00     0.035 C 
ENDBRANCH  18  19
ENDBRANCH   1  18
BRANCH   2  24
HETATM   24  C   UNL     1      25.862  48.045  50.058  1.00  0.00     0.034 A 
HETATM   25  C   UNL     1      24.800  48.543  49.288  1.00  0.00     0.053 A 
HETATM   26  C   UNL     1      25.053  49.443  48.253  1.00  0.00     0.069 A 
HETATM   27  C   UNL     1      26.369  49.826  47.982  1.00  0.00     0.037 A 
HETATM   28  C   UNL     1      27.425  49.359  48.769  1.00  0.00     0.004 A 
HETATM   29  C   UNL     1      27.169  48.486  49.825  1.00  0.00     0.017 A 
BRANCH  26  30
HETATM   30  O   UNL     1      24.109  50.004  47.436  1.00  0.00    -0.356 OA
HETATM   31  C   UNL     1      23.049  50.700  48.086  1.00  0.00     0.210 C 
ENDBRANCH  26  30
ENDBRANCH   2  24
TORSDOF 6
ENDMDL
MODEL 2
REMARK VINA RESULT:     -10.2      1.834      4.370
REMARK  6 active torsions:
REMARK  status: ('A' for Active; 'I' for Inactive)
REMARK    1  A    between atoms: C_6  and  C_7 
REMARK    2  A    between atoms: C_7  and  N_8 
REMARK       I    between atoms: N_8  and  C_9 
REMARK    3  A    between atoms: N_8  and  C_19 
REMARK    4  A    between atoms: C_9  and  C_10 
REMARK    5  A    between atoms: C_12  and  O_13 
REMARK    6  A    between atoms: C_19  and  C_20 
ROOT
HETATM    1  N   UNL     1      25.617  45.868  51.934  1.00  0.00    -0.341 N 
HETATM    2  C   UNL     1      24.881  44.704  52.175  1.00  0.00     0.254 C 
HETATM    3  O   UNL     1      24.539  44.353  53.304  1.00  0.00    -0.267 OA
ENDROOT
BRANCH   1   4
HETATM    4  C   UNL     1      25.917  46.718  53.094  1.00  0.00     0.170 C 
BRANCH   4   5
HETATM    5  C   UNL     1      27.023  46.185  53.962  1.00  0.00     0.029 A 
HETATM    6  C   UNL     1      27.783  45.096  53.750  1.00  0.00     0.028 A 
HETATM    7  C   UNL     1      28.858  44.728  54.673  1.00  0.00    -0.008 A 
HETATM    8  C   UNL     1      29.104  45.527  55.800  1.00  0.00     0.051 A 
HETATM    9  C   UNL     1      29.652  43.603  54.439  1.00  0.00     0.014 A 
HETATM   10  C   UNL     1      30.138  45.213  56.698  1.00  0.00    -0.034 A 
HETATM   11  N   UNL     1      28.289  46.649  56.008  1.00  0.00    -0.322 N 
HETATM   12  C   UNL     1      30.433  46.057  57.905  1.00  0.00     0.050 C 
HETATM   13  C   UNL     1      30.924  44.079  56.442  1.00  0.00     0.009 A 
HETATM   14  C   UNL     1      30.681  43.280  55.323  1.00  0.00     0.002 A 
HETATM   15  C   UNL     1      27.269  47.021  55.178  1.00  0.00     0.253 A 
HETATM   16  H   UNL     1      28.431  47.245  56.810  1.00  0.00     0.169 HD
HETATM   17  O   UNL     1      26.579  48.005  55.433  1.00  0.00    -0.268 OA
ENDBRANCH   4   5
ENDBRANCH   1   4
BRANCH   1  18
HETATM   18  C   UNL     1      26.246  46.227  50.651  1.00  0.00     0.158 C 
BRANCH  18  19
HETATM   19  C   UNL     1      26.363  47.735  50.377  1.00  0.00     0.139 C 
HETATM   20  O   UNL     1      25.073  48.255  49.988  1.00  0.00    -0.384 OA
HETATM   21  C   UNL     1      25.256  49.126  48.862  1.00  0.00     0.168 C 
HETATM   22  C   UNL     1      26.739  49.407  48.771  1.00  0.00     0.029 C 
HETATM   23  C   UNL     1      27.324  48.105  49.256  1.00  0.00     0.035 C 
ENDBRANCH  18  19
ENDBRANCH   1  18
BRANCH   2  24
HETATM   24  C   UNL     1      24.472  43.819  51.059  1.00  0.00     0.034 A 
HETATM   25  C   UNL     1      23.322  44.169  50.337  1.00  0.00     0.053 A 
HETATM   26  C   UNL     1      22.923  43.397  49.246  1.00  0.00     0.069 A 
HETATM   27  C   UNL     1      23.668  42.268  48.895  1.00  0.00     0.037 A 
HETATM   28  C   UNL     1      24.833  41.937  49.591  1.00  0.00     0.004 A 
HETATM   29  C   UNL     1      25.250  42.727  50.661  1.00  0.00     0.017 A 
BRANCH  26  30
HETATM   30  O   UNL     1      21.829  43.635  48.459  1.00  0.00    -0.356 OA
HETATM   31  C   UNL     1      21.166  44.879  48.662  1.00  0.00     0.210 C 
ENDBRANCH  26  30
ENDBRANCH   2  24
TORSDOF 6
ENDMDL
MODEL 3
REMARK VINA RESULT:      -9.0      2.618      7.114
REMARK  6 active torsions:
REMARK  status: ('A' for Active; 'I' for Inactive)
REMARK    1  A    between atoms: C_6  and  C_7 
REMARK    2  A    between atoms: C_7  and  N_8 
REMARK       I    between atoms: N_8  and  C_9 
REMARK    3  A    between atoms: N_8  and  C_19 
REMARK    4  A    between atoms: C_9  and  C_10 
REMARK    5  A    between atoms: C_12  and  O_13 
REMARK    6  A    between atoms: C_19  and  C_20 
ROOT
HETATM    1  N   UNL     1      26.070  44.224  51.754  1.00  0.00    -0.341 N 
HETATM    2  C   UNL     1      25.858  44.447  53.118  1.00  0.00     0.254 C 
HETATM    3  O   UNL     1      24.868  44.026  53.716  1.00  0.00    -0.267 OA
ENDROOT
BRANCH   1   4
HETATM    4  C   UNL     1      25.082  43.391  51.054  1.00  0.00     0.170 C 
BRANCH   4   5
HETATM    5  C   UNL     1      25.667  42.147  50.444  1.00  0.00     0.029 A 
HETATM    6  C   UNL     1      26.829  41.545  50.757  1.00  0.00     0.028 A 
HETATM    7  C   UNL     1      27.244  40.305  50.097  1.00  0.00    -0.008 A 
HETATM    8  C   UNL     1      26.415  39.732  49.121  1.00  0.00     0.051 A 
HETATM    9  C   UNL     1      28.445  39.679  50.438  1.00  0.00     0.014 A 
HETATM   10  C   UNL     1      26.776  38.535  48.479  1.00  0.00    -0.034 A 
HETATM   11  N   UNL     1      25.217  40.385  48.801  1.00  0.00    -0.322 N 
HETATM   12  C   UNL     1      25.903  37.891  47.441  1.00  0.00     0.050 C 
HETATM   13  C   UNL     1      27.986  37.922  48.838  1.00  0.00     0.009 A 
HETATM   14  C   UNL     1      28.814  38.490  49.808  1.00  0.00     0.002 A 
HETATM   15  C   UNL     1      24.798  41.548  49.384  1.00  0.00     0.253 A 
HETATM   16  H   UNL     1      24.597  40.008  48.100  1.00  0.00     0.169 HD
HETATM   17  O   UNL     1      23.745  42.081  49.038  1.00  0.00    -0.268 OA
ENDBRANCH   4   5
ENDBRANCH   1   4
BRANCH   1  18
HETATM   18  C   UNL     1      27.103  44.880  50.934  1.00  0.00     0.158 C 
BRANCH  18  19
HETATM   19  C   UNL     1      26.587  45.944  49.954  1.00  0.00     0.139 C 
HETATM   20  O   UNL     1      27.683  46.426  49.146  1.00  0.00    -0.384 OA
HETATM   21  C   UNL     1      27.594  47.857  49.069  1.00  0.00     0.168 C 
HETATM   22  C   UNL     1      26.216  48.230  49.566  1.00  0.00     0.029 C 
HETATM   23  C   UNL     1      25.974  47.172  50.612  1.00  0.00     0.035 C 
ENDBRANCH  18  19
ENDBRANCH   1  18
BRANCH   2  24
HETATM   24  C   UNL     1      26.835  45.216  53.923  1.00  0.00     0.034 A 
HETATM   25  C   UNL     1      27.933  44.524  54.455  1.00  0.00     0.053 A 
HETATM   26  C   UNL     1      28.907  45.212  55.177  1.00  0.00     0.069 A 
HETATM   27  C   UNL     1      28.768  46.588  55.378  1.00  0.00     0.037 A 
HETATM   28  C   UNL     1      27.694  47.286  54.820  1.00  0.00     0.004 A 
HETATM   29  C   UNL     1      26.738  46.604  54.070  1.00  0.00     0.017 A 
BRANCH  26  30
HETATM   30  O   UNL     1      30.024  44.656  55.739  1.00  0.00    -0.356 OA
HETATM   31  C   UNL     1      30.497  43.453  55.140  1.00  0.00     0.210 C 
ENDBRANCH  26  30
ENDBRANCH   2  24
TORSDOF 6
ENDMDL
MODEL 4
REMARK VINA RESULT:      -9.0      1.968      3.250
REMARK  6 active torsions:
REMARK  status: ('A' for Active; 'I' for Inactive)
REMARK    1  A    between atoms: C_6  and  C_7 
REMARK    2  A    between atoms: C_7  and  N_8 
REMARK       I    between atoms: N_8  and  C_9 
REMARK    3  A    between atoms: N_8  and  C_19 
REMARK    4  A    between atoms: C_9  and  C_10 
REMARK    5  A    between atoms: C_12  and  O_13 
REMARK    6  A    between atoms: C_19  and  C_20 
ROOT
HETATM    1  N   UNL     1      26.233  43.226  51.327  1.00  0.00    -0.341 N 
HETATM    2  C   UNL     1      25.120  43.989  51.695  1.00  0.00     0.254 C 
HETATM    3  O   UNL     1      24.558  43.866  52.783  1.00  0.00    -0.267 OA
ENDROOT
BRANCH   1   4
HETATM    4  C   UNL     1      26.765  42.298  52.334  1.00  0.00     0.170 C 
BRANCH   4   5
HETATM    5  C   UNL     1      27.720  42.941  53.301  1.00  0.00     0.029 A 
HETATM    6  C   UNL     1      27.653  44.179  53.824  1.00  0.00     0.028 A 
HETATM    7  C   UNL     1      28.644  44.649  54.794  1.00  0.00    -0.008 A 
HETATM    8  C   UNL     1      29.683  43.793  55.189  1.00  0.00     0.051 A 
HETATM    9  C   UNL     1      28.559  45.930  55.343  1.00  0.00     0.014 A 
HETATM   10  C   UNL     1      30.642  44.207  56.129  1.00  0.00    -0.034 A 
HETATM   11  N   UNL     1      29.742  42.514  54.619  1.00  0.00    -0.322 N 
HETATM   12  C   UNL     1      31.757  43.308  56.581  1.00  0.00     0.050 C 
HETATM   13  C   UNL     1      30.537  45.498  56.669  1.00  0.00     0.009 A 
HETATM   14  C   UNL     1      29.504  46.352  56.277  1.00  0.00     0.002 A 
HETATM   15  C   UNL     1      28.845  42.040  53.704  1.00  0.00     0.253 A 
HETATM   16  H   UNL     1      30.478  41.871  54.873  1.00  0.00     0.169 HD
HETATM   17  O   UNL     1      28.969  40.914  53.227  1.00  0.00    -0.268 OA
ENDBRANCH   4   5
ENDBRANCH   1   4
BRANCH   1  18
HETATM   18  C   UNL     1      26.811  43.160  49.974  1.00  0.00     0.158 C 
BRANCH  18  19
HETATM   19  C   UNL     1      26.901  41.752  49.365  1.00  0.00     0.139 C 
HETATM   20  O   UNL     1      27.607  41.816  48.107  1.00  0.00    -0.384 OA
HETATM   21  C   UNL     1      26.897  41.019  47.148  1.00  0.00     0.168 C 
HETATM   22  C   UNL     1      25.915  40.176  47.930  1.00  0.00     0.029 C 
HETATM   23  C   UNL     1      25.558  41.103  49.064  1.00  0.00     0.035 C 
ENDBRANCH  18  19
ENDBRANCH   1  18
BRANCH   2  24
HETATM   24  C   UNL     1      24.555  45.001  50.772  1.00  0.00     0.034 A 
HETATM   25  C   UNL     1      25.105  46.291  50.801  1.00  0.00     0.053 A 
HETATM   26  C   UNL     1      24.642  47.265  49.917  1.00  0.00     0.069 A 
HETATM   27  C   UNL     1      23.617  46.948  49.021  1.00  0.00     0.037 A 
HETATM   28  C   UNL     1      23.092  45.655  48.967  1.00  0.00     0.004 A 
HETATM   29  C   UNL     1      23.577  44.671  49.827  1.00  0.00     0.017 A 
BRANCH  26  30
HETATM   30  O   UNL     1      25.098  48.553  49.840  1.00  0.00    -0.356 OA
HETATM   31  C   UNL     1      26.323  48.745  49.139  1.00  0.00     0.210 C 
ENDBRANCH  26  30
ENDBRANCH   2  24
TORSDOF 6
ENDMDL
MODEL 5
REMARK VINA RESULT:      -8.8      2.192      7.381
REMARK  6 active torsions:
REMARK  status: ('A' for Active; 'I' for Inactive)
REMARK    1  A    between atoms: C_6  and  C_7 
REMARK    2  A    between atoms: C_7  and  N_8 
REMARK       I    between atoms: N_8  and  C_9 
REMARK    3  A    between atoms: N_8  and  C_19 
REMARK    4  A    between atoms: C_9  and  C_10 
REMARK    5  A    between atoms: C_12  and  O_13 
REMARK    6  A    between atoms: C_19  and  C_20 
ROOT
HETATM    1  N   UNL     1      26.292  43.601  52.001  1.00  0.00    -0.341 N 
HETATM    2  C   UNL     1      26.441  43.843  53.370  1.00  0.00     0.254 C 
HETATM    3  O   UNL     1      25.487  44.066  54.115  1.00  0.00    -0.267 OA
ENDROOT
BRANCH   1   4
HETATM    4  C   UNL     1      24.920  43.551  51.479  1.00  0.00     0.170 C 
BRANCH   4   5
HETATM    5  C   UNL     1      24.507  44.799  50.750  1.00  0.00     0.029 A 
HETATM    6  C   UNL     1      25.216  45.930  50.586  1.00  0.00     0.028 A 
HETATM    7  C   UNL     1      24.689  47.052  49.807  1.00  0.00    -0.008 A 
HETATM    8  C   UNL     1      23.420  46.947  49.218  1.00  0.00     0.051 A 
HETATM    9  C   UNL     1      25.438  48.217  49.630  1.00  0.00     0.014 A 
HETATM   10  C   UNL     1      22.890  47.999  48.451  1.00  0.00    -0.034 A 
HETATM   11  N   UNL     1      22.693  45.765  49.415  1.00  0.00    -0.322 N 
HETATM   12  C   UNL     1      21.541  47.910  47.797  1.00  0.00     0.050 C 
HETATM   13  C   UNL     1      23.661  49.160  48.285  1.00  0.00     0.009 A 
HETATM   14  C   UNL     1      24.924  49.268  48.871  1.00  0.00     0.002 A 
HETATM   15  C   UNL     1      23.142  44.700  50.143  1.00  0.00     0.253 A 
HETATM   16  H   UNL     1      21.774  45.654  49.012  1.00  0.00     0.169 HD
HETATM   17  O   UNL     1      22.441  43.702  50.295  1.00  0.00    -0.268 OA
ENDBRANCH   4   5
ENDBRANCH   1   4
BRANCH   1  18
HETATM   18  C   UNL     1      27.391  43.551  51.021  1.00  0.00     0.158 C 
BRANCH  18  19
HETATM   19  C   UNL     1      27.631  42.178  50.373  1.00  0.00     0.139 C 
HETATM   20  O   UNL     1      27.224  42.221  48.988  1.00  0.00    -0.384 OA
HETATM   21  C   UNL     1      26.477  41.030  48.698  1.00  0.00     0.168 C 
HETATM   22  C   UNL     1      26.721  40.078  49.847  1.00  0.00     0.029 C 
HETATM   23  C   UNL     1      26.857  41.031  51.007  1.00  0.00     0.035 C 
ENDBRANCH  18  19
ENDBRANCH   1  18
BRANCH   2  24
HETATM   24  C   UNL     1      27.782  43.843  54.000  1.00  0.00     0.034 A 
HETATM   25  C   UNL     1      28.145  44.964  54.761  1.00  0.00     0.053 A 
HETATM   26  C   UNL     1      29.376  44.991  55.417  1.00  0.00     0.069 A 
HETATM   27  C   UNL     1      30.244  43.903  55.292  1.00  0.00     0.037 A 
HETATM   28  C   UNL     1      29.870  42.771  54.564  1.00  0.00     0.004 A 
HETATM   29  C   UNL     1      28.627  42.730  53.936  1.00  0.00     0.017 A 
BRANCH  26  30
HETATM   30  O   UNL     1      29.843  46.017  56.192  1.00  0.00    -0.356 OA
HETATM   31  C   UNL     1      29.339  46.081  57.523  1.00  0.00     0.210 C 
ENDBRANCH  26  30
ENDBRANCH   2  24
TORSDOF 6
ENDMDL
MODEL 6
REMARK VINA RESULT:      -8.4      2.124      3.106
REMARK  6 active torsions:
REMARK  status: ('A' for Active; 'I' for Inactive)
REMARK    1  A    between atoms: C_6  and  C_7 
REMARK    2  A    between atoms: C_7  and  N_8 
REMARK       I    between atoms: N_8  and  C_9 
REMARK    3  A    between atoms: N_8  and  C_19 
REMARK    4  A    between atoms: C_9  and  C_10 
REMARK    5  A    between atoms: C_12  and  O_13 
REMARK    6  A    between atoms: C_19  and  C_20 
ROOT
HETATM    1  N   UNL     1      26.105  43.995  50.640  1.00  0.00    -0.341 N 
HETATM    2  C   UNL     1      26.195  45.152  49.861  1.00  0.00     0.254 C 
HETATM    3  O   UNL     1      27.268  45.603  49.459  1.00  0.00    -0.267 OA
ENDROOT
BRANCH   1   4
HETATM    4  C   UNL     1      27.357  43.276  50.913  1.00  0.00     0.170 C 
BRANCH   4   5
HETATM    5  C   UNL     1      28.018  43.685  52.200  1.00  0.00     0.029 A 
HETATM    6  C   UNL     1      27.761  44.772  52.949  1.00  0.00     0.028 A 
HETATM    7  C   UNL     1      28.466  45.012  54.210  1.00  0.00    -0.008 A 
HETATM    8  C   UNL     1      29.427  44.089  54.648  1.00  0.00     0.051 A 
HETATM    9  C   UNL     1      28.182  46.136  54.988  1.00  0.00     0.014 A 
HETATM   10  C   UNL     1      30.111  44.280  55.861  1.00  0.00    -0.034 A 
HETATM   11  N   UNL     1      29.690  42.971  53.844  1.00  0.00    -0.322 N 
HETATM   12  C   UNL     1      31.136  43.303  56.362  1.00  0.00     0.050 C 
HETATM   13  C   UNL     1      29.810  45.416  56.628  1.00  0.00     0.009 A 
HETATM   14  C   UNL     1      28.854  46.336  56.193  1.00  0.00     0.002 A 
HETATM   15  C   UNL     1      29.063  42.716  52.657  1.00  0.00     0.253 A 
HETATM   16  H   UNL     1      30.379  42.288  54.123  1.00  0.00     0.169 HD
HETATM   17  O   UNL     1      29.359  41.727  51.990  1.00  0.00    -0.268 OA
ENDBRANCH   4   5
ENDBRANCH   1   4
BRANCH   1  18
HETATM   18  C   UNL     1      24.893  43.529  51.335  1.00  0.00     0.158 C 
BRANCH  18  19
HETATM   19  C   UNL     1      24.152  42.366  50.657  1.00  0.00     0.139 C 
HETATM   20  O   UNL     1      25.013  41.759  49.668  1.00  0.00    -0.384 OA
HETATM   21  C   UNL     1      24.245  41.530  48.477  1.00  0.00     0.168 C 
HETATM   22  C   UNL     1      22.792  41.693  48.864  1.00  0.00     0.029 C 
HETATM   23  C   UNL     1      22.880  42.763  49.923  1.00  0.00     0.035 C 
ENDBRANCH  18  19
ENDBRANCH   1  18
BRANCH   2  24
HETATM   24  C   UNL     1      24.980  45.906  49.476  1.00  0.00     0.034 A 
HETATM   25  C   UNL     1      24.872  47.236  49.907  1.00  0.00     0.053 A 
HETATM   26  C   UNL     1      23.771  48.004  49.528  1.00  0.00     0.069 A 
HETATM   27  C   UNL     1      22.774  47.430  48.734  1.00  0.00     0.037 A 
HETATM   28  C   UNL     1      22.896  46.116  48.274  1.00  0.00     0.004 A 
HETATM   29  C   UNL     1      24.012  45.359  48.625  1.00  0.00     0.017 A 
BRANCH  26  30
HETATM   30  O   UNL     1      23.553  49.309  49.875  1.00  0.00    -0.356 OA
HETATM   31  C   UNL     1      23.746  50.275  48.846  1.00  0.00     0.210 C 
ENDBRANCH  26  30
ENDBRANCH   2  24
TORSDOF 6
ENDMDL
MODEL 7
REMARK VINA RESULT:      -8.2     11.372     14.056
REMARK  6 active torsions:
REMARK  status: ('A' for Active; 'I' for Inactive)
REMARK    1  A    between atoms: C_6  and  C_7 
REMARK    2  A    between atoms: C_7  and  N_8 
REMARK       I    between atoms: N_8  and  C_9 
REMARK    3  A    between atoms: N_8  and  C_19 
REMARK    4  A    between atoms: C_9  and  C_10 
REMARK    5  A    between atoms: C_12  and  O_13 
REMARK    6  A    between atoms: C_19  and  C_20 
ROOT
HETATM    1  N   UNL     1      31.614  50.220  40.152  1.00  0.00    -0.341 N 
HETATM    2  C   UNL     1      32.203  49.611  41.264  1.00  0.00     0.254 C 
HETATM    3  O   UNL     1      32.245  48.390  41.411  1.00  0.00    -0.267 OA
ENDROOT
BRANCH   1   4
HETATM    4  C   UNL     1      31.095  49.332  39.103  1.00  0.00     0.170 C 
BRANCH   4   5
HETATM    5  C   UNL     1      29.624  49.050  39.225  1.00  0.00     0.029 A 
HETATM    6  C   UNL     1      29.023  48.132  40.003  1.00  0.00     0.028 A 
HETATM    7  C   UNL     1      27.565  48.006  40.044  1.00  0.00    -0.008 A 
HETATM    8  C   UNL     1      26.777  48.861  39.258  1.00  0.00     0.051 A 
HETATM    9  C   UNL     1      26.949  47.060  40.865  1.00  0.00     0.014 A 
HETATM   10  C   UNL     1      25.374  48.778  39.285  1.00  0.00    -0.034 A 
HETATM   11  N   UNL     1      27.425  49.800  38.444  1.00  0.00    -0.322 N 
HETATM   12  C   UNL     1      24.504  49.688  38.466  1.00  0.00     0.050 C 
HETATM   13  C   UNL     1      24.776  47.821  40.118  1.00  0.00     0.009 A 
HETATM   14  C   UNL     1      25.558  46.968  40.900  1.00  0.00     0.002 A 
HETATM   15  C   UNL     1      28.782  49.942  38.368  1.00  0.00     0.253 A 
HETATM   16  H   UNL     1      26.893  50.428  37.860  1.00  0.00     0.169 HD
HETATM   17  O   UNL     1      29.285  50.772  37.614  1.00  0.00    -0.268 OA
ENDBRANCH   4   5
ENDBRANCH   1   4
BRANCH   1  18
HETATM   18  C   UNL     1      31.330  51.660  40.020  1.00  0.00     0.158 C 
BRANCH  18  19
HETATM   19  C   UNL     1      30.259  52.208  40.976  1.00  0.00     0.139 C 
HETATM   20  O   UNL     1      29.530  51.108  41.564  1.00  0.00    -0.384 OA
HETATM   21  C   UNL     1      28.130  51.425  41.534  1.00  0.00     0.168 C 
HETATM   22  C   UNL     1      28.029  52.902  41.224  1.00  0.00     0.029 C 
HETATM   23  C   UNL     1      29.218  53.103  40.320  1.00  0.00     0.035 C 
ENDBRANCH  18  19
ENDBRANCH   1  18
BRANCH   2  24
HETATM   24  C   UNL     1      32.815  50.424  42.341  1.00  0.00     0.034 A 
HETATM   25  C   UNL     1      34.135  50.860  42.159  1.00  0.00     0.053 A 
HETATM   26  C   UNL     1      34.739  51.671  43.120  1.00  0.00     0.069 A 
HETATM   27  C   UNL     1      34.024  52.025  44.267  1.00  0.00     0.037 A 
HETATM   28  C   UNL     1      32.698  51.621  44.434  1.00  0.00     0.004 A 
HETATM   29  C   UNL     1      32.082  50.839  43.458  1.00  0.00     0.017 A 
BRANCH  26  30
HETATM   30  O   UNL     1      36.014  52.166  43.058  1.00  0.00    -0.356 OA
HETATM   31  C   UNL     1      36.426  52.981  44.150  1.00  0.00     0.210 C 
ENDBRANCH  26  30
ENDBRANCH   2  24
TORSDOF 6
ENDMDL
MODEL 8
REMARK VINA RESULT:      -8.2      7.670     12.915
REMARK  6 active torsions:
REMARK  status: ('A' for Active; 'I' for Inactive)
REMARK    1  A    between atoms: C_6  and  C_7 
REMARK    2  A    between atoms: C_7  and  N_8 
REMARK       I    between atoms: N_8  and  C_9 
REMARK    3  A    between atoms: N_8  and  C_19 
REMARK    4  A    between atoms: C_9  and  C_10 
REMARK    5  A    between atoms: C_12  and  O_13 
REMARK    6  A    between atoms: C_19  and  C_20 
ROOT
HETATM    1  N   UNL     1      17.641  50.210  47.999  1.00  0.00    -0.341 N 
HETATM    2  C   UNL     1      18.695  51.081  47.702  1.00  0.00     0.254 C 
HETATM    3  O   UNL     1      18.578  52.027  46.923  1.00  0.00    -0.267 OA
ENDROOT
BRANCH   1   4
HETATM    4  C   UNL     1      16.338  50.510  47.391  1.00  0.00     0.170 C 
BRANCH   4   5
HETATM    5  C   UNL     1      15.668  51.725  47.969  1.00  0.00     0.029 A 
HETATM    6  C   UNL     1      15.438  52.000  49.265  1.00  0.00     0.028 A 
HETATM    7  C   UNL     1      14.808  53.256  49.676  1.00  0.00    -0.008 A 
HETATM    8  C   UNL     1      14.437  54.193  48.700  1.00  0.00     0.051 A 
HETATM    9  C   UNL     1      14.586  53.540  51.025  1.00  0.00     0.014 A 
HETATM   10  C   UNL     1      13.845  55.416  49.059  1.00  0.00    -0.034 A 
HETATM   11  N   UNL     1      14.673  53.879  47.354  1.00  0.00    -0.322 N 
HETATM   12  C   UNL     1      13.450  56.444  48.038  1.00  0.00     0.050 C 
HETATM   13  C   UNL     1      13.632  55.681  50.421  1.00  0.00     0.009 A 
HETATM   14  C   UNL     1      13.998  54.750  51.395  1.00  0.00     0.002 A 
HETATM   15  C   UNL     1      15.248  52.715  46.928  1.00  0.00     0.253 A 
HETATM   16  H   UNL     1      14.415  54.525  46.622  1.00  0.00     0.169 HD
HETATM   17  O   UNL     1      15.404  52.493  45.729  1.00  0.00    -0.268 OA
ENDBRANCH   4   5
ENDBRANCH   1   4
BRANCH   1  18
HETATM   18  C   UNL     1      17.768  48.942  48.738  1.00  0.00     0.158 C 
BRANCH  18  19
HETATM   19  C   UNL     1      18.444  47.798  47.966  1.00  0.00     0.139 C 
HETATM   20  O   UNL     1      17.495  46.726  47.767  1.00  0.00    -0.384 OA
HETATM   21  C   UNL     1      18.151  45.482  48.055  1.00  0.00     0.168 C 
HETATM   22  C   UNL     1      19.633  45.777  48.108  1.00  0.00     0.029 C 
HETATM   23  C   UNL     1      19.642  47.177  48.668  1.00  0.00     0.035 C 
ENDBRANCH  18  19
ENDBRANCH   1  18
BRANCH   2  24
HETATM   24  C   UNL     1      20.028  50.901  48.322  1.00  0.00     0.034 A 
HETATM   25  C   UNL     1      21.089  50.515  47.490  1.00  0.00     0.053 A 
HETATM   26  C   UNL     1      22.373  50.381  48.017  1.00  0.00     0.069 A 
HETATM   27  C   UNL     1      22.586  50.618  49.377  1.00  0.00     0.037 A 
HETATM   28  C   UNL     1      21.538  51.036  50.201  1.00  0.00     0.004 A 
HETATM   29  C   UNL     1      20.260  51.201  49.669  1.00  0.00     0.017 A 
BRANCH  26  30
HETATM   30  O   UNL     1      23.489  50.020  47.312  1.00  0.00    -0.356 OA
HETATM   31  C   UNL     1      24.702  49.937  48.053  1.00  0.00     0.210 C 
ENDBRANCH  26  30
ENDBRANCH   2  24
TORSDOF 6
ENDMDL
MODEL 9
REMARK VINA RESULT:      -8.0     16.286     18.871
REMARK  6 active torsions:
REMARK  status: ('A' for Active; 'I' for Inactive)
REMARK    1  A    between atoms: C_6  and  C_7 
REMARK    2  A    between atoms: C_7  and  N_8 
REMARK       I    between atoms: N_8  and  C_9 
REMARK    3  A    between atoms: N_8  and  C_19 
REMARK    4  A    between atoms: C_9  and  C_10 
REMARK    5  A    between atoms: C_12  and  O_13 
REMARK    6  A    between atoms: C_19  and  C_20 
ROOT
HETATM    1  N   UNL     1      37.084  44.189  63.956  1.00  0.00    -0.341 N 
HETATM    2  C   UNL     1      36.962  42.876  64.420  1.00  0.00     0.254 C 
HETATM    3  O   UNL     1      35.993  42.487  65.073  1.00  0.00    -0.267 OA
ENDROOT
BRANCH   1   4
HETATM    4  C   UNL     1      35.958  45.096  64.218  1.00  0.00     0.170 C 
BRANCH   4   5
HETATM    5  C   UNL     1      36.325  46.284  65.062  1.00  0.00     0.029 A 
HETATM    6  C   UNL     1      36.895  47.435  64.661  1.00  0.00     0.028 A 
HETATM    7  C   UNL     1      37.153  48.525  65.603  1.00  0.00    -0.008 A 
HETATM    8  C   UNL     1      36.800  48.369  66.952  1.00  0.00     0.051 A 
HETATM    9  C   UNL     1      37.732  49.722  65.175  1.00  0.00     0.014 A 
HETATM   10  C   UNL     1      37.019  49.401  67.881  1.00  0.00    -0.034 A 
HETATM   11  N   UNL     1      36.221  47.156  67.350  1.00  0.00    -0.322 N 
HETATM   12  C   UNL     1      36.639  49.267  69.327  1.00  0.00     0.050 C 
HETATM   13  C   UNL     1      37.601  50.595  67.429  1.00  0.00     0.009 A 
HETATM   14  C   UNL     1      37.955  50.753  66.087  1.00  0.00     0.002 A 
HETATM   15  C   UNL     1      35.973  46.110  66.506  1.00  0.00     0.253 A 
HETATM   16  H   UNL     1      35.959  47.003  68.313  1.00  0.00     0.169 HD
HETATM   17  O   UNL     1      35.484  45.064  66.927  1.00  0.00    -0.268 OA
ENDBRANCH   4   5
ENDBRANCH   1   4
BRANCH   1  18
HETATM   18  C   UNL     1      38.303  44.775  63.371  1.00  0.00     0.158 C 
BRANCH  18  19
HETATM   19  C   UNL     1      39.551  44.724  64.266  1.00  0.00     0.139 C 
HETATM   20  O   UNL     1      39.913  46.064  64.664  1.00  0.00    -0.384 OA
HETATM   21  C   UNL     1      41.335  46.209  64.526  1.00  0.00     0.168 C 
HETATM   22  C   UNL     1      41.896  44.815  64.360  1.00  0.00     0.029 C 
HETATM   23  C   UNL     1      40.785  44.130  63.604  1.00  0.00     0.035 C 
ENDBRANCH  18  19
ENDBRANCH   1  18
BRANCH   2  24
HETATM   24  C   UNL     1      38.014  41.871  64.144  1.00  0.00     0.034 A 
HETATM   25  C   UNL     1      38.608  41.230  65.241  1.00  0.00     0.053 A 
HETATM   26  C   UNL     1      39.568  40.239  65.033  1.00  0.00     0.069 A 
HETATM   27  C   UNL     1      39.941  39.909  63.727  1.00  0.00     0.037 A 
HETATM   28  C   UNL     1      39.326  40.521  62.633  1.00  0.00     0.004 A 
HETATM   29  C   UNL     1      38.343  41.487  62.840  1.00  0.00     0.017 A 
BRANCH  26  30
HETATM   30  O   UNL     1      40.214  39.537  66.014  1.00  0.00    -0.356 OA
HETATM   31  C   UNL     1      40.262  38.123  65.848  1.00  0.00     0.210 C 
ENDBRANCH  26  30
ENDBRANCH   2  24
TORSDOF 6
ENDMDL
MODEL 10
REMARK VINA RESULT:      -8.0      4.206      7.388
REMARK  6 active torsions:
REMARK  status: ('A' for Active; 'I' for Inactive)
REMARK    1  A    between atoms: C_6  and  C_7 
REMARK    2  A    between atoms: C_7  and  N_8 
REMARK       I    between atoms: N_8  and  C_9 
REMARK    3  A    between atoms: N_8  and  C_19 
REMARK    4  A    between atoms: C_9  and  C_10 
REMARK    5  A    between atoms: C_12  and  O_13 
REMARK    6  A    between atoms: C_19  and  C_20 
ROOT
HETATM    1  N   UNL     1      21.251  48.668  48.242  1.00  0.00    -0.341 N 
HETATM    2  C   UNL     1      21.193  50.032  47.944  1.00  0.00     0.254 C 
HETATM    3  O   UNL     1      22.091  50.622  47.342  1.00  0.00    -0.267 OA
ENDROOT
BRANCH   1   4
HETATM    4  C   UNL     1      22.416  47.925  47.741  1.00  0.00     0.170 C 
BRANCH   4   5
HETATM    5  C   UNL     1      23.097  47.093  48.791  1.00  0.00     0.029 A 
HETATM    6  C   UNL     1      23.041  45.758  48.949  1.00  0.00     0.028 A 
HETATM    7  C   UNL     1      23.801  45.084  50.003  1.00  0.00    -0.008 A 
HETATM    8  C   UNL     1      24.606  45.843  50.866  1.00  0.00     0.051 A 
HETATM    9  C   UNL     1      23.748  43.697  50.151  1.00  0.00     0.014 A 
HETATM   10  C   UNL     1      25.361  45.227  51.879  1.00  0.00    -0.034 A 
HETATM   11  N   UNL     1      24.637  47.234  50.693  1.00  0.00    -0.322 N 
HETATM   12  C   UNL     1      26.242  46.012  52.808  1.00  0.00     0.050 C 
HETATM   13  C   UNL     1      25.293  43.831  52.008  1.00  0.00     0.009 A 
HETATM   14  C   UNL     1      24.492  43.073  51.152  1.00  0.00     0.002 A 
HETATM   15  C   UNL     1      23.936  47.903  49.730  1.00  0.00     0.253 A 
HETATM   16  H   UNL     1      25.200  47.814  51.297  1.00  0.00     0.169 HD
HETATM   17  O   UNL     1      23.991  49.128  49.649  1.00  0.00    -0.268 OA
ENDBRANCH   4   5
ENDBRANCH   1   4
BRANCH   1  18
HETATM   18  C   UNL     1      20.330  47.954  49.143  1.00  0.00     0.158 C 
BRANCH  18  19
HETATM   19  C   UNL     1      19.114  47.307  48.461  1.00  0.00     0.139 C 
HETATM   20  O   UNL     1      19.219  47.476  47.030  1.00  0.00    -0.384 OA
HETATM   21  C   UNL     1      17.936  47.878  46.527  1.00  0.00     0.168 C 
HETATM   22  C   UNL     1      16.939  47.622  47.634  1.00  0.00     0.029 C 
HETATM   23  C   UNL     1      17.771  47.899  48.860  1.00  0.00     0.035 C 
ENDBRANCH  18  19
ENDBRANCH   1  18
BRANCH   2  24
HETATM   24  C   UNL     1      20.026  50.850  48.346  1.00  0.00     0.034 A 
HETATM   25  C   UNL     1      19.030  51.083  47.387  1.00  0.00     0.053 A 
HETATM   26  C   UNL     1      17.886  51.804  47.731  1.00  0.00     0.069 A 
HETATM   27  C   UNL     1      17.754  52.303  49.029  1.00  0.00     0.037 A 
HETATM   28  C   UNL     1      18.727  52.042  49.996  1.00  0.00     0.004 A 
HETATM   29  C   UNL     1      19.855  51.294  49.662  1.00  0.00     0.017 A 
BRANCH  26  30
HETATM   30  O   UNL     1      16.844  52.092  46.892  1.00  0.00    -0.356 OA
HETATM   31  C   UNL     1      15.633  51.380  47.126  1.00  0.00     0.210 C 
ENDBRANCH  26  30
ENDBRANCH   2  24
TORSDOF 6
ENDMDL
