MODEL 1
REMARK VINA RESULT:      -9.1      0.000      0.000
REMARK  6 active torsions:
REMARK  status: ('A' for Active; 'I' for Inactive)
REMARK    1  A    between atoms: O_2  and  C_3 
REMARK    2  A    between atoms: C_6  and  C_7 
REMARK    3  A    between atoms: C_7  and  N_8 
REMARK       I    between atoms: N_8  and  C_9 
REMARK    4  A    between atoms: C_9  and  C_10 
REMARK    5  A    between atoms: C_13  and  C_14 
REMARK    6  A    between atoms: C_19  and  C_20 
ROOT
HETATM    1  C   UNL     1      23.379  47.177  49.142  1.00  0.00     0.096 A 
HETATM    2  C   UNL     1      24.471  46.374  49.408  1.00  0.00     0.138 A 
HETATM    3  N   UNL     1      24.082  45.089  49.148  1.00  0.00    -0.240 N 
HETATM    4  C   UNL     1      24.908  43.921  49.381  1.00  0.00     0.221 C 
HETATM    5  C   UNL     1      26.390  44.324  49.523  1.00  0.00     0.066 C 
HETATM    6  C   UNL     1      26.620  45.615  50.335  1.00  0.00     0.118 C 
HETATM    7  N   UNL     1      25.724  46.652  49.842  1.00  0.00    -0.365 N 
HETATM    8  N   UNL     1      22.854  44.997  48.612  1.00  0.00    -0.181 NA
HETATM    9  C   UNL     1      22.419  46.263  48.640  1.00  0.00     0.160 A 
HETATM   10  H   UNL     1      25.937  47.607  50.149  1.00  0.00     0.161 HD
ENDROOT
BRANCH   1  11
HETATM   11  C   UNL     1      23.319  48.613  49.358  1.00  0.00     0.257 C 
HETATM   12  N   UNL     1      22.057  49.145  49.489  1.00  0.00    -0.352 N 
HETATM   13  H   UNL     1      21.242  48.552  49.488  1.00  0.00     0.163 HD
HETATM   14  O   UNL     1      24.333  49.304  49.430  1.00  0.00    -0.267 OA
BRANCH  12  15
HETATM   15  C   UNL     1      21.858  50.550  49.766  1.00  0.00     0.161 C 
BRANCH  15  16
HETATM   16  C   UNL     1      20.441  50.988  49.492  1.00  0.00    -0.040 A 
HETATM   17  C   UNL     1      19.386  50.473  50.255  1.00  0.00     0.011 A 
HETATM   18  C   UNL     1      18.079  50.926  50.054  1.00  0.00     0.037 A 
HETATM   19  C   UNL     1      17.803  51.908  49.101  1.00  0.00     0.068 A 
HETATM   20  C   UNL     1      18.847  52.428  48.338  1.00  0.00     0.037 A 
HETATM   21  C   UNL     1      20.157  51.979  48.540  1.00  0.00     0.011 A 
BRANCH  19  22
HETATM   22  O   UNL     1      16.487  52.271  49.017  1.00  0.00    -0.356 OA
HETATM   23  C   UNL     1      15.995  53.129  50.039  1.00  0.00     0.210 C 
ENDBRANCH  19  22
ENDBRANCH  15  16
ENDBRANCH  12  15
ENDBRANCH   1  11
BRANCH   4  24
HETATM   24  C   UNL     1      24.376  43.135  50.561  1.00  0.00     0.409 C 
HETATM   25  F   UNL     1      25.281  42.318  51.131  1.00  0.00    -0.169 F 
HETATM   26  F   UNL     1      23.897  43.946  51.533  1.00  0.00    -0.169 F 
HETATM   27  F   UNL     1      23.328  42.362  50.170  1.00  0.00    -0.169 F 
ENDBRANCH   4  24
BRANCH   6  28
HETATM   28  C   UNL     1      26.579  45.459  51.847  1.00  0.00    -0.035 A 
HETATM   29  C   UNL     1      27.307  44.421  52.456  1.00  0.00     0.009 A 
HETATM   30  C   UNL     1      27.313  44.261  53.844  1.00  0.00     0.001 A 
HETATM   31  C   UNL     1      26.602  45.144  54.652  1.00  0.00     0.000 A 
HETATM   32  C   UNL     1      25.888  46.189  54.072  1.00  0.00     0.001 A 
HETATM   33  C   UNL     1      25.881  46.348  52.685  1.00  0.00     0.009 A 
ENDBRANCH   6  28
TORSDOF 6
ENDMDL
MODEL 2
REMARK VINA RESULT:      -8.7      5.797      9.767
REMARK  6 active torsions:
REMARK  status: ('A' for Active; 'I' for Inactive)
REMARK    1  A    between atoms: O_2  and  C_3 
REMARK    2  A    between atoms: C_6  and  C_7 
REMARK    3  A    between atoms: C_7  and  N_8 
REMARK       I    between atoms: N_8  and  C_9 
REMARK    4  A    between atoms: C_9  and  C_10 
REMARK    5  A    between atoms: C_13  and  C_14 
REMARK    6  A    between atoms: C_19  and  C_20 
ROOT
HETATM    1  C   UNL     1      24.958  43.388  49.395  1.00  0.00     0.096 A 
HETATM    2  C   UNL     1      25.110  43.628  50.747  1.00  0.00     0.138 A 
HETATM    3  N   UNL     1      24.957  44.976  50.922  1.00  0.00    -0.240 N 
HETATM    4  C   UNL     1      25.128  45.661  52.188  1.00  0.00     0.221 C 
HETATM    5  C   UNL     1      25.055  44.661  53.361  1.00  0.00     0.066 C 
HETATM    6  C   UNL     1      25.775  43.323  53.095  1.00  0.00     0.118 C 
HETATM    7  N   UNL     1      25.363  42.810  51.796  1.00  0.00    -0.365 N 
HETATM    8  N   UNL     1      24.592  45.625  49.805  1.00  0.00    -0.181 NA
HETATM    9  C   UNL     1      24.625  44.664  48.874  1.00  0.00     0.160 A 
HETATM   10  H   UNL     1      25.599  41.830  51.609  1.00  0.00     0.161 HD
ENDROOT
BRANCH   1  11
HETATM   11  C   UNL     1      25.120  42.097  48.748  1.00  0.00     0.257 C 
HETATM   12  N   UNL     1      26.345  41.873  48.161  1.00  0.00    -0.352 N 
HETATM   13  H   UNL     1      27.086  42.552  48.235  1.00  0.00     0.163 HD
HETATM   14  O   UNL     1      24.224  41.256  48.736  1.00  0.00    -0.267 OA
BRANCH  12  15
HETATM   15  C   UNL     1      26.659  40.609  47.534  1.00  0.00     0.161 C 
BRANCH  15  16
HETATM   16  C   UNL     1      27.692  39.831  48.310  1.00  0.00    -0.040 A 
HETATM   17  C   UNL     1      27.983  40.177  49.636  1.00  0.00     0.011 A 
HETATM   18  C   UNL     1      28.887  39.418  50.384  1.00  0.00     0.037 A 
HETATM   19  C   UNL     1      29.506  38.296  49.830  1.00  0.00     0.068 A 
HETATM   20  C   UNL     1      29.222  37.943  48.512  1.00  0.00     0.037 A 
HETATM   21  C   UNL     1      28.313  38.698  47.762  1.00  0.00     0.011 A 
BRANCH  19  22
HETATM   22  O   UNL     1      30.356  37.635  50.674  1.00  0.00    -0.356 OA
HETATM   23  C   UNL     1      29.802  36.566  51.430  1.00  0.00     0.210 C 
ENDBRANCH  19  22
ENDBRANCH  15  16
ENDBRANCH  12  15
ENDBRANCH   1  11
BRANCH   4  24
HETATM   24  C   UNL     1      26.398  46.483  52.168  1.00  0.00     0.409 C 
HETATM   25  F   UNL     1      26.257  47.703  51.618  1.00  0.00    -0.169 F 
HETATM   26  F   UNL     1      26.907  46.657  53.410  1.00  0.00    -0.169 F 
HETATM   27  F   UNL     1      27.360  45.834  51.458  1.00  0.00    -0.169 F 
ENDBRANCH   4  24
BRANCH   6  28
HETATM   28  C   UNL     1      27.285  43.340  53.279  1.00  0.00    -0.035 A 
HETATM   29  C   UNL     1      27.833  43.855  54.469  1.00  0.00     0.009 A 
HETATM   30  C   UNL     1      29.213  43.864  54.683  1.00  0.00     0.001 A 
HETATM   31  C   UNL     1      30.073  43.346  53.720  1.00  0.00     0.000 A 
HETATM   32  C   UNL     1      29.553  42.815  52.543  1.00  0.00     0.001 A 
HETATM   33  C   UNL     1      28.173  42.807  52.328  1.00  0.00     0.009 A 
ENDBRANCH   6  28
TORSDOF 6
ENDMDL
MODEL 3
REMARK VINA RESULT:      -8.5      3.684      8.936
REMARK  6 active torsions:
REMARK  status: ('A' for Active; 'I' for Inactive)
REMARK    1  A    between atoms: O_2  and  C_3 
REMARK    2  A    between atoms: C_6  and  C_7 
REMARK    3  A    between atoms: C_7  and  N_8 
REMARK       I    between atoms: N_8  and  C_9 
REMARK    4  A    between atoms: C_9  and  C_10 
REMARK    5  A    between atoms: C_13  and  C_14 
REMARK    6  A    between atoms: C_19  and  C_20 
ROOT
HETATM    1  C   UNL     1      21.917  47.424  48.239  1.00  0.00     0.096 A 
HETATM    2  C   UNL     1      20.667  47.722  48.745  1.00  0.00     0.138 A 
HETATM    3  N   UNL     1      19.758  47.156  47.895  1.00  0.00    -0.240 N 
HETATM    4  C   UNL     1      18.321  47.306  48.015  1.00  0.00     0.221 C 
HETATM    5  C   UNL     1      17.942  47.784  49.432  1.00  0.00     0.066 C 
HETATM    6  C   UNL     1      18.888  48.855  50.012  1.00  0.00     0.118 C 
HETATM    7  N   UNL     1      20.267  48.418  49.836  1.00  0.00    -0.365 N 
HETATM    8  N   UNL     1      20.317  46.402  46.935  1.00  0.00    -0.181 NA
HETATM    9  C   UNL     1      21.627  46.593  47.128  1.00  0.00     0.160 A 
HETATM   10  H   UNL     1      20.969  48.935  50.375  1.00  0.00     0.161 HD
ENDROOT
BRANCH   1  11
HETATM   11  C   UNL     1      23.179  47.897  48.785  1.00  0.00     0.257 C 
HETATM   12  N   UNL     1      23.744  47.102  49.756  1.00  0.00    -0.352 N 
HETATM   13  H   UNL     1      23.322  46.225  50.018  1.00  0.00     0.163 HD
HETATM   14  O   UNL     1      23.710  48.934  48.394  1.00  0.00    -0.267 OA
BRANCH  12  15
HETATM   15  C   UNL     1      25.026  47.426  50.341  1.00  0.00     0.161 C 
BRANCH  15  16
HETATM   16  C   UNL     1      25.334  46.571  51.545  1.00  0.00    -0.040 A 
HETATM   17  C   UNL     1      24.922  45.233  51.580  1.00  0.00     0.011 A 
HETATM   18  C   UNL     1      25.264  44.415  52.660  1.00  0.00     0.037 A 
HETATM   19  C   UNL     1      26.031  44.911  53.716  1.00  0.00     0.068 A 
HETATM   20  C   UNL     1      26.446  46.241  53.688  1.00  0.00     0.037 A 
HETATM   21  C   UNL     1      26.110  47.061  52.606  1.00  0.00     0.011 A 
BRANCH  19  22
HETATM   22  O   UNL     1      26.307  44.002  54.700  1.00  0.00    -0.356 OA
HETATM   23  C   UNL     1      27.277  43.007  54.398  1.00  0.00     0.210 C 
ENDBRANCH  19  22
ENDBRANCH  15  16
ENDBRANCH  12  15
ENDBRANCH   1  11
BRANCH   4  24
HETATM   24  C   UNL     1      17.796  48.199  46.912  1.00  0.00     0.409 C 
HETATM   25  F   UNL     1      16.738  48.950  47.267  1.00  0.00    -0.169 F 
HETATM   26  F   UNL     1      18.749  49.040  46.447  1.00  0.00    -0.169 F 
HETATM   27  F   UNL     1      17.413  47.445  45.847  1.00  0.00    -0.169 F 
ENDBRANCH   4  24
BRANCH   6  28
HETATM   28  C   UNL     1      18.646  50.278  49.531  1.00  0.00    -0.035 A 
HETATM   29  C   UNL     1      17.417  50.903  49.807  1.00  0.00     0.009 A 
HETATM   30  C   UNL     1      17.168  52.217  49.402  1.00  0.00     0.001 A 
HETATM   31  C   UNL     1      18.148  52.937  48.725  1.00  0.00     0.000 A 
HETATM   32  C   UNL     1      19.379  52.344  48.457  1.00  0.00     0.001 A 
HETATM   33  C   UNL     1      19.627  51.031  48.860  1.00  0.00     0.009 A 
ENDBRANCH   6  28
TORSDOF 6
ENDMDL
MODEL 4
REMARK VINA RESULT:      -8.3      5.442      8.948
REMARK  6 active torsions:
REMARK  status: ('A' for Active; 'I' for Inactive)
REMARK    1  A    between atoms: O_2  and  C_3 
REMARK    2  A    between atoms: C_6  and  C_7 
REMARK    3  A    between atoms: C_7  and  N_8 
REMARK       I    between atoms: N_8  and  C_9 
REMARK    4  A    between atoms: C_9  and  C_10 
REMARK    5  A    between atoms: C_13  and  C_14 
REMARK    6  A    between atoms: C_19  and  C_20 
ROOT
HETATM    1  C   UNL     1      26.174  41.228  50.338  1.00  0.00     0.096 A 
HETATM    2  C   UNL     1      25.250  42.242  50.500  1.00  0.00     0.138 A 
HETATM    3  N   UNL     1      24.333  42.097  49.495  1.00  0.00    -0.240 N 
HETATM    4  C   UNL     1      23.237  43.013  49.248  1.00  0.00     0.221 C 
HETATM    5  C   UNL     1      22.971  43.887  50.491  1.00  0.00     0.066 C 
HETATM    6  C   UNL     1      24.247  44.374  51.207  1.00  0.00     0.118 C 
HETATM    7  N   UNL     1      25.142  43.242  51.406  1.00  0.00    -0.365 N 
HETATM    8  N   UNL     1      24.515  40.989  48.758  1.00  0.00    -0.181 NA
HETATM    9  C   UNL     1      25.650  40.482  49.252  1.00  0.00     0.160 A 
HETATM   10  H   UNL     1      25.915  43.397  52.062  1.00  0.00     0.161 HD
ENDROOT
BRANCH   1  11
HETATM   11  C   UNL     1      27.372  41.048  51.141  1.00  0.00     0.257 C 
HETATM   12  N   UNL     1      27.273  41.439  52.457  1.00  0.00    -0.352 N 
HETATM   13  H   UNL     1      26.400  41.774  52.833  1.00  0.00     0.163 HD
HETATM   14  O   UNL     1      28.403  40.567  50.675  1.00  0.00    -0.267 OA
BRANCH  12  15
HETATM   15  C   UNL     1      28.372  41.261  53.379  1.00  0.00     0.161 C 
BRANCH  15  16
HETATM   16  C   UNL     1      28.688  42.525  54.138  1.00  0.00    -0.040 A 
HETATM   17  C   UNL     1      29.953  42.702  54.711  1.00  0.00     0.011 A 
HETATM   18  C   UNL     1      30.277  43.900  55.355  1.00  0.00     0.037 A 
HETATM   19  C   UNL     1      29.353  44.944  55.428  1.00  0.00     0.068 A 
HETATM   20  C   UNL     1      28.092  44.776  54.859  1.00  0.00     0.037 A 
HETATM   21  C   UNL     1      27.767  43.581  54.209  1.00  0.00     0.011 A 
BRANCH  19  22
HETATM   22  O   UNL     1      29.803  46.063  56.072  1.00  0.00    -0.356 OA
HETATM   23  C   UNL     1      30.156  45.915  57.441  1.00  0.00     0.210 C 
ENDBRANCH  19  22
ENDBRANCH  15  16
ENDBRANCH  12  15
ENDBRANCH   1  11
BRANCH   4  24
HETATM   24  C   UNL     1      23.498  43.810  47.989  1.00  0.00     0.409 C 
HETATM   25  F   UNL     1      23.165  43.170  46.853  1.00  0.00    -0.169 F 
HETATM   26  F   UNL     1      22.839  44.992  47.993  1.00  0.00    -0.169 F 
HETATM   27  F   UNL     1      24.820  44.120  47.901  1.00  0.00    -0.169 F 
ENDBRANCH   4  24
BRANCH   6  28
HETATM   28  C   UNL     1      24.935  45.577  50.580  1.00  0.00    -0.035 A 
HETATM   29  C   UNL     1      24.184  46.730  50.287  1.00  0.00     0.009 A 
HETATM   30  C   UNL     1      24.787  47.863  49.734  1.00  0.00     0.001 A 
HETATM   31  C   UNL     1      26.154  47.871  49.475  1.00  0.00     0.000 A 
HETATM   32  C   UNL     1      26.920  46.747  49.774  1.00  0.00     0.001 A 
HETATM   33  C   UNL     1      26.318  45.615  50.325  1.00  0.00     0.009 A 
ENDBRANCH   6  28
TORSDOF 6
ENDMDL
MODEL 5
REMARK VINA RESULT:      -8.2      4.039      8.620
REMARK  6 active torsions:
REMARK  status: ('A' for Active; 'I' for Inactive)
REMARK    1  A    between atoms: O_2  and  C_3 
REMARK    2  A    between atoms: C_6  and  C_7 
REMARK    3  A    between atoms: C_7  and  N_8 
REMARK       I    between atoms: N_8  and  C_9 
REMARK    4  A    between atoms: C_9  and  C_10 
REMARK    5  A    between atoms: C_13  and  C_14 
REMARK    6  A    between atoms: C_19  and  C_20 
ROOT
HETATM    1  C   UNL     1      19.987  45.771  47.595  1.00  0.00     0.096 A 
HETATM    2  C   UNL     1      19.237  46.573  48.433  1.00  0.00     0.138 A 
HETATM    3  N   UNL     1      17.943  46.487  47.998  1.00  0.00    -0.240 N 
HETATM    4  C   UNL     1      16.840  47.247  48.552  1.00  0.00     0.221 C 
HETATM    5  C   UNL     1      17.210  47.804  49.943  1.00  0.00     0.066 C 
HETATM    6  C   UNL     1      18.654  48.335  50.047  1.00  0.00     0.118 C 
HETATM    7  N   UNL     1      19.568  47.343  49.496  1.00  0.00    -0.365 N 
HETATM    8  N   UNL     1      17.766  45.591  47.013  1.00  0.00    -0.181 NA
HETATM    9  C   UNL     1      19.013  45.183  46.750  1.00  0.00     0.160 A 
HETATM   10  H   UNL     1      20.560  47.485  49.711  1.00  0.00     0.161 HD
ENDROOT
BRANCH   1  11
HETATM   11  C   UNL     1      21.433  45.628  47.642  1.00  0.00     0.257 C 
HETATM   12  N   UNL     1      21.919  44.810  48.637  1.00  0.00    -0.352 N 
HETATM   13  H   UNL     1      21.293  44.308  49.247  1.00  0.00     0.163 HD
HETATM   14  O   UNL     1      22.171  46.193  46.839  1.00  0.00    -0.267 OA
BRANCH  12  15
HETATM   15  C   UNL     1      23.333  44.534  48.760  1.00  0.00     0.161 C 
BRANCH  15  16
HETATM   16  C   UNL     1      23.981  45.362  49.841  1.00  0.00    -0.040 A 
HETATM   17  C   UNL     1      24.354  44.767  51.053  1.00  0.00     0.011 A 
HETATM   18  C   UNL     1      25.019  45.511  52.032  1.00  0.00     0.037 A 
HETATM   19  C   UNL     1      25.334  46.853  51.817  1.00  0.00     0.068 A 
HETATM   20  C   UNL     1      24.967  47.453  50.614  1.00  0.00     0.037 A 
HETATM   21  C   UNL     1      24.306  46.710  49.629  1.00  0.00     0.011 A 
BRANCH  19  22
HETATM   22  O   UNL     1      25.997  47.459  52.848  1.00  0.00    -0.356 OA
HETATM   23  C   UNL     1      26.015  46.767  54.090  1.00  0.00     0.210 C 
ENDBRANCH  19  22
ENDBRANCH  15  16
ENDBRANCH  12  15
ENDBRANCH   1  11
BRANCH   4  24
HETATM   24  C   UNL     1      16.396  48.310  47.571  1.00  0.00     0.409 C 
HETATM   25  F   UNL     1      17.392  48.822  46.826  1.00  0.00    -0.169 F 
HETATM   26  F   UNL     1      15.452  47.848  46.718  1.00  0.00    -0.169 F 
HETATM   27  F   UNL     1      15.821  49.347  48.237  1.00  0.00    -0.169 F 
ENDBRANCH   4  24
BRANCH   6  28
HETATM   28  C   UNL     1      18.884  49.733  49.492  1.00  0.00    -0.035 A 
HETATM   29  C   UNL     1      18.099  50.802  49.960  1.00  0.00     0.009 A 
HETATM   30  C   UNL     1      18.297  52.103  49.492  1.00  0.00     0.001 A 
HETATM   31  C   UNL     1      19.294  52.364  48.555  1.00  0.00     0.000 A 
HETATM   32  C   UNL     1      20.094  51.324  48.091  1.00  0.00     0.001 A 
HETATM   33  C   UNL     1      19.895  50.023  48.558  1.00  0.00     0.009 A 
ENDBRANCH   6  28
TORSDOF 6
ENDMDL
MODEL 6
REMARK VINA RESULT:      -8.0      4.531      8.670
REMARK  6 active torsions:
REMARK  status: ('A' for Active; 'I' for Inactive)
REMARK    1  A    between atoms: O_2  and  C_3 
REMARK    2  A    between atoms: C_6  and  C_7 
REMARK    3  A    between atoms: C_7  and  N_8 
REMARK       I    between atoms: N_8  and  C_9 
REMARK    4  A    between atoms: C_9  and  C_10 
REMARK    5  A    between atoms: C_13  and  C_14 
REMARK    6  A    between atoms: C_19  and  C_20 
ROOT
HETATM    1  C   UNL     1      17.709  47.372  47.561  1.00  0.00     0.096 A 
HETATM    2  C   UNL     1      18.204  48.332  48.422  1.00  0.00     0.138 A 
HETATM    3  N   UNL     1      17.603  49.511  48.078  1.00  0.00    -0.240 N 
HETATM    4  C   UNL     1      17.909  50.794  48.682  1.00  0.00     0.221 C 
HETATM    5  C   UNL     1      18.640  50.599  50.027  1.00  0.00     0.066 C 
HETATM    6  C   UNL     1      19.692  49.471  50.017  1.00  0.00     0.118 C 
HETATM    7  N   UNL     1      19.100  48.273  49.437  1.00  0.00    -0.365 N 
HETATM    8  N   UNL     1      16.655  49.376  47.136  1.00  0.00    -0.181 NA
HETATM    9  C   UNL     1      16.745  48.084  46.803  1.00  0.00     0.160 A 
HETATM   10  H   UNL     1      19.624  47.404  49.579  1.00  0.00     0.161 HD
ENDROOT
BRANCH   1  11
HETATM   11  C   UNL     1      18.137  45.984  47.515  1.00  0.00     0.257 C 
HETATM   12  N   UNL     1      19.358  45.755  46.925  1.00  0.00    -0.352 N 
HETATM   13  H   UNL     1      19.929  46.520  46.601  1.00  0.00     0.163 HD
HETATM   14  O   UNL     1      17.454  45.076  47.985  1.00  0.00    -0.267 OA
BRANCH  12  15
HETATM   15  C   UNL     1      19.928  44.427  46.866  1.00  0.00     0.161 C 
BRANCH  15  16
HETATM   16  C   UNL     1      21.294  44.366  47.502  1.00  0.00    -0.040 A 
HETATM   17  C   UNL     1      22.176  43.329  47.174  1.00  0.00     0.011 A 
HETATM   18  C   UNL     1      23.469  43.304  47.705  1.00  0.00     0.037 A 
HETATM   19  C   UNL     1      23.909  44.316  48.560  1.00  0.00     0.068 A 
HETATM   20  C   UNL     1      23.038  45.353  48.891  1.00  0.00     0.037 A 
HETATM   21  C   UNL     1      21.745  45.383  48.357  1.00  0.00     0.011 A 
BRANCH  19  22
HETATM   22  O   UNL     1      25.198  44.178  48.995  1.00  0.00    -0.356 OA
HETATM   23  C   UNL     1      25.806  45.330  49.565  1.00  0.00     0.210 C 
ENDBRANCH  19  22
ENDBRANCH  15  16
ENDBRANCH  12  15
ENDBRANCH   1  11
BRANCH   4  24
HETATM   24  C   UNL     1      18.663  51.664  47.701  1.00  0.00     0.409 C 
HETATM   25  F   UNL     1      19.471  50.982  46.868  1.00  0.00    -0.169 F 
HETATM   26  F   UNL     1      17.827  52.403  46.935  1.00  0.00    -0.169 F 
HETATM   27  F   UNL     1      19.441  52.555  48.372  1.00  0.00    -0.169 F 
ENDBRANCH   4  24
BRANCH   6  28
HETATM   28  C   UNL     1      21.037  49.829  49.405  1.00  0.00    -0.035 A 
HETATM   29  C   UNL     1      21.549  49.050  48.352  1.00  0.00     0.009 A 
HETATM   30  C   UNL     1      22.769  49.363  47.748  1.00  0.00     0.001 A 
HETATM   31  C   UNL     1      23.496  50.470  48.176  1.00  0.00     0.000 A 
HETATM   32  C   UNL     1      23.000  51.266  49.205  1.00  0.00     0.001 A 
HETATM   33  C   UNL     1      21.782  50.952  49.809  1.00  0.00     0.009 A 
ENDBRANCH   6  28
TORSDOF 6
ENDMDL
MODEL 7
REMARK VINA RESULT:      -8.0     11.261     13.455
REMARK  6 active torsions:
REMARK  status: ('A' for Active; 'I' for Inactive)
REMARK    1  A    between atoms: O_2  and  C_3 
REMARK    2  A    between atoms: C_6  and  C_7 
REMARK    3  A    between atoms: C_7  and  N_8 
REMARK       I    between atoms: N_8  and  C_9 
REMARK    4  A    between atoms: C_9  and  C_10 
REMARK    5  A    between atoms: C_13  and  C_14 
REMARK    6  A    between atoms: C_19  and  C_20 
ROOT
HETATM    1  C   UNL     1      26.368  48.941  39.167  1.00  0.00     0.096 A 
HETATM    2  C   UNL     1      27.018  49.992  39.785  1.00  0.00     0.138 A 
HETATM    3  N   UNL     1      27.522  50.779  38.787  1.00  0.00    -0.240 N 
HETATM    4  C   UNL     1      28.353  51.948  39.005  1.00  0.00     0.221 C 
HETATM    5  C   UNL     1      28.223  52.440  40.462  1.00  0.00     0.066 C 
HETATM    6  C   UNL     1      28.176  51.310  41.510  1.00  0.00     0.118 C 
HETATM    7  N   UNL     1      27.204  50.310  41.088  1.00  0.00    -0.365 N 
HETATM    8  N   UNL     1      27.148  50.393  37.556  1.00  0.00    -0.181 NA
HETATM    9  C   UNL     1      26.474  49.260  37.790  1.00  0.00     0.160 A 
HETATM   10  H   UNL     1      26.925  49.631  41.804  1.00  0.00     0.161 HD
ENDROOT
BRANCH   1  11
HETATM   11  C   UNL     1      25.751  47.817  39.850  1.00  0.00     0.257 C 
HETATM   12  N   UNL     1      25.539  46.695  39.082  1.00  0.00    -0.352 N 
HETATM   13  H   UNL     1      25.851  46.656  38.124  1.00  0.00     0.163 HD
HETATM   14  O   UNL     1      25.448  47.864  41.041  1.00  0.00    -0.267 OA
BRANCH  12  15
HETATM   15  C   UNL     1      24.987  45.487  39.652  1.00  0.00     0.161 C 
BRANCH  15  16
HETATM   16  C   UNL     1      26.059  44.544  40.137  1.00  0.00    -0.040 A 
HETATM   17  C   UNL     1      26.070  44.119  41.471  1.00  0.00     0.011 A 
HETATM   18  C   UNL     1      27.018  43.191  41.911  1.00  0.00     0.037 A 
HETATM   19  C   UNL     1      27.962  42.663  41.029  1.00  0.00     0.068 A 
HETATM   20  C   UNL     1      27.958  43.079  39.699  1.00  0.00     0.037 A 
HETATM   21  C   UNL     1      27.007  44.004  39.255  1.00  0.00     0.011 A 
BRANCH  19  22
HETATM   22  O   UNL     1      28.821  41.755  41.585  1.00  0.00    -0.356 OA
HETATM   23  C   UNL     1      28.353  41.050  42.728  1.00  0.00     0.210 C 
ENDBRANCH  19  22
ENDBRANCH  15  16
ENDBRANCH  12  15
ENDBRANCH   1  11
BRANCH   4  24
HETATM   24  C   UNL     1      29.778  51.659  38.587  1.00  0.00     0.409 C 
HETATM   25  F   UNL     1      30.168  50.389  38.800  1.00  0.00    -0.169 F 
HETATM   26  F   UNL     1      29.984  51.929  37.277  1.00  0.00    -0.169 F 
HETATM   27  F   UNL     1      30.635  52.461  39.273  1.00  0.00    -0.169 F 
ENDBRANCH   4  24
BRANCH   6  28
HETATM   28  C   UNL     1      29.520  50.712  41.894  1.00  0.00    -0.035 A 
HETATM   29  C   UNL     1      29.667  49.314  41.948  1.00  0.00     0.009 A 
HETATM   30  C   UNL     1      30.893  48.729  42.274  1.00  0.00     0.001 A 
HETATM   31  C   UNL     1      32.001  49.529  42.539  1.00  0.00     0.000 A 
HETATM   32  C   UNL     1      31.883  50.914  42.474  1.00  0.00     0.001 A 
HETATM   33  C   UNL     1      30.658  51.499  42.150  1.00  0.00     0.009 A 
ENDBRANCH   6  28
TORSDOF 6
ENDMDL
MODEL 8
REMARK VINA RESULT:      -7.8     10.713     11.839
REMARK  6 active torsions:
REMARK  status: ('A' for Active; 'I' for Inactive)
REMARK    1  A    between atoms: O_2  and  C_3 
REMARK    2  A    between atoms: C_6  and  C_7 
REMARK    3  A    between atoms: C_7  and  N_8 
REMARK       I    between atoms: N_8  and  C_9 
REMARK    4  A    between atoms: C_9  and  C_10 
REMARK    5  A    between atoms: C_13  and  C_14 
REMARK    6  A    between atoms: C_19  and  C_20 
ROOT
HETATM    1  C   UNL     1      26.820  48.588  39.602  1.00  0.00     0.096 A 
HETATM    2  C   UNL     1      28.162  48.878  39.450  1.00  0.00     0.138 A 
HETATM    3  N   UNL     1      28.819  48.210  40.446  1.00  0.00    -0.240 N 
HETATM    4  C   UNL     1      30.243  48.313  40.700  1.00  0.00     0.221 C 
HETATM    5  C   UNL     1      30.973  48.891  39.470  1.00  0.00     0.066 C 
HETATM    6  C   UNL     1      30.220  50.042  38.771  1.00  0.00     0.118 C 
HETATM    7  N   UNL     1      28.835  49.645  38.559  1.00  0.00    -0.365 N 
HETATM    8  N   UNL     1      28.024  47.402  41.166  1.00  0.00    -0.181 NA
HETATM    9  C   UNL     1      26.808  47.658  40.671  1.00  0.00     0.160 A 
HETATM   10  H   UNL     1      28.298  50.231  37.912  1.00  0.00     0.161 HD
ENDROOT
BRANCH   1  11
HETATM   11  C   UNL     1      25.744  49.152  38.804  1.00  0.00     0.257 C 
HETATM   12  N   UNL     1      24.592  49.464  39.491  1.00  0.00    -0.352 N 
HETATM   13  H   UNL     1      24.540  49.353  40.491  1.00  0.00     0.163 HD
HETATM   14  O   UNL     1      25.860  49.347  37.596  1.00  0.00    -0.267 OA
BRANCH  12  15
HETATM   15  C   UNL     1      23.467  50.085  38.829  1.00  0.00     0.161 C 
BRANCH  15  16
HETATM   16  C   UNL     1      22.233  50.098  39.697  1.00  0.00    -0.040 A 
HETATM   17  C   UNL     1      21.654  51.314  40.077  1.00  0.00     0.011 A 
HETATM   18  C   UNL     1      20.471  51.334  40.821  1.00  0.00     0.037 A 
HETATM   19  C   UNL     1      19.840  50.144  41.189  1.00  0.00     0.068 A 
HETATM   20  C   UNL     1      20.409  48.929  40.815  1.00  0.00     0.037 A 
HETATM   21  C   UNL     1      21.591  48.906  40.065  1.00  0.00     0.011 A 
BRANCH  19  22
HETATM   22  O   UNL     1      18.684  50.305  41.902  1.00  0.00    -0.356 OA
HETATM   23  C   UNL     1      18.216  51.638  42.068  1.00  0.00     0.210 C 
ENDBRANCH  19  22
ENDBRANCH  15  16
ENDBRANCH  12  15
ENDBRANCH   1  11
BRANCH   4  24
HETATM   24  C   UNL     1      30.489  49.092  41.974  1.00  0.00     0.409 C 
HETATM   25  F   UNL     1      29.612  50.090  42.187  1.00  0.00    -0.169 F 
HETATM   26  F   UNL     1      30.464  48.294  43.067  1.00  0.00    -0.169 F 
HETATM   27  F   UNL     1      31.730  49.648  41.946  1.00  0.00    -0.169 F 
ENDBRANCH   4  24
BRANCH   6  28
HETATM   28  C   UNL     1      30.358  51.409  39.422  1.00  0.00    -0.035 A 
HETATM   29  C   UNL     1      31.634  51.884  39.775  1.00  0.00     0.009 A 
HETATM   30  C   UNL     1      31.802  53.145  40.352  1.00  0.00     0.001 A 
HETATM   31  C   UNL     1      30.698  53.963  40.575  1.00  0.00     0.000 A 
HETATM   32  C   UNL     1      29.427  53.521  40.218  1.00  0.00     0.001 A 
HETATM   33  C   UNL     1      29.260  52.261  39.642  1.00  0.00     0.009 A 
ENDBRANCH   6  28
TORSDOF 6
ENDMDL
MODEL 9
REMARK VINA RESULT:      -7.8      6.509     10.166
REMARK  6 active torsions:
REMARK  status: ('A' for Active; 'I' for Inactive)
REMARK    1  A    between atoms: O_2  and  C_3 
REMARK    2  A    between atoms: C_6  and  C_7 
REMARK    3  A    between atoms: C_7  and  N_8 
REMARK       I    between atoms: N_8  and  C_9 
REMARK    4  A    between atoms: C_9  and  C_10 
REMARK    5  A    between atoms: C_13  and  C_14 
REMARK    6  A    between atoms: C_19  and  C_20 
ROOT
HETATM    1  C   UNL     1      26.971  42.561  50.964  1.00  0.00     0.096 A 
HETATM    2  C   UNL     1      26.536  43.131  52.145  1.00  0.00     0.138 A 
HETATM    3  N   UNL     1      25.824  44.246  51.800  1.00  0.00    -0.240 N 
HETATM    4  C   UNL     1      25.262  45.186  52.750  1.00  0.00     0.221 C 
HETATM    5  C   UNL     1      25.178  44.552  54.154  1.00  0.00     0.066 C 
HETATM    6  C   UNL     1      26.402  43.695  54.536  1.00  0.00     0.118 C 
HETATM    7  N   UNL     1      26.702  42.780  53.442  1.00  0.00    -0.365 N 
HETATM    8  N   UNL     1      25.651  44.385  50.475  1.00  0.00    -0.181 NA
HETATM    9  C   UNL     1      26.375  43.378  49.971  1.00  0.00     0.160 A 
HETATM   10  H   UNL     1      27.347  42.016  53.666  1.00  0.00     0.161 HD
ENDROOT
BRANCH   1  11
HETATM   11  C   UNL     1      27.834  41.396  50.862  1.00  0.00     0.257 C 
HETATM   12  N   UNL     1      27.610  40.580  49.776  1.00  0.00    -0.352 N 
HETATM   13  H   UNL     1      26.923  40.823  49.079  1.00  0.00     0.163 HD
HETATM   14  O   UNL     1      28.715  41.163  51.687  1.00  0.00    -0.267 OA
BRANCH  12  15
HETATM   15  C   UNL     1      28.435  39.421  49.523  1.00  0.00     0.161 C 
BRANCH  15  16
HETATM   16  C   UNL     1      28.444  39.037  48.065  1.00  0.00    -0.040 A 
HETATM   17  C   UNL     1      28.844  37.751  47.680  1.00  0.00     0.011 A 
HETATM   18  C   UNL     1      28.789  37.364  46.338  1.00  0.00     0.037 A 
HETATM   19  C   UNL     1      28.323  38.245  45.360  1.00  0.00     0.068 A 
HETATM   20  C   UNL     1      27.921  39.526  45.735  1.00  0.00     0.037 A 
HETATM   21  C   UNL     1      27.971  39.914  47.078  1.00  0.00     0.011 A 
BRANCH  19  22
HETATM   22  O   UNL     1      28.306  37.736  44.091  1.00  0.00    -0.356 OA
HETATM   23  C   UNL     1      29.417  38.051  43.261  1.00  0.00     0.210 C 
ENDBRANCH  19  22
ENDBRANCH  15  16
ENDBRANCH  12  15
ENDBRANCH   1  11
BRANCH   4  24
HETATM   24  C   UNL     1      26.037  46.486  52.716  1.00  0.00     0.409 C 
HETATM   25  F   UNL     1      25.847  47.268  53.793  1.00  0.00    -0.169 F 
HETATM   26  F   UNL     1      27.369  46.277  52.599  1.00  0.00    -0.169 F 
HETATM   27  F   UNL     1      25.676  47.212  51.624  1.00  0.00    -0.169 F 
ENDBRANCH   4  24
BRANCH   6  28
HETATM   28  C   UNL     1      27.620  44.465  55.021  1.00  0.00    -0.035 A 
HETATM   29  C   UNL     1      27.443  45.610  55.820  1.00  0.00     0.009 A 
HETATM   30  C   UNL     1      28.539  46.329  56.304  1.00  0.00     0.001 A 
HETATM   31  C   UNL     1      29.834  45.910  56.011  1.00  0.00     0.000 A 
HETATM   32  C   UNL     1      30.033  44.770  55.238  1.00  0.00     0.001 A 
HETATM   33  C   UNL     1      28.938  44.053  54.752  1.00  0.00     0.009 A 
ENDBRANCH   6  28
TORSDOF 6
ENDMDL
MODEL 10
REMARK VINA RESULT:      -7.7     20.385     23.780
REMARK  6 active torsions:
REMARK  status: ('A' for Active; 'I' for Inactive)
REMARK    1  A    between atoms: O_2  and  C_3 
REMARK    2  A    between atoms: C_6  and  C_7 
REMARK    3  A    between atoms: C_7  and  N_8 
REMARK       I    between atoms: N_8  and  C_9 
REMARK    4  A    between atoms: C_9  and  C_10 
REMARK    5  A    between atoms: C_13  and  C_14 
REMARK    6  A    between atoms: C_19  and  C_20 
ROOT
HETATM    1  C   UNL     1      37.447  44.868  64.416  1.00  0.00     0.096 A 
HETATM    2  C   UNL     1      38.363  45.393  65.306  1.00  0.00     0.138 A 
HETATM    3  N   UNL     1      38.107  46.735  65.382  1.00  0.00    -0.240 N 
HETATM    4  C   UNL     1      38.902  47.678  66.144  1.00  0.00     0.221 C 
HETATM    5  C   UNL     1      39.766  46.940  67.188  1.00  0.00     0.066 C 
HETATM    6  C   UNL     1      40.394  45.628  66.675  1.00  0.00     0.118 C 
HETATM    7  N   UNL     1      39.364  44.830  66.025  1.00  0.00    -0.365 N 
HETATM    8  N   UNL     1      37.011  47.112  64.704  1.00  0.00    -0.181 NA
HETATM    9  C   UNL     1      36.632  45.983  64.094  1.00  0.00     0.160 A 
HETATM   10  H   UNL     1      39.608  43.851  65.843  1.00  0.00     0.161 HD
ENDROOT
BRANCH   1  11
HETATM   11  C   UNL     1      37.404  43.485  63.972  1.00  0.00     0.257 C 
HETATM   12  N   UNL     1      38.410  43.102  63.115  1.00  0.00    -0.352 N 
HETATM   13  H   UNL     1      39.150  43.740  62.867  1.00  0.00     0.163 HD
HETATM   14  O   UNL     1      36.532  42.706  64.349  1.00  0.00    -0.267 OA
BRANCH  12  15
HETATM   15  C   UNL     1      38.520  41.740  62.644  1.00  0.00     0.161 C 
BRANCH  15  16
HETATM   16  C   UNL     1      39.511  40.938  63.449  1.00  0.00    -0.040 A 
HETATM   17  C   UNL     1      39.666  39.567  63.209  1.00  0.00     0.011 A 
HETATM   18  C   UNL     1      40.632  38.831  63.901  1.00  0.00     0.037 A 
HETATM   19  C   UNL     1      41.466  39.449  64.835  1.00  0.00     0.068 A 
HETATM   20  C   UNL     1      41.320  40.813  65.079  1.00  0.00     0.037 A 
HETATM   21  C   UNL     1      40.357  41.553  64.384  1.00  0.00     0.011 A 
BRANCH  19  22
HETATM   22  O   UNL     1      42.375  38.618  65.429  1.00  0.00    -0.356 OA
HETATM   23  C   UNL     1      42.735  37.445  64.709  1.00  0.00     0.210 C 
ENDBRANCH  19  22
ENDBRANCH  15  16
ENDBRANCH  12  15
ENDBRANCH   1  11
BRANCH   4  24
HETATM   24  C   UNL     1      39.699  48.561  65.210  1.00  0.00     0.409 C 
HETATM   25  F   UNL     1      40.188  47.922  64.131  1.00  0.00    -0.169 F 
HETATM   26  F   UNL     1      38.970  49.610  64.761  1.00  0.00    -0.169 F 
HETATM   27  F   UNL     1      40.759  49.100  65.870  1.00  0.00    -0.169 F 
ENDBRANCH   4  24
BRANCH   6  28
HETATM   28  C   UNL     1      41.650  45.785  65.831  1.00  0.00    -0.035 A 
HETATM   29  C   UNL     1      41.750  45.103  64.605  1.00  0.00     0.009 A 
HETATM   30  C   UNL     1      42.878  45.241  63.792  1.00  0.00     0.001 A 
HETATM   31  C   UNL     1      43.922  46.074  64.181  1.00  0.00     0.000 A 
HETATM   32  C   UNL     1      43.837  46.773  65.383  1.00  0.00     0.001 A 
HETATM   33  C   UNL     1      42.711  46.633  66.196  1.00  0.00     0.009 A 
ENDBRANCH   6  28
TORSDOF 6
ENDMDL
