MODEL 1
REMARK VINA RESULT:      -8.1      0.000      0.000
REMARK  8 active torsions:
REMARK  status: ('A' for Active; 'I' for Inactive)
REMARK    1  A    between atoms: C_2  and  C_3 
REMARK    2  A    between atoms: C_3  and  N_4 
REMARK    3  A    between atoms: N_4  and  C_5 
REMARK    4  A    between atoms: C_7  and  N_8 
REMARK    5  A    between atoms: N_8  and  C_9 
REMARK    6  A    between atoms: C_9  and  C_10 
REMARK    7  A    between atoms: C_10  and  C_11 
REMARK    8  A    between atoms: C_13  and  O_14 
ROOT
HETATM    1  C   UNL     1      29.122  44.281  54.905  1.00  0.00     0.119 A 
HETATM    2  N   UNL     1      28.839  43.060  54.411  1.00  0.00    -0.207 NA
HETATM    3  C   UNL     1      27.659  42.894  53.804  1.00  0.00     0.181 A 
HETATM    4  N   UNL     1      26.751  43.857  53.689  1.00  0.00    -0.330 N 
HETATM    5  H   UNL     1      25.862  43.608  53.278  1.00  0.00     0.168 HD
HETATM    6  C   UNL     1      26.994  45.094  54.135  1.00  0.00     0.048 A 
HETATM    7  C   UNL     1      28.226  45.364  54.764  1.00  0.00     0.031 A 
HETATM    8  C   UNL     1      26.035  46.103  53.966  1.00  0.00     0.030 A 
HETATM    9  C   UNL     1      26.298  47.399  54.407  1.00  0.00     0.002 A 
HETATM   10  C   UNL     1      27.515  47.692  55.016  1.00  0.00     0.001 A 
HETATM   11  C   UNL     1      28.471  46.688  55.194  1.00  0.00     0.017 A 
ENDROOT
BRANCH   3  12
HETATM   12  N   UNL     1      27.359  41.625  53.325  1.00  0.00    -0.262 NA
HETATM   13  H   UNL     1      27.814  40.988  53.987  1.00  0.00     0.130 HD
BRANCH  12  14
HETATM   14  C   UNL     1      27.804  41.364  51.953  1.00  0.00     0.100 C 
BRANCH  14  15
HETATM   15  C   UNL     1      26.599  41.257  51.009  1.00  0.00     0.053 C 
BRANCH  15  16
HETATM   16  C   UNL     1      26.073  42.622  50.641  1.00  0.00    -0.054 A 
HETATM   17  C   UNL     1      26.923  43.593  50.082  1.00  0.00     0.044 A 
HETATM   18  C   UNL     1      26.442  44.871  49.786  1.00  0.00     0.068 A 
HETATM   19  C   UNL     1      25.104  45.175  50.044  1.00  0.00     0.037 A 
HETATM   20  C   UNL     1      24.249  44.216  50.585  1.00  0.00     0.003 A 
HETATM   21  C   UNL     1      24.731  42.944  50.885  1.00  0.00     0.007 A 
BRANCH  18  22
HETATM   22  O   UNL     1      27.167  45.903  49.262  1.00  0.00    -0.356 OA
HETATM   23  C   UNL     1      26.794  47.221  49.638  1.00  0.00     0.210 C 
ENDBRANCH  18  22
ENDBRANCH  15  16
ENDBRANCH  14  15
ENDBRANCH  12  14
ENDBRANCH   3  12
BRANCH   1  24
HETATM   24  N   UNL     1      30.362  44.491  55.524  1.00  0.00    -0.277 NA
HETATM   25  H   UNL     1      30.298  45.231  56.220  1.00  0.00     0.129 HD
BRANCH  24  26
HETATM   26  C   UNL     1      31.034  43.309  56.068  1.00  0.00     0.093 C 
BRANCH  26  27
HETATM   27  C   UNL     1      31.586  43.615  57.462  1.00  0.00     0.010 C 
HETATM   28  C   UNL     1      30.974  44.865  58.078  1.00  0.00     0.006 C 
ENDBRANCH  26  27
ENDBRANCH  24  26
ENDBRANCH   1  24
TORSDOF 8
ENDMDL
MODEL 2
REMARK VINA RESULT:      -8.0      1.790      4.579
REMARK  8 active torsions:
REMARK  status: ('A' for Active; 'I' for Inactive)
REMARK    1  A    between atoms: C_2  and  C_3 
REMARK    2  A    between atoms: C_3  and  N_4 
REMARK    3  A    between atoms: N_4  and  C_5 
REMARK    4  A    between atoms: C_7  and  N_8 
REMARK    5  A    between atoms: N_8  and  C_9 
REMARK    6  A    between atoms: C_9  and  C_10 
REMARK    7  A    between atoms: C_10  and  C_11 
REMARK    8  A    between atoms: C_13  and  O_14 
ROOT
HETATM    1  C   UNL     1      29.271  44.357  54.534  1.00  0.00     0.119 A 
HETATM    2  N   UNL     1      28.335  45.286  54.257  1.00  0.00    -0.207 NA
HETATM    3  C   UNL     1      28.122  46.243  55.166  1.00  0.00     0.181 A 
HETATM    4  N   UNL     1      28.761  46.307  56.329  1.00  0.00    -0.330 N 
HETATM    5  H   UNL     1      28.472  47.027  56.977  1.00  0.00     0.168 HD
HETATM    6  C   UNL     1      29.718  45.427  56.641  1.00  0.00     0.048 A 
HETATM    7  C   UNL     1      30.027  44.401  55.727  1.00  0.00     0.031 A 
HETATM    8  C   UNL     1      30.406  45.540  57.858  1.00  0.00     0.030 A 
HETATM    9  C   UNL     1      31.423  44.639  58.173  1.00  0.00     0.002 A 
HETATM   10  C   UNL     1      31.755  43.627  57.277  1.00  0.00     0.001 A 
HETATM   11  C   UNL     1      31.069  43.506  56.066  1.00  0.00     0.017 A 
ENDROOT
BRANCH   3  12
HETATM   12  N   UNL     1      27.134  47.180  54.889  1.00  0.00    -0.262 NA
HETATM   13  H   UNL     1      26.866  47.548  55.807  1.00  0.00     0.130 HD
BRANCH  12  14
HETATM   14  C   UNL     1      25.968  46.650  54.175  1.00  0.00     0.100 C 
BRANCH  14  15
HETATM   15  C   UNL     1      25.926  47.193  52.740  1.00  0.00     0.053 C 
BRANCH  15  16
HETATM   16  C   UNL     1      25.755  46.077  51.740  1.00  0.00    -0.054 A 
HETATM   17  C   UNL     1      24.793  45.071  51.942  1.00  0.00     0.044 A 
HETATM   18  C   UNL     1      24.671  44.014  51.037  1.00  0.00     0.068 A 
HETATM   19  C   UNL     1      25.511  43.968  49.923  1.00  0.00     0.037 A 
HETATM   20  C   UNL     1      26.459  44.965  49.705  1.00  0.00     0.003 A 
HETATM   21  C   UNL     1      26.583  46.016  50.611  1.00  0.00     0.007 A 
BRANCH  18  22
HETATM   22  O   UNL     1      23.794  42.971  51.130  1.00  0.00    -0.356 OA
HETATM   23  C   UNL     1      22.962  42.715  50.007  1.00  0.00     0.210 C 
ENDBRANCH  18  22
ENDBRANCH  15  16
ENDBRANCH  14  15
ENDBRANCH  12  14
ENDBRANCH   3  12
BRANCH   1  24
HETATM   24  N   UNL     1      29.534  43.356  53.589  1.00  0.00    -0.277 NA
HETATM   25  H   UNL     1      29.488  42.434  54.017  1.00  0.00     0.129 HD
BRANCH  24  26
HETATM   26  C   UNL     1      28.758  43.403  52.348  1.00  0.00     0.093 C 
BRANCH  26  27
HETATM   27  C   UNL     1      27.895  42.147  52.221  1.00  0.00     0.010 C 
HETATM   28  C   UNL     1      28.263  41.073  53.234  1.00  0.00     0.006 C 
ENDBRANCH  26  27
ENDBRANCH  24  26
ENDBRANCH   1  24
TORSDOF 8
ENDMDL
MODEL 3
REMARK VINA RESULT:      -7.9      1.103      3.333
REMARK  8 active torsions:
REMARK  status: ('A' for Active; 'I' for Inactive)
REMARK    1  A    between atoms: C_2  and  C_3 
REMARK    2  A    between atoms: C_3  and  N_4 
REMARK    3  A    between atoms: N_4  and  C_5 
REMARK    4  A    between atoms: C_7  and  N_8 
REMARK    5  A    between atoms: N_8  and  C_9 
REMARK    6  A    between atoms: C_9  and  C_10 
REMARK    7  A    between atoms: C_10  and  C_11 
REMARK    8  A    between atoms: C_13  and  O_14 
ROOT
HETATM    1  C   UNL     1      27.256  44.115  54.355  1.00  0.00     0.119 A 
HETATM    2  N   UNL     1      26.913  42.991  53.695  1.00  0.00    -0.207 NA
HETATM    3  C   UNL     1      27.841  42.036  53.573  1.00  0.00     0.181 A 
HETATM    4  N   UNL     1      29.079  42.150  54.042  1.00  0.00    -0.330 N 
HETATM    5  H   UNL     1      29.724  41.400  53.832  1.00  0.00     0.168 HD
HETATM    6  C   UNL     1      29.461  43.231  54.730  1.00  0.00     0.048 A 
HETATM    7  C   UNL     1      28.537  44.276  54.929  1.00  0.00     0.031 A 
HETATM    8  C   UNL     1      30.761  43.310  55.249  1.00  0.00     0.030 A 
HETATM    9  C   UNL     1      31.153  44.425  55.988  1.00  0.00     0.002 A 
HETATM   10  C   UNL     1      30.252  45.461  56.211  1.00  0.00     0.001 A 
HETATM   11  C   UNL     1      28.957  45.392  55.690  1.00  0.00     0.017 A 
ENDROOT
BRANCH   3  12
HETATM   12  N   UNL     1      27.492  40.893  52.864  1.00  0.00    -0.262 NA
HETATM   13  H   UNL     1      28.009  40.138  53.327  1.00  0.00     0.130 HD
BRANCH  12  14
HETATM   14  C   UNL     1      27.801  40.940  51.432  1.00  0.00     0.100 C 
BRANCH  14  15
HETATM   15  C   UNL     1      26.510  40.899  50.604  1.00  0.00     0.053 C 
BRANCH  15  16
HETATM   16  C   UNL     1      26.013  42.290  50.300  1.00  0.00    -0.054 A 
HETATM   17  C   UNL     1      26.907  43.306  49.921  1.00  0.00     0.044 A 
HETATM   18  C   UNL     1      26.448  44.604  49.686  1.00  0.00     0.068 A 
HETATM   19  C   UNL     1      25.087  44.884  49.825  1.00  0.00     0.037 A 
HETATM   20  C   UNL     1      24.189  43.882  50.187  1.00  0.00     0.003 A 
HETATM   21  C   UNL     1      24.649  42.589  50.426  1.00  0.00     0.007 A 
BRANCH  18  22
HETATM   22  O   UNL     1      27.214  45.678  49.333  1.00  0.00    -0.356 OA
HETATM   23  C   UNL     1      26.712  46.971  49.644  1.00  0.00     0.210 C 
ENDBRANCH  18  22
ENDBRANCH  15  16
ENDBRANCH  14  15
ENDBRANCH  12  14
ENDBRANCH   3  12
BRANCH   1  24
HETATM   24  N   UNL     1      26.297  45.124  54.520  1.00  0.00    -0.277 NA
HETATM   25  H   UNL     1      26.637  45.846  55.152  1.00  0.00     0.129 HD
BRANCH  24  26
HETATM   26  C   UNL     1      25.741  45.709  53.298  1.00  0.00     0.093 C 
BRANCH  26  27
HETATM   27  C   UNL     1      26.006  47.215  53.271  1.00  0.00     0.010 C 
HETATM   28  C   UNL     1      26.255  47.796  54.655  1.00  0.00     0.006 C 
ENDBRANCH  26  27
ENDBRANCH  24  26
ENDBRANCH   1  24
TORSDOF 8
ENDMDL
MODEL 4
REMARK VINA RESULT:      -7.9      2.358      5.083
REMARK  8 active torsions:
REMARK  status: ('A' for Active; 'I' for Inactive)
REMARK    1  A    between atoms: C_2  and  C_3 
REMARK    2  A    between atoms: C_3  and  N_4 
REMARK    3  A    between atoms: N_4  and  C_5 
REMARK    4  A    between atoms: C_7  and  N_8 
REMARK    5  A    between atoms: N_8  and  C_9 
REMARK    6  A    between atoms: C_9  and  C_10 
REMARK    7  A    between atoms: C_10  and  C_11 
REMARK    8  A    between atoms: C_13  and  O_14 
ROOT
HETATM    1  C   UNL     1      28.512  43.188  53.239  1.00  0.00     0.119 A 
HETATM    2  N   UNL     1      27.395  43.722  52.709  1.00  0.00    -0.207 NA
HETATM    3  C   UNL     1      26.945  44.867  53.232  1.00  0.00     0.181 A 
HETATM    4  N   UNL     1      27.524  45.484  54.257  1.00  0.00    -0.330 N 
HETATM    5  H   UNL     1      27.062  46.304  54.625  1.00  0.00     0.168 HD
HETATM    6  C   UNL     1      28.651  45.012  54.801  1.00  0.00     0.048 A 
HETATM    7  C   UNL     1      29.210  43.823  54.291  1.00  0.00     0.031 A 
HETATM    8  C   UNL     1      29.265  45.702  55.856  1.00  0.00     0.030 A 
HETATM    9  C   UNL     1      30.454  45.225  56.407  1.00  0.00     0.002 A 
HETATM   10  C   UNL     1      31.032  44.062  55.908  1.00  0.00     0.001 A 
HETATM   11  C   UNL     1      30.421  43.366  54.861  1.00  0.00     0.017 A 
ENDROOT
BRANCH   3  12
HETATM   12  N   UNL     1      25.775  45.397  52.703  1.00  0.00    -0.262 NA
HETATM   13  H   UNL     1      25.473  44.706  52.009  1.00  0.00     0.130 HD
BRANCH  12  14
HETATM   14  C   UNL     1      25.920  46.723  52.095  1.00  0.00     0.100 C 
BRANCH  14  15
HETATM   15  C   UNL     1      25.031  46.843  50.850  1.00  0.00     0.053 C 
BRANCH  15  16
HETATM   16  C   UNL     1      25.513  47.945  49.940  1.00  0.00    -0.054 A 
HETATM   17  C   UNL     1      24.600  48.733  49.218  1.00  0.00     0.044 A 
HETATM   18  C   UNL     1      25.053  49.721  48.341  1.00  0.00     0.068 A 
HETATM   19  C   UNL     1      26.426  49.925  48.191  1.00  0.00     0.037 A 
HETATM   20  C   UNL     1      27.341  49.158  48.911  1.00  0.00     0.003 A 
HETATM   21  C   UNL     1      26.888  48.170  49.781  1.00  0.00     0.007 A 
BRANCH  18  22
HETATM   22  O   UNL     1      24.272  50.537  47.573  1.00  0.00    -0.356 OA
HETATM   23  C   UNL     1      22.871  50.300  47.584  1.00  0.00     0.210 C 
ENDBRANCH  18  22
ENDBRANCH  15  16
ENDBRANCH  14  15
ENDBRANCH  12  14
ENDBRANCH   3  12
BRANCH   1  24
HETATM   24  N   UNL     1      29.021  42.002  52.695  1.00  0.00    -0.277 NA
HETATM   25  H   UNL     1      29.210  41.319  53.426  1.00  0.00     0.129 HD
BRANCH  24  26
HETATM   26  C   UNL     1      28.260  41.403  51.596  1.00  0.00     0.093 C 
BRANCH  26  27
HETATM   27  C   UNL     1      28.763  39.984  51.322  1.00  0.00     0.010 C 
HETATM   28  C   UNL     1      28.450  39.509  49.911  1.00  0.00     0.006 C 
ENDBRANCH  26  27
ENDBRANCH  24  26
ENDBRANCH   1  24
TORSDOF 8
ENDMDL
MODEL 5
REMARK VINA RESULT:      -7.8      1.387      3.645
REMARK  8 active torsions:
REMARK  status: ('A' for Active; 'I' for Inactive)
REMARK    1  A    between atoms: C_2  and  C_3 
REMARK    2  A    between atoms: C_3  and  N_4 
REMARK    3  A    between atoms: N_4  and  C_5 
REMARK    4  A    between atoms: C_7  and  N_8 
REMARK    5  A    between atoms: N_8  and  C_9 
REMARK    6  A    between atoms: C_9  and  C_10 
REMARK    7  A    between atoms: C_10  and  C_11 
REMARK    8  A    between atoms: C_13  and  O_14 
ROOT
HETATM    1  C   UNL     1      28.892  45.093  54.747  1.00  0.00     0.119 A 
HETATM    2  N   UNL     1      28.917  44.221  53.720  1.00  0.00    -0.207 NA
HETATM    3  C   UNL     1      29.786  43.208  53.788  1.00  0.00     0.181 A 
HETATM    4  N   UNL     1      30.637  43.036  54.793  1.00  0.00    -0.330 N 
HETATM    5  H   UNL     1      31.304  42.280  54.712  1.00  0.00     0.168 HD
HETATM    6  C   UNL     1      30.634  43.855  55.850  1.00  0.00     0.048 A 
HETATM    7  C   UNL     1      29.729  44.935  55.874  1.00  0.00     0.031 A 
HETATM    8  C   UNL     1      31.515  43.630  56.917  1.00  0.00     0.030 A 
HETATM    9  C   UNL     1      31.495  44.468  58.031  1.00  0.00     0.002 A 
HETATM   10  C   UNL     1      30.598  45.530  58.083  1.00  0.00     0.001 A 
HETATM   11  C   UNL     1      29.723  45.765  57.019  1.00  0.00     0.017 A 
ENDROOT
BRANCH   3  12
HETATM   12  N   UNL     1      29.830  42.330  52.712  1.00  0.00    -0.262 NA
HETATM   13  H   UNL     1      30.003  42.930  51.899  1.00  0.00     0.130 HD
BRANCH  12  14
HETATM   14  C   UNL     1      28.617  41.527  52.524  1.00  0.00     0.100 C 
BRANCH  14  15
HETATM   15  C   UNL     1      28.198  41.526  51.048  1.00  0.00     0.053 C 
BRANCH  15  16
HETATM   16  C   UNL     1      26.995  42.408  50.823  1.00  0.00    -0.054 A 
HETATM   17  C   UNL     1      27.144  43.792  50.626  1.00  0.00     0.044 A 
HETATM   18  C   UNL     1      26.024  44.610  50.465  1.00  0.00     0.068 A 
HETATM   19  C   UNL     1      24.750  44.040  50.493  1.00  0.00     0.037 A 
HETATM   20  C   UNL     1      24.590  42.667  50.674  1.00  0.00     0.003 A 
HETATM   21  C   UNL     1      25.708  41.853  50.841  1.00  0.00     0.007 A 
BRANCH  18  22
HETATM   22  O   UNL     1      26.035  45.965  50.286  1.00  0.00    -0.356 OA
HETATM   23  C   UNL     1      24.779  46.627  50.227  1.00  0.00     0.210 C 
ENDBRANCH  18  22
ENDBRANCH  15  16
ENDBRANCH  14  15
ENDBRANCH  12  14
ENDBRANCH   3  12
BRANCH   1  24
HETATM   24  N   UNL     1      27.973  46.151  54.716  1.00  0.00    -0.277 NA
HETATM   25  H   UNL     1      28.454  47.048  54.735  1.00  0.00     0.129 HD
BRANCH  24  26
HETATM   26  C   UNL     1      26.963  46.114  53.657  1.00  0.00     0.093 C 
BRANCH  26  27
HETATM   27  C   UNL     1      25.605  45.720  54.241  1.00  0.00     0.010 C 
HETATM   28  C   UNL     1      25.337  44.225  54.154  1.00  0.00     0.006 C 
ENDBRANCH  26  27
ENDBRANCH  24  26
ENDBRANCH   1  24
TORSDOF 8
ENDMDL
MODEL 6
REMARK VINA RESULT:      -7.7      2.804      7.505
REMARK  8 active torsions:
REMARK  status: ('A' for Active; 'I' for Inactive)
REMARK    1  A    between atoms: C_2  and  C_3 
REMARK    2  A    between atoms: C_3  and  N_4 
REMARK    3  A    between atoms: N_4  and  C_5 
REMARK    4  A    between atoms: C_7  and  N_8 
REMARK    5  A    between atoms: N_8  and  C_9 
REMARK    6  A    between atoms: C_9  and  C_10 
REMARK    7  A    between atoms: C_10  and  C_11 
REMARK    8  A    between atoms: C_13  and  O_14 
ROOT
HETATM    1  C   UNL     1      27.459  41.859  49.770  1.00  0.00     0.119 A 
HETATM    2  N   UNL     1      27.708  41.863  51.094  1.00  0.00    -0.207 NA
HETATM    3  C   UNL     1      28.270  40.771  51.623  1.00  0.00     0.181 A 
HETATM    4  N   UNL     1      28.567  39.684  50.919  1.00  0.00    -0.330 N 
HETATM    5  H   UNL     1      28.921  38.886  51.429  1.00  0.00     0.168 HD
HETATM    6  C   UNL     1      28.368  39.640  49.598  1.00  0.00     0.048 A 
HETATM    7  C   UNL     1      27.804  40.759  48.954  1.00  0.00     0.031 A 
HETATM    8  C   UNL     1      28.726  38.495  48.871  1.00  0.00     0.030 A 
HETATM    9  C   UNL     1      28.543  38.457  47.490  1.00  0.00     0.002 A 
HETATM   10  C   UNL     1      28.004  39.558  46.831  1.00  0.00     0.001 A 
HETATM   11  C   UNL     1      27.637  40.698  47.551  1.00  0.00     0.017 A 
ENDROOT
BRANCH   3  12
HETATM   12  N   UNL     1      28.495  40.768  52.994  1.00  0.00    -0.262 NA
HETATM   13  H   UNL     1      27.760  40.161  53.372  1.00  0.00     0.130 HD
BRANCH  12  14
HETATM   14  C   UNL     1      28.461  42.091  53.626  1.00  0.00     0.100 C 
BRANCH  14  15
HETATM   15  C   UNL     1      29.884  42.633  53.811  1.00  0.00     0.053 C 
BRANCH  15  16
HETATM   16  C   UNL     1      29.940  43.647  54.927  1.00  0.00    -0.054 A 
HETATM   17  C   UNL     1      29.023  44.711  54.978  1.00  0.00     0.044 A 
HETATM   18  C   UNL     1      29.108  45.673  55.987  1.00  0.00     0.068 A 
HETATM   19  C   UNL     1      30.111  45.565  56.952  1.00  0.00     0.037 A 
HETATM   20  C   UNL     1      31.018  44.508  56.919  1.00  0.00     0.003 A 
HETATM   21  C   UNL     1      30.935  43.552  55.909  1.00  0.00     0.007 A 
BRANCH  18  22
HETATM   22  O   UNL     1      28.293  46.759  56.135  1.00  0.00    -0.356 OA
HETATM   23  C   UNL     1      27.669  47.273  54.967  1.00  0.00     0.210 C 
ENDBRANCH  18  22
ENDBRANCH  15  16
ENDBRANCH  14  15
ENDBRANCH  12  14
ENDBRANCH   3  12
BRANCH   1  24
HETATM   24  N   UNL     1      26.893  43.000  49.183  1.00  0.00    -0.277 NA
HETATM   25  H   UNL     1      27.042  43.000  48.176  1.00  0.00     0.129 HD
BRANCH  24  26
HETATM   26  C   UNL     1      25.495  43.283  49.513  1.00  0.00     0.093 C 
BRANCH  26  27
HETATM   27  C   UNL     1      25.269  44.795  49.581  1.00  0.00     0.010 C 
HETATM   28  C   UNL     1      26.569  45.586  49.590  1.00  0.00     0.006 C 
ENDBRANCH  26  27
ENDBRANCH  24  26
ENDBRANCH   1  24
TORSDOF 8
ENDMDL
MODEL 7
REMARK VINA RESULT:      -7.6      2.407      6.232
REMARK  8 active torsions:
REMARK  status: ('A' for Active; 'I' for Inactive)
REMARK    1  A    between atoms: C_2  and  C_3 
REMARK    2  A    between atoms: C_3  and  N_4 
REMARK    3  A    between atoms: N_4  and  C_5 
REMARK    4  A    between atoms: C_7  and  N_8 
REMARK    5  A    between atoms: N_8  and  C_9 
REMARK    6  A    between atoms: C_9  and  C_10 
REMARK    7  A    between atoms: C_10  and  C_11 
REMARK    8  A    between atoms: C_13  and  O_14 
ROOT
HETATM    1  C   UNL     1      26.903  43.261  50.135  1.00  0.00     0.119 A 
HETATM    2  N   UNL     1      27.189  42.359  51.094  1.00  0.00    -0.207 NA
HETATM    3  C   UNL     1      27.088  42.755  52.367  1.00  0.00     0.181 A 
HETATM    4  N   UNL     1      26.750  43.988  52.729  1.00  0.00    -0.330 N 
HETATM    5  H   UNL     1      26.774  44.204  53.716  1.00  0.00     0.168 HD
HETATM    6  C   UNL     1      26.428  44.912  51.818  1.00  0.00     0.048 A 
HETATM    7  C   UNL     1      26.481  44.572  50.451  1.00  0.00     0.031 A 
HETATM    8  C   UNL     1      26.036  46.195  52.226  1.00  0.00     0.030 A 
HETATM    9  C   UNL     1      25.675  47.151  51.278  1.00  0.00     0.002 A 
HETATM   10  C   UNL     1      25.704  46.832  49.924  1.00  0.00     0.001 A 
HETATM   11  C   UNL     1      26.101  45.557  49.511  1.00  0.00     0.017 A 
ENDROOT
BRANCH   3  12
HETATM   12  N   UNL     1      27.414  41.830  53.352  1.00  0.00    -0.262 NA
HETATM   13  H   UNL     1      27.039  42.234  54.216  1.00  0.00     0.130 HD
BRANCH  12  14
HETATM   14  C   UNL     1      28.848  41.551  53.482  1.00  0.00     0.100 C 
BRANCH  14  15
HETATM   15  C   UNL     1      29.666  42.828  53.245  1.00  0.00     0.053 C 
BRANCH  15  16
HETATM   16  C   UNL     1      29.891  43.578  54.533  1.00  0.00    -0.054 A 
HETATM   17  C   UNL     1      29.122  44.713  54.848  1.00  0.00     0.044 A 
HETATM   18  C   UNL     1      29.365  45.432  56.021  1.00  0.00     0.068 A 
HETATM   19  C   UNL     1      30.378  45.010  56.884  1.00  0.00     0.037 A 
HETATM   20  C   UNL     1      31.138  43.879  56.589  1.00  0.00     0.003 A 
HETATM   21  C   UNL     1      30.898  43.166  55.417  1.00  0.00     0.007 A 
BRANCH  18  22
HETATM   22  O   UNL     1      28.704  46.555  56.429  1.00  0.00    -0.356 OA
HETATM   23  C   UNL     1      27.706  47.077  55.563  1.00  0.00     0.210 C 
ENDBRANCH  18  22
ENDBRANCH  15  16
ENDBRANCH  14  15
ENDBRANCH  12  14
ENDBRANCH   3  12
BRANCH   1  24
HETATM   24  N   UNL     1      26.976  42.869  48.791  1.00  0.00    -0.277 NA
HETATM   25  H   UNL     1      27.908  43.032  48.417  1.00  0.00     0.129 HD
BRANCH  24  26
HETATM   26  C   UNL     1      26.507  41.518  48.475  1.00  0.00     0.093 C 
BRANCH  26  27
HETATM   27  C   UNL     1      27.560  40.778  47.648  1.00  0.00     0.010 C 
HETATM   28  C   UNL     1      28.699  40.230  48.495  1.00  0.00     0.006 C 
ENDBRANCH  26  27
ENDBRANCH  24  26
ENDBRANCH   1  24
TORSDOF 8
ENDMDL
MODEL 8
REMARK VINA RESULT:      -7.5      2.809      5.421
REMARK  8 active torsions:
REMARK  status: ('A' for Active; 'I' for Inactive)
REMARK    1  A    between atoms: C_2  and  C_3 
REMARK    2  A    between atoms: C_3  and  N_4 
REMARK    3  A    between atoms: N_4  and  C_5 
REMARK    4  A    between atoms: C_7  and  N_8 
REMARK    5  A    between atoms: N_8  and  C_9 
REMARK    6  A    between atoms: C_9  and  C_10 
REMARK    7  A    between atoms: C_10  and  C_11 
REMARK    8  A    between atoms: C_13  and  O_14 
ROOT
HETATM    1  C   UNL     1      28.864  45.060  54.724  1.00  0.00     0.119 A 
HETATM    2  N   UNL     1      28.915  44.152  53.730  1.00  0.00    -0.207 NA
HETATM    3  C   UNL     1      29.798  43.154  53.846  1.00  0.00     0.181 A 
HETATM    4  N   UNL     1      30.637  43.031  54.869  1.00  0.00    -0.330 N 
HETATM    5  H   UNL     1      31.314  42.282  54.824  1.00  0.00     0.168 HD
HETATM    6  C   UNL     1      30.607  43.888  55.895  1.00  0.00     0.048 A 
HETATM    7  C   UNL     1      29.687  44.955  55.868  1.00  0.00     0.031 A 
HETATM    8  C   UNL     1      31.476  43.713  56.982  1.00  0.00     0.030 A 
HETATM    9  C   UNL     1      31.428  44.591  58.064  1.00  0.00     0.002 A 
HETATM   10  C   UNL     1      30.516  45.642  58.065  1.00  0.00     0.001 A 
HETATM   11  C   UNL     1      29.653  45.826  56.982  1.00  0.00     0.017 A 
ENDROOT
BRANCH   3  12
HETATM   12  N   UNL     1      29.868  42.238  52.804  1.00  0.00    -0.262 NA
HETATM   13  H   UNL     1      29.713  42.799  51.960  1.00  0.00     0.130 HD
BRANCH  12  14
HETATM   14  C   UNL     1      28.905  41.136  52.887  1.00  0.00     0.100 C 
BRANCH  14  15
HETATM   15  C   UNL     1      28.056  41.068  51.610  1.00  0.00     0.053 C 
BRANCH  15  16
HETATM   16  C   UNL     1      28.576  40.013  50.667  1.00  0.00    -0.054 A 
HETATM   17  C   UNL     1      28.233  40.035  49.303  1.00  0.00     0.044 A 
HETATM   18  C   UNL     1      28.679  39.030  48.443  1.00  0.00     0.068 A 
HETATM   19  C   UNL     1      29.477  38.001  48.948  1.00  0.00     0.037 A 
HETATM   20  C   UNL     1      29.834  37.975  50.294  1.00  0.00     0.003 A 
HETATM   21  C   UNL     1      29.385  38.976  51.153  1.00  0.00     0.007 A 
BRANCH  18  22
HETATM   22  O   UNL     1      28.401  38.929  47.109  1.00  0.00    -0.356 OA
HETATM   23  C   UNL     1      27.518  37.892  46.702  1.00  0.00     0.210 C 
ENDBRANCH  18  22
ENDBRANCH  15  16
ENDBRANCH  14  15
ENDBRANCH  12  14
ENDBRANCH   3  12
BRANCH   1  24
HETATM   24  N   UNL     1      27.932  46.103  54.642  1.00  0.00    -0.277 NA
HETATM   25  H   UNL     1      28.252  46.825  54.001  1.00  0.00     0.129 HD
BRANCH  24  26
HETATM   26  C   UNL     1      26.545  45.725  54.364  1.00  0.00     0.093 C 
BRANCH  26  27
HETATM   27  C   UNL     1      25.803  46.894  53.713  1.00  0.00     0.010 C 
HETATM   28  C   UNL     1      26.169  47.082  52.247  1.00  0.00     0.006 C 
ENDBRANCH  26  27
ENDBRANCH  24  26
ENDBRANCH   1  24
TORSDOF 8
ENDMDL
MODEL 9
REMARK VINA RESULT:      -7.5      3.776      7.827
REMARK  8 active torsions:
REMARK  status: ('A' for Active; 'I' for Inactive)
REMARK    1  A    between atoms: C_2  and  C_3 
REMARK    2  A    between atoms: C_3  and  N_4 
REMARK    3  A    between atoms: N_4  and  C_5 
REMARK    4  A    between atoms: C_7  and  N_8 
REMARK    5  A    between atoms: N_8  and  C_9 
REMARK    6  A    between atoms: C_9  and  C_10 
REMARK    7  A    between atoms: C_10  and  C_11 
REMARK    8  A    between atoms: C_13  and  O_14 
ROOT
HETATM    1  C   UNL     1      23.787  48.045  48.891  1.00  0.00     0.119 A 
HETATM    2  N   UNL     1      23.494  46.951  49.620  1.00  0.00    -0.207 NA
HETATM    3  C   UNL     1      24.480  46.398  50.334  1.00  0.00     0.181 A 
HETATM    4  N   UNL     1      25.728  46.855  50.338  1.00  0.00    -0.330 N 
HETATM    5  H   UNL     1      26.415  46.321  50.854  1.00  0.00     0.168 HD
HETATM    6  C   UNL     1      26.065  47.954  49.656  1.00  0.00     0.048 A 
HETATM    7  C   UNL     1      25.079  48.616  48.897  1.00  0.00     0.031 A 
HETATM    8  C   UNL     1      27.380  48.439  49.708  1.00  0.00     0.030 A 
HETATM    9  C   UNL     1      27.726  49.600  49.018  1.00  0.00     0.002 A 
HETATM   10  C   UNL     1      26.764  50.279  48.276  1.00  0.00     0.001 A 
HETATM   11  C   UNL     1      25.454  49.797  48.214  1.00  0.00     0.017 A 
ENDROOT
BRANCH   3  12
HETATM   12  N   UNL     1      24.181  45.251  51.059  1.00  0.00    -0.262 NA
HETATM   13  H   UNL     1      23.581  45.581  51.822  1.00  0.00     0.130 HD
BRANCH  12  14
HETATM   14  C   UNL     1      25.347  44.531  51.580  1.00  0.00     0.100 C 
BRANCH  14  15
HETATM   15  C   UNL     1      25.270  44.422  53.108  1.00  0.00     0.053 C 
BRANCH  15  16
HETATM   16  C   UNL     1      26.276  45.329  53.771  1.00  0.00    -0.054 A 
HETATM   17  C   UNL     1      27.489  44.819  54.265  1.00  0.00     0.044 A 
HETATM   18  C   UNL     1      28.396  45.655  54.920  1.00  0.00     0.068 A 
HETATM   19  C   UNL     1      28.091  47.009  55.074  1.00  0.00     0.037 A 
HETATM   20  C   UNL     1      26.897  47.529  54.577  1.00  0.00     0.003 A 
HETATM   21  C   UNL     1      25.990  46.693  53.929  1.00  0.00     0.007 A 
BRANCH  18  22
HETATM   22  O   UNL     1      29.594  45.280  55.458  1.00  0.00    -0.356 OA
HETATM   23  C   UNL     1      30.013  43.938  55.251  1.00  0.00     0.210 C 
ENDBRANCH  18  22
ENDBRANCH  15  16
ENDBRANCH  14  15
ENDBRANCH  12  14
ENDBRANCH   3  12
BRANCH   1  24
HETATM   24  N   UNL     1      22.767  48.661  48.152  1.00  0.00    -0.277 NA
HETATM   25  H   UNL     1      22.743  48.302  47.200  1.00  0.00     0.129 HD
BRANCH  24  26
HETATM   26  C   UNL     1      21.431  48.663  48.752  1.00  0.00     0.093 C 
BRANCH  26  27
HETATM   27  C   UNL     1      20.912  50.098  48.870  1.00  0.00     0.010 C 
HETATM   28  C   UNL     1      21.993  51.139  48.619  1.00  0.00     0.006 C 
ENDBRANCH  26  27
ENDBRANCH  24  26
ENDBRANCH   1  24
TORSDOF 8
ENDMDL
MODEL 10
REMARK VINA RESULT:      -7.4      3.463      7.822
REMARK  8 active torsions:
REMARK  status: ('A' for Active; 'I' for Inactive)
REMARK    1  A    between atoms: C_2  and  C_3 
REMARK    2  A    between atoms: C_3  and  N_4 
REMARK    3  A    between atoms: N_4  and  C_5 
REMARK    4  A    between atoms: C_7  and  N_8 
REMARK    5  A    between atoms: N_8  and  C_9 
REMARK    6  A    between atoms: C_9  and  C_10 
REMARK    7  A    between atoms: C_10  and  C_11 
REMARK    8  A    between atoms: C_13  and  O_14 
ROOT
HETATM    1  C   UNL     1      24.057  47.344  49.790  1.00  0.00     0.119 A 
HETATM    2  N   UNL     1      24.337  46.224  50.484  1.00  0.00    -0.207 NA
HETATM    3  C   UNL     1      25.622  45.953  50.734  1.00  0.00     0.181 A 
HETATM    4  N   UNL     1      26.627  46.712  50.311  1.00  0.00    -0.330 N 
HETATM    5  H   UNL     1      27.565  46.380  50.490  1.00  0.00     0.168 HD
HETATM    6  C   UNL     1      26.403  47.849  49.644  1.00  0.00     0.048 A 
HETATM    7  C   UNL     1      25.075  48.225  49.362  1.00  0.00     0.031 A 
HETATM    8  C   UNL     1      27.480  48.653  49.244  1.00  0.00     0.030 A 
HETATM    9  C   UNL     1      27.246  49.852  48.571  1.00  0.00     0.002 A 
HETATM   10  C   UNL     1      25.942  50.250  48.297  1.00  0.00     0.001 A 
HETATM   11  C   UNL     1      24.865  49.450  48.687  1.00  0.00     0.017 A 
ENDROOT
BRANCH   3  12
HETATM   12  N   UNL     1      25.907  44.781  51.422  1.00  0.00    -0.262 NA
HETATM   13  H   UNL     1      25.255  44.092  51.034  1.00  0.00     0.130 HD
BRANCH  12  14
HETATM   14  C   UNL     1      25.769  44.874  52.879  1.00  0.00     0.100 C 
BRANCH  14  15
HETATM   15  C   UNL     1      26.909  45.711  53.473  1.00  0.00     0.053 C 
BRANCH  15  16
HETATM   16  C   UNL     1      28.024  44.831  53.981  1.00  0.00    -0.054 A 
HETATM   17  C   UNL     1      28.805  45.223  55.082  1.00  0.00     0.044 A 
HETATM   18  C   UNL     1      29.866  44.427  55.519  1.00  0.00     0.068 A 
HETATM   19  C   UNL     1      30.141  43.230  54.855  1.00  0.00     0.037 A 
HETATM   20  C   UNL     1      29.366  42.824  53.770  1.00  0.00     0.003 A 
HETATM   21  C   UNL     1      28.312  43.622  53.332  1.00  0.00     0.007 A 
BRANCH  18  22
HETATM   22  O   UNL     1      30.707  44.704  56.559  1.00  0.00    -0.356 OA
HETATM   23  C   UNL     1      31.564  43.662  57.004  1.00  0.00     0.210 C 
ENDBRANCH  18  22
ENDBRANCH  15  16
ENDBRANCH  14  15
ENDBRANCH  12  14
ENDBRANCH   3  12
BRANCH   1  24
HETATM   24  N   UNL     1      22.717  47.666  49.535  1.00  0.00    -0.277 NA
HETATM   25  H   UNL     1      22.596  48.674  49.454  1.00  0.00     0.129 HD
BRANCH  24  26
HETATM   26  C   UNL     1      22.072  46.965  48.422  1.00  0.00     0.093 C 
BRANCH  26  27
HETATM   27  C   UNL     1      21.053  47.883  47.744  1.00  0.00     0.010 C 
HETATM   28  C   UNL     1      21.251  49.350  48.100  1.00  0.00     0.006 C 
ENDBRANCH  26  27
ENDBRANCH  24  26
ENDBRANCH   1  24
TORSDOF 8
ENDMDL
