MODEL 1
REMARK VINA RESULT:     -10.7      0.000      0.000
REMARK  7 active torsions:
REMARK  status: ('A' for Active; 'I' for Inactive)
REMARK    1  A    between atoms: O_2  and  C_3 
REMARK    2  A    between atoms: C_6  and  C_7 
REMARK       I    between atoms: C_7  and  N_8 
REMARK    3  A    between atoms: N_8  and  C_9 
REMARK    4  A    between atoms: C_9  and  N_10 
REMARK    5  A    between atoms: N_10  and  C_11 
REMARK    6  A    between atoms: C_14  and  N_15 
REMARK       I    between atoms: N_18  and  C_19 
REMARK    7  A    between atoms: C_19  and  C_20 
ROOT
HETATM    1  C   UNL     1      22.577  44.415  49.371  1.00  0.00     0.034 C 
HETATM    2  C   UNL     1      22.761  43.282  50.158  1.00  0.00     0.032 C 
HETATM    3  C   UNL     1      24.015  43.006  50.714  1.00  0.00     0.031 C 
HETATM    4  C   UNL     1      25.119  43.845  50.503  1.00  0.00     0.030 C 
HETATM    5  C   UNL     1      24.950  44.868  49.556  1.00  0.00     0.031 C 
HETATM    6  C   UNL     1      23.696  45.148  48.980  1.00  0.00     0.032 C 
ENDROOT
BRANCH   1   7
HETATM    7  N   UNL     1      21.271  44.898  49.069  1.00  0.00    -0.333 N 
HETATM    8  H   UNL     1      20.592  44.168  48.901  1.00  0.00     0.168 HD
BRANCH   7   9
HETATM    9  C   UNL     1      21.074  46.004  48.265  1.00  0.00     0.179 C 
HETATM   10  S   UNL     1      21.346  46.154  46.609  1.00  0.00    -0.040 SA
BRANCH   9  11
HETATM   11  N   UNL     1      20.518  47.139  48.836  1.00  0.00    -0.299 N 
HETATM   12  C   UNL     1      20.786  48.442  49.238  1.00  0.00     0.257 C 
HETATM   13  O   UNL     1      19.885  49.098  49.763  1.00  0.00    -0.267 OA
HETATM   14  H   UNL     1      19.526  46.981  48.980  1.00  0.00     0.171 HD
BRANCH  12  15
HETATM   15  C   UNL     1      22.060  49.122  48.991  1.00  0.00     0.032 A 
HETATM   16  C   UNL     1      23.209  48.515  49.518  1.00  0.00     0.020 A 
HETATM   17  C   UNL     1      24.472  48.889  49.061  1.00  0.00     0.038 A 
HETATM   18  C   UNL     1      24.582  49.854  48.061  1.00  0.00     0.068 A 
HETATM   19  C   UNL     1      23.440  50.502  47.579  1.00  0.00     0.038 A 
HETATM   20  C   UNL     1      22.169  50.117  48.020  1.00  0.00     0.020 A 
BRANCH  18  21
HETATM   21  O   UNL     1      25.776  50.213  47.497  1.00  0.00    -0.356 OA
HETATM   22  C   UNL     1      26.884  50.034  48.384  1.00  0.00     0.210 C 
ENDBRANCH  18  21
ENDBRANCH  12  15
ENDBRANCH   9  11
ENDBRANCH   7   9
ENDBRANCH   1   7
BRANCH   4  23
HETATM   23  N   UNL     1      26.266  43.769  51.284  1.00  0.00    -0.378 N 
HETATM   24  C   UNL     1      26.590  44.813  52.272  1.00  0.00     0.143 C 
HETATM   25  C   UNL     1      27.435  44.226  53.435  1.00  0.00     0.146 C 
HETATM   26  N   UNL     1      28.560  43.386  52.989  1.00  0.00    -0.345 N 
HETATM   27  C   UNL     1      29.756  43.181  53.674  1.00  0.00     0.253 C 
HETATM   28  C   UNL     1      28.243  42.436  51.920  1.00  0.00     0.146 C 
HETATM   29  O   UNL     1      30.666  42.479  53.234  1.00  0.00    -0.267 OA
HETATM   30  C   UNL     1      27.454  43.064  50.765  1.00  0.00     0.143 C 
BRANCH  27  31
HETATM   31  C   UNL     1      29.985  43.812  54.993  1.00  0.00     0.032 A 
HETATM   32  C   UNL     1      30.922  43.295  55.893  1.00  0.00     0.017 A 
HETATM   33  C   UNL     1      31.183  43.971  57.086  1.00  0.00     0.001 A 
HETATM   34  C   UNL     1      30.529  45.172  57.367  1.00  0.00     0.000 A 
HETATM   35  C   UNL     1      29.618  45.705  56.455  1.00  0.00     0.001 A 
HETATM   36  C   UNL     1      29.349  45.029  55.264  1.00  0.00     0.017 A 
ENDBRANCH  27  31
ENDBRANCH   4  23
TORSDOF 7
ENDMDL
MODEL 2
REMARK VINA RESULT:     -10.2     12.099     14.053
REMARK  7 active torsions:
REMARK  status: ('A' for Active; 'I' for Inactive)
REMARK    1  A    between atoms: O_2  and  C_3 
REMARK    2  A    between atoms: C_6  and  C_7 
REMARK       I    between atoms: C_7  and  N_8 
REMARK    3  A    between atoms: N_8  and  C_9 
REMARK    4  A    between atoms: C_9  and  N_10 
REMARK    5  A    between atoms: N_10  and  C_11 
REMARK    6  A    between atoms: C_14  and  N_15 
REMARK       I    between atoms: N_18  and  C_19 
REMARK    7  A    between atoms: C_19  and  C_20 
ROOT
HETATM    1  C   UNL     1      30.439  48.327  41.227  1.00  0.00     0.034 C 
HETATM    2  C   UNL     1      30.449  49.182  42.325  1.00  0.00     0.032 C 
HETATM    3  C   UNL     1      31.647  49.760  42.757  1.00  0.00     0.031 C 
HETATM    4  C   UNL     1      32.867  49.505  42.113  1.00  0.00     0.030 C 
HETATM    5  C   UNL     1      32.855  48.497  41.134  1.00  0.00     0.031 C 
HETATM    6  C   UNL     1      31.656  47.899  40.700  1.00  0.00     0.032 C 
ENDROOT
BRANCH   1   7
HETATM    7  N   UNL     1      29.221  47.989  40.567  1.00  0.00    -0.333 N 
HETATM    8  H   UNL     1      28.728  47.215  40.989  1.00  0.00     0.168 HD
BRANCH   7   9
HETATM    9  C   UNL     1      29.115  48.004  39.189  1.00  0.00     0.179 C 
HETATM   10  S   UNL     1      29.210  46.705  38.120  1.00  0.00    -0.040 SA
BRANCH   9  11
HETATM   11  N   UNL     1      28.824  49.209  38.567  1.00  0.00    -0.299 N 
HETATM   12  C   UNL     1      29.227  50.532  38.435  1.00  0.00     0.257 C 
HETATM   13  O   UNL     1      28.566  51.285  37.718  1.00  0.00    -0.267 OA
HETATM   14  H   UNL     1      28.046  49.069  37.930  1.00  0.00     0.171 HD
BRANCH  12  15
HETATM   15  C   UNL     1      30.453  51.070  39.028  1.00  0.00     0.032 A 
HETATM   16  C   UNL     1      31.650  50.804  38.349  1.00  0.00     0.020 A 
HETATM   17  C   UNL     1      32.799  51.540  38.638  1.00  0.00     0.038 A 
HETATM   18  C   UNL     1      32.742  52.556  39.591  1.00  0.00     0.068 A 
HETATM   19  C   UNL     1      31.564  52.781  40.311  1.00  0.00     0.038 A 
HETATM   20  C   UNL     1      30.404  52.059  40.011  1.00  0.00     0.020 A 
BRANCH  18  21
HETATM   21  O   UNL     1      33.799  53.379  39.869  1.00  0.00    -0.356 OA
HETATM   22  C   UNL     1      35.048  52.851  39.415  1.00  0.00     0.210 C 
ENDBRANCH  18  21
ENDBRANCH  12  15
ENDBRANCH   9  11
ENDBRANCH   7   9
ENDBRANCH   1   7
BRANCH   4  23
HETATM   23  N   UNL     1      33.992  50.295  42.317  1.00  0.00    -0.378 N 
HETATM   24  C   UNL     1      33.888  51.636  42.919  1.00  0.00     0.143 C 
HETATM   25  C   UNL     1      35.198  52.009  43.662  1.00  0.00     0.146 C 
HETATM   26  N   UNL     1      36.421  51.743  42.884  1.00  0.00    -0.345 N 
HETATM   27  C   UNL     1      37.633  52.420  42.999  1.00  0.00     0.253 C 
HETATM   28  C   UNL     1      36.451  50.451  42.195  1.00  0.00     0.146 C 
HETATM   29  O   UNL     1      38.612  52.159  42.301  1.00  0.00    -0.267 OA
HETATM   30  C   UNL     1      35.160  50.141  41.428  1.00  0.00     0.143 C 
BRANCH  27  31
HETATM   31  C   UNL     1      37.796  53.506  43.990  1.00  0.00     0.032 A 
HETATM   32  C   UNL     1      37.885  53.234  45.359  1.00  0.00     0.017 A 
HETATM   33  C   UNL     1      38.137  54.272  46.257  1.00  0.00     0.001 A 
HETATM   34  C   UNL     1      38.325  55.573  45.787  1.00  0.00     0.000 A 
HETATM   35  C   UNL     1      38.268  55.841  44.419  1.00  0.00     0.001 A 
HETATM   36  C   UNL     1      38.010  54.807  43.518  1.00  0.00     0.017 A 
ENDBRANCH  27  31
ENDBRANCH   4  23
TORSDOF 7
ENDMDL
MODEL 3
REMARK VINA RESULT:     -10.1      3.452      8.908
REMARK  7 active torsions:
REMARK  status: ('A' for Active; 'I' for Inactive)
REMARK    1  A    between atoms: O_2  and  C_3 
REMARK    2  A    between atoms: C_6  and  C_7 
REMARK       I    between atoms: C_7  and  N_8 
REMARK    3  A    between atoms: N_8  and  C_9 
REMARK    4  A    between atoms: C_9  and  N_10 
REMARK    5  A    between atoms: N_10  and  C_11 
REMARK    6  A    between atoms: C_14  and  N_15 
REMARK       I    between atoms: N_18  and  C_19 
REMARK    7  A    between atoms: C_19  and  C_20 
ROOT
HETATM    1  C   UNL     1      23.895  42.400  49.240  1.00  0.00     0.034 C 
HETATM    2  C   UNL     1      24.110  43.075  48.042  1.00  0.00     0.032 C 
HETATM    3  C   UNL     1      23.517  44.322  47.820  1.00  0.00     0.031 C 
HETATM    4  C   UNL     1      22.695  44.933  48.778  1.00  0.00     0.030 C 
HETATM    5  C   UNL     1      22.346  44.147  49.889  1.00  0.00     0.031 C 
HETATM    6  C   UNL     1      22.927  42.885  50.118  1.00  0.00     0.032 C 
ENDROOT
BRANCH   1   7
HETATM    7  N   UNL     1      24.727  41.311  49.631  1.00  0.00    -0.333 N 
HETATM    8  H   UNL     1      24.245  40.595  50.157  1.00  0.00     0.168 HD
BRANCH   7   9
HETATM    9  C   UNL     1      26.025  41.509  50.064  1.00  0.00     0.179 C 
HETATM   10  S   UNL     1      27.461  41.169  49.252  1.00  0.00    -0.040 SA
BRANCH   9  11
HETATM   11  N   UNL     1      26.219  42.128  51.290  1.00  0.00    -0.299 N 
HETATM   12  C   UNL     1      26.336  43.361  51.920  1.00  0.00     0.257 C 
HETATM   13  O   UNL     1      26.547  43.389  53.134  1.00  0.00    -0.267 OA
HETATM   14  H   UNL     1      26.244  41.418  52.015  1.00  0.00     0.171 HD
BRANCH  12  15
HETATM   15  C   UNL     1      26.133  44.642  51.241  1.00  0.00     0.032 A 
HETATM   16  C   UNL     1      25.512  45.657  51.985  1.00  0.00     0.020 A 
HETATM   17  C   UNL     1      25.579  46.982  51.556  1.00  0.00     0.038 A 
HETATM   18  C   UNL     1      26.286  47.293  50.396  1.00  0.00     0.068 A 
HETATM   19  C   UNL     1      26.855  46.275  49.623  1.00  0.00     0.038 A 
HETATM   20  C   UNL     1      26.807  44.946  50.058  1.00  0.00     0.020 A 
BRANCH  18  21
HETATM   21  O   UNL     1      26.474  48.575  49.956  1.00  0.00    -0.356 OA
HETATM   22  C   UNL     1      27.698  48.740  49.234  1.00  0.00     0.210 C 
ENDBRANCH  18  21
ENDBRANCH  12  15
ENDBRANCH   9  11
ENDBRANCH   7   9
ENDBRANCH   1   7
BRANCH   4  23
HETATM   23  N   UNL     1      22.360  46.280  48.716  1.00  0.00    -0.378 N 
HETATM   24  C   UNL     1      21.049  46.721  48.207  1.00  0.00     0.143 C 
HETATM   25  C   UNL     1      20.637  48.073  48.847  1.00  0.00     0.146 C 
HETATM   26  N   UNL     1      21.707  49.086  48.840  1.00  0.00    -0.345 N 
HETATM   27  C   UNL     1      21.532  50.468  48.817  1.00  0.00     0.253 C 
HETATM   28  C   UNL     1      23.030  48.597  49.236  1.00  0.00     0.146 C 
HETATM   29  O   UNL     1      22.473  51.261  48.793  1.00  0.00    -0.267 OA
HETATM   30  C   UNL     1      23.425  47.288  48.544  1.00  0.00     0.143 C 
BRANCH  27  31
HETATM   31  C   UNL     1      20.173  51.054  48.823  1.00  0.00     0.032 A 
HETATM   32  C   UNL     1      19.556  51.447  50.015  1.00  0.00     0.017 A 
HETATM   33  C   UNL     1      18.316  52.087  49.974  1.00  0.00     0.001 A 
HETATM   34  C   UNL     1      17.706  52.353  48.748  1.00  0.00     0.000 A 
HETATM   35  C   UNL     1      18.335  51.989  47.557  1.00  0.00     0.001 A 
HETATM   36  C   UNL     1      19.572  51.346  47.593  1.00  0.00     0.017 A 
ENDBRANCH  27  31
ENDBRANCH   4  23
TORSDOF 7
ENDMDL
MODEL 4
REMARK VINA RESULT:     -10.0     11.781     15.006
REMARK  7 active torsions:
REMARK  status: ('A' for Active; 'I' for Inactive)
REMARK    1  A    between atoms: O_2  and  C_3 
REMARK    2  A    between atoms: C_6  and  C_7 
REMARK       I    between atoms: C_7  and  N_8 
REMARK    3  A    between atoms: N_8  and  C_9 
REMARK    4  A    between atoms: C_9  and  N_10 
REMARK    5  A    between atoms: N_10  and  C_11 
REMARK    6  A    between atoms: C_14  and  N_15 
REMARK       I    between atoms: N_18  and  C_19 
REMARK    7  A    between atoms: C_19  and  C_20 
ROOT
HETATM    1  C   UNL     1      33.727  50.538  42.417  1.00  0.00     0.034 C 
HETATM    2  C   UNL     1      33.736  49.460  41.536  1.00  0.00     0.032 C 
HETATM    3  C   UNL     1      32.538  48.829  41.183  1.00  0.00     0.031 C 
HETATM    4  C   UNL     1      31.302  49.248  41.695  1.00  0.00     0.030 C 
HETATM    5  C   UNL     1      31.346  50.207  42.721  1.00  0.00     0.031 C 
HETATM    6  C   UNL     1      32.547  50.841  43.093  1.00  0.00     0.032 C 
ENDROOT
BRANCH   1   7
HETATM    7  N   UNL     1      34.857  51.398  42.538  1.00  0.00    -0.333 N 
HETATM    8  H   UNL     1      34.698  52.203  43.128  1.00  0.00     0.168 HD
BRANCH   7   9
HETATM    9  C   UNL     1      35.672  51.681  41.459  1.00  0.00     0.179 C 
HETATM   10  S   UNL     1      37.086  50.900  40.983  1.00  0.00    -0.040 SA
BRANCH   9  11
HETATM   11  N   UNL     1      35.278  52.685  40.586  1.00  0.00    -0.299 N 
HETATM   12  C   UNL     1      34.285  53.075  39.695  1.00  0.00     0.257 C 
HETATM   13  O   UNL     1      34.416  54.140  39.091  1.00  0.00    -0.267 OA
HETATM   14  H   UNL     1      35.942  53.451  40.647  1.00  0.00     0.171 HD
BRANCH  12  15
HETATM   15  C   UNL     1      33.038  52.334  39.495  1.00  0.00     0.032 A 
HETATM   16  C   UNL     1      31.899  52.834  40.143  1.00  0.00     0.020 A 
HETATM   17  C   UNL     1      30.629  52.411  39.754  1.00  0.00     0.038 A 
HETATM   18  C   UNL     1      30.499  51.507  38.701  1.00  0.00     0.068 A 
HETATM   19  C   UNL     1      31.636  50.963  38.095  1.00  0.00     0.038 A 
HETATM   20  C   UNL     1      32.912  51.398  38.469  1.00  0.00     0.020 A 
BRANCH  18  21
HETATM   21  O   UNL     1      29.288  51.110  38.202  1.00  0.00    -0.356 OA
HETATM   22  C   UNL     1      28.255  52.075  38.420  1.00  0.00     0.210 C 
ENDBRANCH  18  21
ENDBRANCH  12  15
ENDBRANCH   9  11
ENDBRANCH   7   9
ENDBRANCH   1   7
BRANCH   4  23
HETATM   23  N   UNL     1      30.094  48.855  41.130  1.00  0.00    -0.378 N 
HETATM   24  C   UNL     1      28.811  49.118  41.804  1.00  0.00     0.143 C 
HETATM   25  C   UNL     1      27.662  49.248  40.769  1.00  0.00     0.146 C 
HETATM   26  N   UNL     1      27.652  48.181  39.753  1.00  0.00    -0.345 N 
HETATM   27  C   UNL     1      26.534  47.704  39.073  1.00  0.00     0.253 C 
HETATM   28  C   UNL     1      28.960  47.853  39.181  1.00  0.00     0.146 C 
HETATM   29  O   UNL     1      26.593  46.793  38.247  1.00  0.00    -0.267 OA
HETATM   30  C   UNL     1      30.058  47.680  40.237  1.00  0.00     0.143 C 
BRANCH  27  31
HETATM   31  C   UNL     1      25.197  48.288  39.319  1.00  0.00     0.032 A 
HETATM   32  C   UNL     1      24.756  49.415  38.619  1.00  0.00     0.017 A 
HETATM   33  C   UNL     1      23.452  49.880  38.806  1.00  0.00     0.001 A 
HETATM   34  C   UNL     1      22.587  49.208  39.670  1.00  0.00     0.000 A 
HETATM   35  C   UNL     1      23.017  48.065  40.346  1.00  0.00     0.001 A 
HETATM   36  C   UNL     1      24.320  47.600  40.166  1.00  0.00     0.017 A 
ENDBRANCH  27  31
ENDBRANCH   4  23
TORSDOF 7
ENDMDL
MODEL 5
REMARK VINA RESULT:     -10.0      4.315      7.248
REMARK  7 active torsions:
REMARK  status: ('A' for Active; 'I' for Inactive)
REMARK    1  A    between atoms: O_2  and  C_3 
REMARK    2  A    between atoms: C_6  and  C_7 
REMARK       I    between atoms: C_7  and  N_8 
REMARK    3  A    between atoms: N_8  and  C_9 
REMARK    4  A    between atoms: C_9  and  N_10 
REMARK    5  A    between atoms: N_10  and  C_11 
REMARK    6  A    between atoms: C_14  and  N_15 
REMARK       I    between atoms: N_18  and  C_19 
REMARK    7  A    between atoms: C_19  and  C_20 
ROOT
HETATM    1  C   UNL     1      24.547  42.944  48.725  1.00  0.00     0.034 C 
HETATM    2  C   UNL     1      24.659  44.316  48.933  1.00  0.00     0.032 C 
HETATM    3  C   UNL     1      25.082  44.809  50.171  1.00  0.00     0.031 C 
HETATM    4  C   UNL     1      25.403  43.956  51.237  1.00  0.00     0.030 C 
HETATM    5  C   UNL     1      25.100  42.596  51.059  1.00  0.00     0.031 C 
HETATM    6  C   UNL     1      24.662  42.089  49.820  1.00  0.00     0.032 C 
ENDROOT
BRANCH   1   7
HETATM    7  N   UNL     1      24.445  42.404  47.410  1.00  0.00    -0.333 N 
HETATM    8  H   UNL     1      23.518  42.468  47.012  1.00  0.00     0.168 HD
BRANCH   7   9
HETATM    9  C   UNL     1      25.101  41.243  47.050  1.00  0.00     0.179 C 
HETATM   10  S   UNL     1      24.467  39.690  46.889  1.00  0.00    -0.040 SA
BRANCH   9  11
HETATM   11  N   UNL     1      26.441  41.329  46.700  1.00  0.00    -0.299 N 
HETATM   12  C   UNL     1      27.728  40.966  47.077  1.00  0.00     0.257 C 
HETATM   13  O   UNL     1      28.676  41.338  46.386  1.00  0.00    -0.267 OA
HETATM   14  H   UNL     1      26.515  41.800  45.803  1.00  0.00     0.171 HD
BRANCH  12  15
HETATM   15  C   UNL     1      28.022  40.083  48.208  1.00  0.00     0.032 A 
HETATM   16  C   UNL     1      28.752  38.920  47.924  1.00  0.00     0.020 A 
HETATM   17  C   UNL     1      29.362  38.205  48.954  1.00  0.00     0.038 A 
HETATM   18  C   UNL     1      29.260  38.669  50.265  1.00  0.00     0.068 A 
HETATM   19  C   UNL     1      28.482  39.795  50.555  1.00  0.00     0.038 A 
HETATM   20  C   UNL     1      27.884  40.526  49.523  1.00  0.00     0.020 A 
BRANCH  18  21
HETATM   21  O   UNL     1      29.900  38.077  51.319  1.00  0.00    -0.356 OA
HETATM   22  C   UNL     1      29.714  36.659  51.355  1.00  0.00     0.210 C 
ENDBRANCH  18  21
ENDBRANCH  12  15
ENDBRANCH   9  11
ENDBRANCH   7   9
ENDBRANCH   1   7
BRANCH   4  23
HETATM   23  N   UNL     1      26.114  44.395  52.348  1.00  0.00    -0.378 N 
HETATM   24  C   UNL     1      26.853  43.452  53.206  1.00  0.00     0.143 C 
HETATM   25  C   UNL     1      28.057  44.156  53.888  1.00  0.00     0.146 C 
HETATM   26  N   UNL     1      27.721  45.456  54.495  1.00  0.00    -0.345 N 
HETATM   27  C   UNL     1      28.361  46.045  55.583  1.00  0.00     0.253 C 
HETATM   28  C   UNL     1      26.884  46.330  53.671  1.00  0.00     0.146 C 
HETATM   29  O   UNL     1      28.015  47.129  56.054  1.00  0.00    -0.267 OA
HETATM   30  C   UNL     1      25.675  45.613  53.058  1.00  0.00     0.143 C 
BRANCH  27  31
HETATM   31  C   UNL     1      29.511  45.378  56.232  1.00  0.00     0.032 A 
HETATM   32  C   UNL     1      29.892  45.696  57.539  1.00  0.00     0.017 A 
HETATM   33  C   UNL     1      30.920  44.978  58.154  1.00  0.00     0.001 A 
HETATM   34  C   UNL     1      31.546  43.931  57.475  1.00  0.00     0.000 A 
HETATM   35  C   UNL     1      31.144  43.593  56.183  1.00  0.00     0.001 A 
HETATM   36  C   UNL     1      30.121  44.311  55.562  1.00  0.00     0.017 A 
ENDBRANCH  27  31
ENDBRANCH   4  23
TORSDOF 7
ENDMDL
MODEL 6
REMARK VINA RESULT:      -9.9      2.719      9.984
REMARK  7 active torsions:
REMARK  status: ('A' for Active; 'I' for Inactive)
REMARK    1  A    between atoms: O_2  and  C_3 
REMARK    2  A    between atoms: C_6  and  C_7 
REMARK       I    between atoms: C_7  and  N_8 
REMARK    3  A    between atoms: N_8  and  C_9 
REMARK    4  A    between atoms: C_9  and  N_10 
REMARK    5  A    between atoms: N_10  and  C_11 
REMARK    6  A    between atoms: C_14  and  N_15 
REMARK       I    between atoms: N_18  and  C_19 
REMARK    7  A    between atoms: C_19  and  C_20 
ROOT
HETATM    1  C   UNL     1      25.043  43.008  50.412  1.00  0.00     0.034 C 
HETATM    2  C   UNL     1      25.894  44.098  50.247  1.00  0.00     0.032 C 
HETATM    3  C   UNL     1      25.405  45.301  49.727  1.00  0.00     0.031 C 
HETATM    4  C   UNL     1      24.062  45.455  49.354  1.00  0.00     0.030 C 
HETATM    5  C   UNL     1      23.279  44.289  49.353  1.00  0.00     0.031 C 
HETATM    6  C   UNL     1      23.763  43.069  49.864  1.00  0.00     0.032 C 
ENDROOT
BRANCH   1   7
HETATM    7  N   UNL     1      25.414  41.901  51.229  1.00  0.00    -0.333 N 
HETATM    8  H   UNL     1      25.168  42.009  52.203  1.00  0.00     0.168 HD
BRANCH   7   9
HETATM    9  C   UNL     1      26.616  41.241  51.052  1.00  0.00     0.179 C 
HETATM   10  S   UNL     1      27.442  40.941  49.616  1.00  0.00    -0.040 SA
BRANCH   9  11
HETATM   11  N   UNL     1      27.300  40.815  52.181  1.00  0.00    -0.299 N 
HETATM   12  C   UNL     1      27.999  41.245  53.302  1.00  0.00     0.257 C 
HETATM   13  O   UNL     1      28.481  40.403  54.060  1.00  0.00    -0.267 OA
HETATM   14  H   UNL     1      27.234  39.803  52.241  1.00  0.00     0.171 HD
BRANCH  12  15
HETATM   15  C   UNL     1      28.121  42.652  53.691  1.00  0.00     0.032 A 
HETATM   16  C   UNL     1      26.930  43.325  54.001  1.00  0.00     0.020 A 
HETATM   17  C   UNL     1      26.968  44.534  54.693  1.00  0.00     0.038 A 
HETATM   18  C   UNL     1      28.196  45.058  55.094  1.00  0.00     0.068 A 
HETATM   19  C   UNL     1      29.386  44.418  54.732  1.00  0.00     0.038 A 
HETATM   20  C   UNL     1      29.353  43.195  54.055  1.00  0.00     0.020 A 
BRANCH  18  21
HETATM   21  O   UNL     1      28.314  46.192  55.850  1.00  0.00    -0.356 OA
HETATM   22  C   UNL     1      29.162  46.013  56.988  1.00  0.00     0.210 C 
ENDBRANCH  18  21
ENDBRANCH  12  15
ENDBRANCH   9  11
ENDBRANCH   7   9
ENDBRANCH   1   7
BRANCH   4  23
HETATM   23  N   UNL     1      23.492  46.704  49.138  1.00  0.00    -0.378 N 
HETATM   24  C   UNL     1      22.167  46.844  48.509  1.00  0.00     0.143 C 
HETATM   25  C   UNL     1      21.466  48.143  48.985  1.00  0.00     0.146 C 
HETATM   26  N   UNL     1      22.330  49.336  48.944  1.00  0.00    -0.345 N 
HETATM   27  C   UNL     1      21.907  50.653  48.773  1.00  0.00     0.253 C 
HETATM   28  C   UNL     1      23.684  49.142  49.466  1.00  0.00     0.146 C 
HETATM   29  O   UNL     1      22.687  51.604  48.729  1.00  0.00    -0.267 OA
HETATM   30  C   UNL     1      24.365  47.877  48.933  1.00  0.00     0.143 C 
BRANCH  27  31
HETATM   31  C   UNL     1      20.468  50.969  48.638  1.00  0.00     0.032 A 
HETATM   32  C   UNL     1      19.748  51.544  49.690  1.00  0.00     0.017 A 
HETATM   33  C   UNL     1      18.418  51.920  49.494  1.00  0.00     0.001 A 
HETATM   34  C   UNL     1      17.817  51.744  48.247  1.00  0.00     0.000 A 
HETATM   35  C   UNL     1      18.544  51.200  47.188  1.00  0.00     0.001 A 
HETATM   36  C   UNL     1      19.872  50.818  47.380  1.00  0.00     0.017 A 
ENDBRANCH  27  31
ENDBRANCH   4  23
TORSDOF 7
ENDMDL
MODEL 7
REMARK VINA RESULT:      -9.8     11.618     14.751
REMARK  7 active torsions:
REMARK  status: ('A' for Active; 'I' for Inactive)
REMARK    1  A    between atoms: O_2  and  C_3 
REMARK    2  A    between atoms: C_6  and  C_7 
REMARK       I    between atoms: C_7  and  N_8 
REMARK    3  A    between atoms: N_8  and  C_9 
REMARK    4  A    between atoms: C_9  and  N_10 
REMARK    5  A    between atoms: N_10  and  C_11 
REMARK    6  A    between atoms: C_14  and  N_15 
REMARK       I    between atoms: N_18  and  C_19 
REMARK    7  A    between atoms: C_19  and  C_20 
ROOT
HETATM    1  C   UNL     1      32.396  48.660  41.700  1.00  0.00     0.034 C 
HETATM    2  C   UNL     1      32.142  47.789  40.644  1.00  0.00     0.032 C 
HETATM    3  C   UNL     1      30.830  47.571  40.211  1.00  0.00     0.031 C 
HETATM    4  C   UNL     1      29.735  48.208  40.813  1.00  0.00     0.030 C 
HETATM    5  C   UNL     1      30.005  48.928  41.990  1.00  0.00     0.031 C 
HETATM    6  C   UNL     1      31.321  49.145  42.442  1.00  0.00     0.032 C 
ENDROOT
BRANCH   1   7
HETATM    7  N   UNL     1      33.710  49.154  41.947  1.00  0.00    -0.333 N 
HETATM    8  H   UNL     1      34.197  48.671  42.689  1.00  0.00     0.168 HD
BRANCH   7   9
HETATM    9  C   UNL     1      33.994  50.506  41.914  1.00  0.00     0.179 C 
HETATM   10  S   UNL     1      34.171  51.569  43.209  1.00  0.00    -0.040 SA
BRANCH   9  11
HETATM   11  N   UNL     1      34.243  51.093  40.682  1.00  0.00    -0.299 N 
HETATM   12  C   UNL     1      33.642  51.667  39.568  1.00  0.00     0.257 C 
HETATM   13  O   UNL     1      34.356  52.050  38.640  1.00  0.00    -0.267 OA
HETATM   14  H   UNL     1      35.247  51.179  40.557  1.00  0.00     0.171 HD
BRANCH  12  15
HETATM   15  C   UNL     1      32.205  51.931  39.467  1.00  0.00     0.032 A 
HETATM   16  C   UNL     1      31.488  51.162  38.538  1.00  0.00     0.020 A 
HETATM   17  C   UNL     1      30.097  51.098  38.606  1.00  0.00     0.038 A 
HETATM   18  C   UNL     1      29.426  51.785  39.616  1.00  0.00     0.068 A 
HETATM   19  C   UNL     1      30.136  52.599  40.506  1.00  0.00     0.038 A 
HETATM   20  C   UNL     1      31.533  52.652  40.455  1.00  0.00     0.020 A 
BRANCH  18  21
HETATM   21  O   UNL     1      28.074  51.704  39.805  1.00  0.00    -0.356 OA
HETATM   22  C   UNL     1      27.684  51.980  41.153  1.00  0.00     0.210 C 
ENDBRANCH  18  21
ENDBRANCH  12  15
ENDBRANCH   9  11
ENDBRANCH   7   9
ENDBRANCH   1   7
BRANCH   4  23
HETATM   23  N   UNL     1      28.483  48.255  40.213  1.00  0.00    -0.378 N 
HETATM   24  C   UNL     1      27.250  48.067  40.997  1.00  0.00     0.143 C 
HETATM   25  C   UNL     1      26.060  48.814  40.339  1.00  0.00     0.146 C 
HETATM   26  N   UNL     1      25.944  48.589  38.887  1.00  0.00    -0.345 N 
HETATM   27  C   UNL     1      24.770  48.639  38.138  1.00  0.00     0.253 C 
HETATM   28  C   UNL     1      27.203  48.664  38.143  1.00  0.00     0.146 C 
HETATM   29  O   UNL     1      24.741  48.421  36.927  1.00  0.00    -0.267 OA
HETATM   30  C   UNL     1      28.341  47.870  38.795  1.00  0.00     0.143 C 
BRANCH  27  31
HETATM   31  C   UNL     1      23.479  48.965  38.783  1.00  0.00     0.032 A 
HETATM   32  C   UNL     1      22.779  48.012  39.531  1.00  0.00     0.017 A 
HETATM   33  C   UNL     1      21.615  48.382  40.206  1.00  0.00     0.001 A 
HETATM   34  C   UNL     1      21.165  49.702  40.155  1.00  0.00     0.000 A 
HETATM   35  C   UNL     1      21.880  50.660  39.435  1.00  0.00     0.001 A 
HETATM   36  C   UNL     1      23.041  50.294  38.754  1.00  0.00     0.017 A 
ENDBRANCH  27  31
ENDBRANCH   4  23
TORSDOF 7
ENDMDL
MODEL 8
REMARK VINA RESULT:      -9.8      3.164     11.220
REMARK  7 active torsions:
REMARK  status: ('A' for Active; 'I' for Inactive)
REMARK    1  A    between atoms: O_2  and  C_3 
REMARK    2  A    between atoms: C_6  and  C_7 
REMARK       I    between atoms: C_7  and  N_8 
REMARK    3  A    between atoms: N_8  and  C_9 
REMARK    4  A    between atoms: C_9  and  N_10 
REMARK    5  A    between atoms: N_10  and  C_11 
REMARK    6  A    between atoms: C_14  and  N_15 
REMARK       I    between atoms: N_18  and  C_19 
REMARK    7  A    between atoms: C_19  and  C_20 
ROOT
HETATM    1  C   UNL     1      25.689  46.563  50.190  1.00  0.00     0.034 C 
HETATM    2  C   UNL     1      25.927  47.869  49.774  1.00  0.00     0.032 C 
HETATM    3  C   UNL     1      24.903  48.618  49.184  1.00  0.00     0.031 C 
HETATM    4  C   UNL     1      23.618  48.090  48.990  1.00  0.00     0.030 C 
HETATM    5  C   UNL     1      23.464  46.717  49.244  1.00  0.00     0.031 C 
HETATM    6  C   UNL     1      24.492  45.951  49.827  1.00  0.00     0.032 C 
ENDROOT
BRANCH   1   7
HETATM    7  N   UNL     1      26.587  45.898  51.076  1.00  0.00    -0.333 N 
HETATM    8  H   UNL     1      27.553  46.169  50.961  1.00  0.00     0.168 HD
BRANCH   7   9
HETATM    9  C   UNL     1      26.442  44.558  51.384  1.00  0.00     0.179 C 
HETATM   10  S   UNL     1      26.728  43.223  50.399  1.00  0.00    -0.040 SA
BRANCH   9  11
HETATM   11  N   UNL     1      26.084  44.219  52.681  1.00  0.00    -0.299 N 
HETATM   12  C   UNL     1      26.578  43.984  53.958  1.00  0.00     0.257 C 
HETATM   13  O   UNL     1      25.790  43.658  54.848  1.00  0.00    -0.267 OA
HETATM   14  H   UNL     1      25.072  44.160  52.736  1.00  0.00     0.171 HD
BRANCH  12  15
HETATM   15  C   UNL     1      27.977  44.190  54.338  1.00  0.00     0.032 A 
HETATM   16  C   UNL     1      28.250  45.296  55.157  1.00  0.00     0.020 A 
HETATM   17  C   UNL     1      29.465  45.382  55.836  1.00  0.00     0.038 A 
HETATM   18  C   UNL     1      30.395  44.351  55.713  1.00  0.00     0.068 A 
HETATM   19  C   UNL     1      30.148  43.278  54.849  1.00  0.00     0.038 A 
HETATM   20  C   UNL     1      28.923  43.177  54.181  1.00  0.00     0.020 A 
BRANCH  18  21
HETATM   21  O   UNL     1      31.571  44.317  56.412  1.00  0.00    -0.356 OA
HETATM   22  C   UNL     1      31.683  43.165  57.252  1.00  0.00     0.210 C 
ENDBRANCH  18  21
ENDBRANCH  12  15
ENDBRANCH   9  11
ENDBRANCH   7   9
ENDBRANCH   1   7
BRANCH   4  23
HETATM   23  N   UNL     1      22.522  48.896  48.705  1.00  0.00    -0.378 N 
HETATM   24  C   UNL     1      21.503  48.486  47.723  1.00  0.00     0.143 C 
HETATM   25  C   UNL     1      20.126  49.116  48.062  1.00  0.00     0.146 C 
HETATM   26  N   UNL     1      20.189  50.557  48.365  1.00  0.00    -0.345 N 
HETATM   27  C   UNL     1      19.167  51.483  48.171  1.00  0.00     0.253 C 
HETATM   28  C   UNL     1      21.284  50.960  49.250  1.00  0.00     0.146 C 
HETATM   29  O   UNL     1      19.293  52.680  48.428  1.00  0.00    -0.267 OA
HETATM   30  C   UNL     1      22.638  50.360  48.852  1.00  0.00     0.143 C 
BRANCH  27  31
HETATM   31  C   UNL     1      17.854  51.055  47.638  1.00  0.00     0.032 A 
HETATM   32  C   UNL     1      17.611  51.004  46.262  1.00  0.00     0.017 A 
HETATM   33  C   UNL     1      16.396  50.502  45.792  1.00  0.00     0.001 A 
HETATM   34  C   UNL     1      15.438  50.032  46.692  1.00  0.00     0.000 A 
HETATM   35  C   UNL     1      15.693  50.054  48.063  1.00  0.00     0.001 A 
HETATM   36  C   UNL     1      16.904  50.559  48.538  1.00  0.00     0.017 A 
ENDBRANCH  27  31
ENDBRANCH   4  23
TORSDOF 7
ENDMDL
MODEL 9
REMARK VINA RESULT:      -9.8      2.541      3.885
REMARK  7 active torsions:
REMARK  status: ('A' for Active; 'I' for Inactive)
REMARK    1  A    between atoms: O_2  and  C_3 
REMARK    2  A    between atoms: C_6  and  C_7 
REMARK       I    between atoms: C_7  and  N_8 
REMARK    3  A    between atoms: N_8  and  C_9 
REMARK    4  A    between atoms: C_9  and  N_10 
REMARK    5  A    between atoms: N_10  and  C_11 
REMARK    6  A    between atoms: C_14  and  N_15 
REMARK       I    between atoms: N_18  and  C_19 
REMARK    7  A    between atoms: C_19  and  C_20 
ROOT
HETATM    1  C   UNL     1      22.022  46.889  48.598  1.00  0.00     0.034 C 
HETATM    2  C   UNL     1      22.214  45.512  48.658  1.00  0.00     0.032 C 
HETATM    3  C   UNL     1      23.326  44.984  49.322  1.00  0.00     0.031 C 
HETATM    4  C   UNL     1      24.277  45.806  49.943  1.00  0.00     0.030 C 
HETATM    5  C   UNL     1      24.158  47.186  49.702  1.00  0.00     0.031 C 
HETATM    6  C   UNL     1      23.049  47.728  49.024  1.00  0.00     0.032 C 
ENDROOT
BRANCH   1   7
HETATM    7  N   UNL     1      20.760  47.441  48.229  1.00  0.00    -0.333 N 
HETATM    8  H   UNL     1      20.781  48.438  48.065  1.00  0.00     0.168 HD
BRANCH   7   9
HETATM    9  C   UNL     1      19.585  47.023  48.823  1.00  0.00     0.179 C 
HETATM   10  S   UNL     1      18.557  45.778  48.343  1.00  0.00    -0.040 SA
BRANCH   9  11
HETATM   11  N   UNL     1      19.198  47.630  50.009  1.00  0.00    -0.299 N 
HETATM   12  C   UNL     1      18.706  48.807  50.561  1.00  0.00     0.257 C 
HETATM   13  O   UNL     1      18.537  48.864  51.780  1.00  0.00    -0.267 OA
HETATM   14  H   UNL     1      19.250  46.947  50.759  1.00  0.00     0.171 HD
BRANCH  12  15
HETATM   15  C   UNL     1      18.288  49.963  49.766  1.00  0.00     0.032 A 
HETATM   16  C   UNL     1      19.185  51.040  49.702  1.00  0.00     0.020 A 
HETATM   17  C   UNL     1      19.035  52.020  48.721  1.00  0.00     0.038 A 
HETATM   18  C   UNL     1      18.001  51.909  47.792  1.00  0.00     0.068 A 
HETATM   19  C   UNL     1      17.071  50.868  47.893  1.00  0.00     0.038 A 
HETATM   20  C   UNL     1      17.229  49.872  48.863  1.00  0.00     0.020 A 
BRANCH  18  21
HETATM   21  O   UNL     1      17.838  52.778  46.748  1.00  0.00    -0.356 OA
HETATM   22  C   UNL     1      17.092  52.211  45.667  1.00  0.00     0.210 C 
ENDBRANCH  18  21
ENDBRANCH  12  15
ENDBRANCH   9  11
ENDBRANCH   7   9
ENDBRANCH   1   7
BRANCH   4  23
HETATM   23  N   UNL     1      25.197  45.313  50.860  1.00  0.00    -0.378 N 
HETATM   24  C   UNL     1      26.302  46.149  51.362  1.00  0.00     0.143 C 
HETATM   25  C   UNL     1      26.730  45.699  52.784  1.00  0.00     0.146 C 
HETATM   26  N   UNL     1      26.909  44.242  52.919  1.00  0.00    -0.345 N 
HETATM   27  C   UNL     1      27.761  43.597  53.813  1.00  0.00     0.253 C 
HETATM   28  C   UNL     1      25.857  43.427  52.307  1.00  0.00     0.146 C 
HETATM   29  O   UNL     1      27.876  42.373  53.860  1.00  0.00    -0.267 OA
HETATM   30  C   UNL     1      25.498  43.868  50.884  1.00  0.00     0.143 C 
BRANCH  27  31
HETATM   31  C   UNL     1      28.581  44.377  54.766  1.00  0.00     0.032 A 
HETATM   32  C   UNL     1      28.042  45.455  55.476  1.00  0.00     0.017 A 
HETATM   33  C   UNL     1      28.815  46.106  56.439  1.00  0.00     0.001 A 
HETATM   34  C   UNL     1      30.112  45.666  56.709  1.00  0.00     0.000 A 
HETATM   35  C   UNL     1      30.639  44.571  56.024  1.00  0.00     0.001 A 
HETATM   36  C   UNL     1      29.872  43.920  55.057  1.00  0.00     0.017 A 
ENDBRANCH  27  31
ENDBRANCH   4  23
TORSDOF 7
ENDMDL
MODEL 10
REMARK VINA RESULT:      -9.7      3.243      6.055
REMARK  7 active torsions:
REMARK  status: ('A' for Active; 'I' for Inactive)
REMARK    1  A    between atoms: O_2  and  C_3 
REMARK    2  A    between atoms: C_6  and  C_7 
REMARK       I    between atoms: C_7  and  N_8 
REMARK    3  A    between atoms: N_8  and  C_9 
REMARK    4  A    between atoms: C_9  and  N_10 
REMARK    5  A    between atoms: N_10  and  C_11 
REMARK    6  A    between atoms: C_14  and  N_15 
REMARK       I    between atoms: N_18  and  C_19 
REMARK    7  A    between atoms: C_19  and  C_20 
ROOT
HETATM    1  C   UNL     1      21.045  51.061  48.500  1.00  0.00     0.034 C 
HETATM    2  C   UNL     1      21.063  49.991  47.610  1.00  0.00     0.032 C 
HETATM    3  C   UNL     1      21.939  48.919  47.814  1.00  0.00     0.031 C 
HETATM    4  C   UNL     1      22.821  48.882  48.904  1.00  0.00     0.030 C 
HETATM    5  C   UNL     1      22.913  50.055  49.671  1.00  0.00     0.031 C 
HETATM    6  C   UNL     1      22.044  51.145  49.467  1.00  0.00     0.032 C 
ENDROOT
BRANCH   1   7
HETATM    7  N   UNL     1      19.963  51.988  48.514  1.00  0.00    -0.333 N 
HETATM    8  H   UNL     1      20.244  52.945  48.680  1.00  0.00     0.168 HD
BRANCH   7   9
HETATM    9  C   UNL     1      18.751  51.679  49.103  1.00  0.00     0.179 C 
HETATM   10  S   UNL     1      17.213  52.217  48.675  1.00  0.00    -0.040 SA
BRANCH   9  11
HETATM   11  N   UNL     1      18.743  50.757  50.139  1.00  0.00    -0.299 N 
HETATM   12  C   UNL     1      18.549  49.417  50.451  1.00  0.00     0.257 C 
HETATM   13  O   UNL     1      18.634  49.063  51.627  1.00  0.00    -0.267 OA
HETATM   14  H   UNL     1      19.028  51.224  50.995  1.00  0.00     0.171 HD
BRANCH  12  15
HETATM   15  C   UNL     1      18.336  48.374  49.446  1.00  0.00     0.032 A 
HETATM   16  C   UNL     1      19.353  47.418  49.306  1.00  0.00     0.020 A 
HETATM   17  C   UNL     1      19.104  46.221  48.637  1.00  0.00     0.038 A 
HETATM   18  C   UNL     1      17.830  45.971  48.128  1.00  0.00     0.068 A 
HETATM   19  C   UNL     1      16.833  46.949  48.214  1.00  0.00     0.038 A 
HETATM   20  C   UNL     1      17.072  48.144  48.901  1.00  0.00     0.020 A 
BRANCH  18  21
HETATM   21  O   UNL     1      17.480  44.788  47.537  1.00  0.00    -0.356 OA
HETATM   22  C   UNL     1      17.900  44.705  46.172  1.00  0.00     0.210 C 
ENDBRANCH  18  21
ENDBRANCH  12  15
ENDBRANCH   9  11
ENDBRANCH   7   9
ENDBRANCH   1   7
BRANCH   4  23
HETATM   23  N   UNL     1      23.461  47.713  49.298  1.00  0.00    -0.378 N 
HETATM   24  C   UNL     1      24.804  47.741  49.904  1.00  0.00     0.143 C 
HETATM   25  C   UNL     1      25.006  46.529  50.851  1.00  0.00     0.146 C 
HETATM   26  N   UNL     1      24.587  45.242  50.269  1.00  0.00    -0.345 N 
HETATM   27  C   UNL     1      25.104  43.988  50.587  1.00  0.00     0.253 C 
HETATM   28  C   UNL     1      23.302  45.265  49.567  1.00  0.00     0.146 C 
HETATM   29  O   UNL     1      24.720  42.951  50.047  1.00  0.00    -0.267 OA
HETATM   30  C   UNL     1      23.159  46.447  48.601  1.00  0.00     0.143 C 
BRANCH  27  31
HETATM   31  C   UNL     1      26.159  43.847  51.614  1.00  0.00     0.032 A 
HETATM   32  C   UNL     1      27.511  43.782  51.262  1.00  0.00     0.017 A 
HETATM   33  C   UNL     1      28.486  43.749  52.261  1.00  0.00     0.001 A 
HETATM   34  C   UNL     1      28.113  43.805  53.605  1.00  0.00     0.000 A 
HETATM   35  C   UNL     1      26.767  43.901  53.956  1.00  0.00     0.001 A 
HETATM   36  C   UNL     1      25.788  43.929  52.961  1.00  0.00     0.017 A 
ENDBRANCH  27  31
ENDBRANCH   4  23
TORSDOF 7
ENDMDL
