MODEL 1
REMARK VINA RESULT:      -8.9      0.000      0.000
REMARK  6 active torsions:
REMARK  status: ('A' for Active; 'I' for Inactive)
REMARK    1  A    between atoms: O_2  and  C_3 
REMARK    2  A    between atoms: C_6  and  C_7 
REMARK    3  A    between atoms: C_11  and  C_12 
REMARK       I    between atoms: C_12  and  N_13 
REMARK    4  A    between atoms: N_13  and  N_14 
REMARK       I    between atoms: N_14  and  C_15 
REMARK    5  A    between atoms: C_15  and  C_16 
REMARK    6  A    between atoms: C_17  and  C_18 
ROOT
HETATM    1  C   UNL     1      23.507  44.177  50.261  1.00  0.00     0.288 C 
HETATM    2  N   UNL     1      23.116  45.286  49.545  1.00  0.00    -0.262 N 
HETATM    3  O   UNL     1      22.740  43.244  50.493  1.00  0.00    -0.264 OA
HETATM    4  H   UNL     1      23.703  46.106  49.408  1.00  0.00     0.190 HD
ENDROOT
BRANCH   1   5
HETATM    5  C   UNL     1      24.871  44.190  50.716  1.00  0.00     0.121 A 
HETATM    6  N   UNL     1      25.889  44.654  49.934  1.00  0.00    -0.272 N 
HETATM    7  N   UNL     1      27.096  44.610  50.517  1.00  0.00    -0.174 NA
HETATM    8  H   UNL     1      25.814  45.023  48.989  1.00  0.00     0.189 HD
HETATM    9  C   UNL     1      26.871  44.070  51.725  1.00  0.00     0.089 A 
HETATM   10  C   UNL     1      25.483  43.798  51.890  1.00  0.00     0.071 A 
BRANCH   9  11
HETATM   11  C   UNL     1      27.954  43.842  52.686  1.00  0.00    -0.005 A 
HETATM   12  C   UNL     1      29.032  43.007  52.358  1.00  0.00     0.016 A 
HETATM   13  C   UNL     1      30.087  42.802  53.257  1.00  0.00     0.037 A 
HETATM   14  C   UNL     1      30.077  43.428  54.502  1.00  0.00     0.068 A 
HETATM   15  C   UNL     1      28.998  44.245  54.844  1.00  0.00     0.037 A 
HETATM   16  C   UNL     1      27.946  44.454  53.945  1.00  0.00     0.016 A 
BRANCH  14  17
HETATM   17  O   UNL     1      31.040  43.320  55.467  1.00  0.00    -0.356 OA
HETATM   18  C   UNL     1      30.986  44.260  56.533  1.00  0.00     0.210 C 
ENDBRANCH  14  17
ENDBRANCH   9  11
ENDBRANCH   1   5
BRANCH   2  19
HETATM   19  N   UNL     1      21.774  45.426  49.181  1.00  0.00    -0.267 N 
HETATM   20  C   UNL     1      21.483  46.088  48.009  1.00  0.00     0.240 C 
HETATM   21  O   UNL     1      22.357  46.540  47.275  1.00  0.00    -0.271 OA
HETATM   22  H   UNL     1      21.078  45.025  49.804  1.00  0.00     0.190 HD
BRANCH  20  23
HETATM   23  C   UNL     1      20.051  46.288  47.659  1.00  0.00     0.089 A 
HETATM   24  C   UNL     1      19.289  47.589  47.843  1.00  0.00     0.034 A 
HETATM   25  C   UNL     1      19.611  47.081  46.457  1.00  0.00     0.025 A 
BRANCH  24  26
HETATM   26  C   UNL     1      19.938  48.839  48.405  1.00  0.00    -0.031 A 
HETATM   27  C   UNL     1      19.730  49.272  49.732  1.00  0.00     0.040 A 
HETATM   28 CL   UNL     1      18.699  48.388  50.803  1.00  0.00    -0.084 Cl
HETATM   29  C   UNL     1      20.334  50.433  50.228  1.00  0.00     0.024 A 
HETATM   30  C   UNL     1      21.154  51.199  49.405  1.00  0.00     0.002 A 
HETATM   31  C   UNL     1      21.361  50.812  48.086  1.00  0.00     0.001 A 
HETATM   32  C   UNL     1      20.753  49.653  47.593  1.00  0.00     0.009 A 
ENDBRANCH  24  26
ENDBRANCH  20  23
ENDBRANCH   2  19
TORSDOF 6
ENDMDL
MODEL 2
REMARK VINA RESULT:      -8.7      3.307      4.825
REMARK  6 active torsions:
REMARK  status: ('A' for Active; 'I' for Inactive)
REMARK    1  A    between atoms: O_2  and  C_3 
REMARK    2  A    between atoms: C_6  and  C_7 
REMARK    3  A    between atoms: C_11  and  C_12 
REMARK       I    between atoms: C_12  and  N_13 
REMARK    4  A    between atoms: N_13  and  N_14 
REMARK       I    between atoms: N_14  and  C_15 
REMARK    5  A    between atoms: C_15  and  C_16 
REMARK    6  A    between atoms: C_17  and  C_18 
ROOT
HETATM    1  C   UNL     1      23.819  49.955  48.319  1.00  0.00     0.288 C 
HETATM    2  N   UNL     1      22.679  50.213  49.047  1.00  0.00    -0.262 N 
HETATM    3  O   UNL     1      24.038  50.492  47.234  1.00  0.00    -0.264 OA
HETATM    4  H   UNL     1      22.435  49.724  49.904  1.00  0.00     0.190 HD
ENDROOT
BRANCH   1   5
HETATM    5  C   UNL     1      24.730  49.017  48.915  1.00  0.00     0.121 A 
HETATM    6  N   UNL     1      26.083  49.188  48.859  1.00  0.00    -0.272 N 
HETATM    7  N   UNL     1      26.787  48.229  49.480  1.00  0.00    -0.174 NA
HETATM    8  H   UNL     1      26.584  49.951  48.412  1.00  0.00     0.189 HD
HETATM    9  C   UNL     1      25.861  47.374  49.944  1.00  0.00     0.089 A 
HETATM   10  C   UNL     1      24.556  47.838  49.614  1.00  0.00     0.071 A 
BRANCH   9  11
HETATM   11  C   UNL     1      26.227  46.166  50.688  1.00  0.00    -0.005 A 
HETATM   12  C   UNL     1      26.959  45.143  50.070  1.00  0.00     0.016 A 
HETATM   13  C   UNL     1      27.338  43.995  50.779  1.00  0.00     0.037 A 
HETATM   14  C   UNL     1      26.984  43.852  52.119  1.00  0.00     0.068 A 
HETATM   15  C   UNL     1      26.239  44.857  52.737  1.00  0.00     0.037 A 
HETATM   16  C   UNL     1      25.864  46.006  52.031  1.00  0.00     0.016 A 
BRANCH  14  17
HETATM   17  O   UNL     1      27.293  42.791  52.926  1.00  0.00    -0.356 OA
HETATM   18  C   UNL     1      27.367  43.051  54.323  1.00  0.00     0.210 C 
ENDBRANCH  14  17
ENDBRANCH   9  11
ENDBRANCH   1   5
BRANCH   2  19
HETATM   19  N   UNL     1      21.674  51.004  48.485  1.00  0.00    -0.267 N 
HETATM   20  C   UNL     1      20.614  51.374  49.283  1.00  0.00     0.240 C 
HETATM   21  O   UNL     1      20.535  51.046  50.464  1.00  0.00    -0.271 OA
HETATM   22  H   UNL     1      21.781  51.270  47.510  1.00  0.00     0.190 HD
BRANCH  20  23
HETATM   23  C   UNL     1      19.517  52.164  48.662  1.00  0.00     0.089 A 
HETATM   24  C   UNL     1      18.295  51.564  47.987  1.00  0.00     0.034 A 
HETATM   25  C   UNL     1      18.158  52.306  49.296  1.00  0.00     0.025 A 
BRANCH  24  26
HETATM   26  C   UNL     1      18.071  50.067  47.892  1.00  0.00    -0.031 A 
HETATM   27  C   UNL     1      18.225  49.351  46.686  1.00  0.00     0.040 A 
HETATM   28 CL   UNL     1      18.678  50.161  45.225  1.00  0.00    -0.084 Cl
HETATM   29  C   UNL     1      18.006  47.971  46.619  1.00  0.00     0.024 A 
HETATM   30  C   UNL     1      17.615  47.270  47.756  1.00  0.00     0.002 A 
HETATM   31  C   UNL     1      17.432  47.951  48.954  1.00  0.00     0.001 A 
HETATM   32  C   UNL     1      17.649  49.331  49.017  1.00  0.00     0.009 A 
ENDBRANCH  24  26
ENDBRANCH  20  23
ENDBRANCH   2  19
TORSDOF 6
ENDMDL
MODEL 3
REMARK VINA RESULT:      -8.7      2.232      3.382
REMARK  6 active torsions:
REMARK  status: ('A' for Active; 'I' for Inactive)
REMARK    1  A    between atoms: O_2  and  C_3 
REMARK    2  A    between atoms: C_6  and  C_7 
REMARK    3  A    between atoms: C_11  and  C_12 
REMARK       I    between atoms: C_12  and  N_13 
REMARK    4  A    between atoms: N_13  and  N_14 
REMARK       I    between atoms: N_14  and  C_15 
REMARK    5  A    between atoms: C_15  and  C_16 
REMARK    6  A    between atoms: C_17  and  C_18 
ROOT
HETATM    1  C   UNL     1      23.851  47.323  49.695  1.00  0.00     0.288 C 
HETATM    2  N   UNL     1      24.162  48.651  49.503  1.00  0.00    -0.262 N 
HETATM    3  O   UNL     1      23.002  46.746  49.016  1.00  0.00    -0.264 OA
HETATM    4  H   UNL     1      24.798  49.173  50.101  1.00  0.00     0.190 HD
ENDROOT
BRANCH   1   5
HETATM    5  C   UNL     1      24.584  46.665  50.741  1.00  0.00     0.121 A 
HETATM    6  N   UNL     1      24.294  45.390  51.135  1.00  0.00    -0.272 N 
HETATM    7  N   UNL     1      25.085  44.920  52.111  1.00  0.00    -0.174 NA
HETATM    8  H   UNL     1      23.565  44.787  50.762  1.00  0.00     0.189 HD
HETATM    9  C   UNL     1      25.916  45.936  52.393  1.00  0.00     0.089 A 
HETATM   10  C   UNL     1      25.637  47.048  51.548  1.00  0.00     0.071 A 
BRANCH   9  11
HETATM   11  C   UNL     1      26.949  45.827  53.428  1.00  0.00    -0.005 A 
HETATM   12  C   UNL     1      27.179  46.886  54.317  1.00  0.00     0.016 A 
HETATM   13  C   UNL     1      28.145  46.784  55.328  1.00  0.00     0.037 A 
HETATM   14  C   UNL     1      28.898  45.620  55.461  1.00  0.00     0.068 A 
HETATM   15  C   UNL     1      28.688  44.568  54.567  1.00  0.00     0.037 A 
HETATM   16  C   UNL     1      27.721  44.667  53.560  1.00  0.00     0.016 A 
BRANCH  14  17
HETATM   17  O   UNL     1      29.863  45.386  56.402  1.00  0.00    -0.356 OA
HETATM   18  C   UNL     1      30.846  44.409  56.080  1.00  0.00     0.210 C 
ENDBRANCH  14  17
ENDBRANCH   9  11
ENDBRANCH   1   5
BRANCH   2  19
HETATM   19  N   UNL     1      23.405  49.407  48.605  1.00  0.00    -0.267 N 
HETATM   20  C   UNL     1      22.548  50.356  49.115  1.00  0.00     0.240 C 
HETATM   21  O   UNL     1      22.441  50.566  50.320  1.00  0.00    -0.271 OA
HETATM   22  H   UNL     1      23.532  49.218  47.615  1.00  0.00     0.190 HD
BRANCH  20  23
HETATM   23  C   UNL     1      21.700  51.116  48.157  1.00  0.00     0.089 A 
HETATM   24  C   UNL     1      20.402  50.603  47.557  1.00  0.00     0.034 A 
HETATM   25  C   UNL     1      20.388  51.741  48.551  1.00  0.00     0.025 A 
BRANCH  24  26
HETATM   26  C   UNL     1      19.831  49.240  47.899  1.00  0.00    -0.031 A 
HETATM   27  C   UNL     1      18.898  49.046  48.939  1.00  0.00     0.040 A 
HETATM   28 CL   UNL     1      18.353  50.377  49.901  1.00  0.00    -0.084 Cl
HETATM   29  C   UNL     1      18.388  47.778  49.241  1.00  0.00     0.024 A 
HETATM   30  C   UNL     1      18.809  46.667  48.517  1.00  0.00     0.002 A 
HETATM   31  C   UNL     1      19.745  46.821  47.501  1.00  0.00     0.001 A 
HETATM   32  C   UNL     1      20.254  48.089  47.204  1.00  0.00     0.009 A 
ENDBRANCH  24  26
ENDBRANCH  20  23
ENDBRANCH   2  19
TORSDOF 6
ENDMDL
MODEL 4
REMARK VINA RESULT:      -8.4      1.711      2.201
REMARK  6 active torsions:
REMARK  status: ('A' for Active; 'I' for Inactive)
REMARK    1  A    between atoms: O_2  and  C_3 
REMARK    2  A    between atoms: C_6  and  C_7 
REMARK    3  A    between atoms: C_11  and  C_12 
REMARK       I    between atoms: C_12  and  N_13 
REMARK    4  A    between atoms: N_13  and  N_14 
REMARK       I    between atoms: N_14  and  C_15 
REMARK    5  A    between atoms: C_15  and  C_16 
REMARK    6  A    between atoms: C_17  and  C_18 
ROOT
HETATM    1  C   UNL     1      24.994  45.350  50.086  1.00  0.00     0.288 C 
HETATM    2  N   UNL     1      23.668  45.711  50.160  1.00  0.00    -0.262 N 
HETATM    3  O   UNL     1      25.594  45.278  49.015  1.00  0.00    -0.264 OA
HETATM    4  H   UNL     1      23.127  45.700  51.022  1.00  0.00     0.190 HD
ENDROOT
BRANCH   1   5
HETATM    5  C   UNL     1      25.624  45.063  51.346  1.00  0.00     0.121 A 
HETATM    6  N   UNL     1      24.916  44.610  52.421  1.00  0.00    -0.272 N 
HETATM    7  N   UNL     1      25.659  44.376  53.513  1.00  0.00    -0.174 NA
HETATM    8  H   UNL     1      23.915  44.434  52.463  1.00  0.00     0.189 HD
HETATM    9  C   UNL     1      26.908  44.713  53.153  1.00  0.00     0.089 A 
HETATM   10  C   UNL     1      26.927  45.144  51.796  1.00  0.00     0.071 A 
BRANCH   9  11
HETATM   11  C   UNL     1      28.037  44.607  54.082  1.00  0.00    -0.005 A 
HETATM   12  C   UNL     1      28.864  43.475  54.072  1.00  0.00     0.016 A 
HETATM   13  C   UNL     1      29.962  43.374  54.936  1.00  0.00     0.037 A 
HETATM   14  C   UNL     1      30.247  44.405  55.829  1.00  0.00     0.068 A 
HETATM   15  C   UNL     1      29.417  45.527  55.858  1.00  0.00     0.037 A 
HETATM   16  C   UNL     1      28.323  45.631  54.993  1.00  0.00     0.016 A 
BRANCH  14  17
HETATM   17  O   UNL     1      31.285  44.438  56.718  1.00  0.00    -0.356 OA
HETATM   18  C   UNL     1      31.803  43.184  57.145  1.00  0.00     0.210 C 
ENDBRANCH  14  17
ENDBRANCH   9  11
ENDBRANCH   1   5
BRANCH   2  19
HETATM   19  N   UNL     1      22.937  45.875  48.981  1.00  0.00    -0.267 N 
HETATM   20  C   UNL     1      21.892  45.012  48.739  1.00  0.00     0.240 C 
HETATM   21  O   UNL     1      21.575  44.125  49.526  1.00  0.00    -0.271 OA
HETATM   22  H   UNL     1      23.216  46.630  48.361  1.00  0.00     0.190 HD
BRANCH  20  23
HETATM   23  C   UNL     1      21.157  45.151  47.452  1.00  0.00     0.089 A 
HETATM   24  C   UNL     1      20.113  46.217  47.164  1.00  0.00     0.034 A 
HETATM   25  C   UNL     1      21.451  46.248  46.462  1.00  0.00     0.025 A 
BRANCH  24  26
HETATM   26  C   UNL     1      19.723  47.270  48.183  1.00  0.00    -0.031 A 
HETATM   27  C   UNL     1      18.456  47.295  48.803  1.00  0.00     0.040 A 
HETATM   28 CL   UNL     1      17.258  46.108  48.420  1.00  0.00    -0.084 Cl
HETATM   29  C   UNL     1      18.115  48.280  49.736  1.00  0.00     0.024 A 
HETATM   30  C   UNL     1      19.029  49.276  50.065  1.00  0.00     0.002 A 
HETATM   31  C   UNL     1      20.278  49.293  49.454  1.00  0.00     0.001 A 
HETATM   32  C   UNL     1      20.614  48.308  48.521  1.00  0.00     0.009 A 
ENDBRANCH  24  26
ENDBRANCH  20  23
ENDBRANCH   2  19
TORSDOF 6
ENDMDL
MODEL 5
REMARK VINA RESULT:      -8.3      3.027      3.934
REMARK  6 active torsions:
REMARK  status: ('A' for Active; 'I' for Inactive)
REMARK    1  A    between atoms: O_2  and  C_3 
REMARK    2  A    between atoms: C_6  and  C_7 
REMARK    3  A    between atoms: C_11  and  C_12 
REMARK       I    between atoms: C_12  and  N_13 
REMARK    4  A    between atoms: N_13  and  N_14 
REMARK       I    between atoms: N_14  and  C_15 
REMARK    5  A    between atoms: C_15  and  C_16 
REMARK    6  A    between atoms: C_17  and  C_18 
ROOT
HETATM    1  C   UNL     1      23.186  49.059  48.099  1.00  0.00     0.288 C 
HETATM    2  N   UNL     1      21.965  48.426  48.172  1.00  0.00    -0.262 N 
HETATM    3  O   UNL     1      23.394  49.993  47.326  1.00  0.00    -0.264 OA
HETATM    4  H   UNL     1      21.790  47.602  48.741  1.00  0.00     0.190 HD
ENDROOT
BRANCH   1   5
HETATM    5  C   UNL     1      24.196  48.549  48.985  1.00  0.00     0.121 A 
HETATM    6  N   UNL     1      25.464  49.055  49.003  1.00  0.00    -0.272 N 
HETATM    7  N   UNL     1      26.276  48.477  49.900  1.00  0.00    -0.174 NA
HETATM    8  H   UNL     1      25.830  49.806  48.424  1.00  0.00     0.189 HD
HETATM    9  C   UNL     1      25.521  47.532  50.483  1.00  0.00     0.089 A 
HETATM   10  C   UNL     1      24.206  47.551  49.939  1.00  0.00     0.071 A 
BRANCH   9  11
HETATM   11  C   UNL     1      26.050  46.658  51.534  1.00  0.00    -0.005 A 
HETATM   12  C   UNL     1      26.141  47.111  52.858  1.00  0.00     0.016 A 
HETATM   13  C   UNL     1      26.620  46.276  53.877  1.00  0.00     0.037 A 
HETATM   14  C   UNL     1      27.019  44.973  53.584  1.00  0.00     0.068 A 
HETATM   15  C   UNL     1      26.949  44.521  52.265  1.00  0.00     0.037 A 
HETATM   16  C   UNL     1      26.468  45.353  51.248  1.00  0.00     0.016 A 
BRANCH  14  17
HETATM   17  O   UNL     1      27.497  44.056  54.478  1.00  0.00    -0.356 OA
HETATM   18  C   UNL     1      28.896  44.080  54.734  1.00  0.00     0.210 C 
ENDBRANCH  14  17
ENDBRANCH   9  11
ENDBRANCH   1   5
BRANCH   2  19
HETATM   19  N   UNL     1      20.966  48.761  47.253  1.00  0.00    -0.267 N 
HETATM   20  C   UNL     1      19.749  48.127  47.357  1.00  0.00     0.240 C 
HETATM   21  O   UNL     1      19.511  47.298  48.232  1.00  0.00    -0.271 OA
HETATM   22  H   UNL     1      21.193  49.462  46.555  1.00  0.00     0.190 HD
BRANCH  20  23
HETATM   23  C   UNL     1      18.710  48.441  46.339  1.00  0.00     0.089 A 
HETATM   24  C   UNL     1      17.754  49.619  46.416  1.00  0.00     0.034 A 
HETATM   25  C   UNL     1      18.843  49.585  45.369  1.00  0.00     0.025 A 
BRANCH  24  26
HETATM   26  C   UNL     1      17.779  50.614  47.560  1.00  0.00    -0.031 A 
HETATM   27  C   UNL     1      16.779  50.653  48.554  1.00  0.00     0.040 A 
HETATM   28 CL   UNL     1      15.445  49.552  48.515  1.00  0.00    -0.084 Cl
HETATM   29  C   UNL     1      16.817  51.584  49.598  1.00  0.00     0.024 A 
HETATM   30  C   UNL     1      17.853  52.511  49.668  1.00  0.00     0.002 A 
HETATM   31  C   UNL     1      18.841  52.514  48.690  1.00  0.00     0.001 A 
HETATM   32  C   UNL     1      18.798  51.584  47.647  1.00  0.00     0.009 A 
ENDBRANCH  24  26
ENDBRANCH  20  23
ENDBRANCH   2  19
TORSDOF 6
ENDMDL
MODEL 6
REMARK VINA RESULT:      -8.1      3.623     10.319
REMARK  6 active torsions:
REMARK  status: ('A' for Active; 'I' for Inactive)
REMARK    1  A    between atoms: O_2  and  C_3 
REMARK    2  A    between atoms: C_6  and  C_7 
REMARK    3  A    between atoms: C_11  and  C_12 
REMARK       I    between atoms: C_12  and  N_13 
REMARK    4  A    between atoms: N_13  and  N_14 
REMARK       I    between atoms: N_14  and  C_15 
REMARK    5  A    between atoms: C_15  and  C_16 
REMARK    6  A    between atoms: C_17  and  C_18 
ROOT
HETATM    1  C   UNL     1      22.959  46.220  48.619  1.00  0.00     0.288 C 
HETATM    2  N   UNL     1      23.725  45.930  49.725  1.00  0.00    -0.262 N 
HETATM    3  O   UNL     1      22.808  45.417  47.699  1.00  0.00    -0.264 OA
HETATM    4  H   UNL     1      23.933  46.602  50.460  1.00  0.00     0.190 HD
ENDROOT
BRANCH   1   5
HETATM    5  C   UNL     1      22.352  47.523  48.616  1.00  0.00     0.121 A 
HETATM    6  N   UNL     1      23.029  48.634  48.202  1.00  0.00    -0.272 N 
HETATM    7  N   UNL     1      22.311  49.766  48.247  1.00  0.00    -0.174 NA
HETATM    8  H   UNL     1      23.988  48.675  47.868  1.00  0.00     0.189 HD
HETATM    9  C   UNL     1      21.117  49.392  48.736  1.00  0.00     0.089 A 
HETATM   10  C   UNL     1      21.102  47.989  48.974  1.00  0.00     0.071 A 
BRANCH   9  11
HETATM   11  C   UNL     1      20.032  50.355  48.949  1.00  0.00    -0.005 A 
HETATM   12  C   UNL     1      18.953  50.038  49.786  1.00  0.00     0.016 A 
HETATM   13  C   UNL     1      17.923  50.959  50.019  1.00  0.00     0.037 A 
HETATM   14  C   UNL     1      17.956  52.213  49.412  1.00  0.00     0.068 A 
HETATM   15  C   UNL     1      19.017  52.529  48.562  1.00  0.00     0.037 A 
HETATM   16  C   UNL     1      20.048  51.611  48.332  1.00  0.00     0.016 A 
BRANCH  14  17
HETATM   17  O   UNL     1      17.024  53.204  49.556  1.00  0.00    -0.356 OA
HETATM   18  C   UNL     1      15.659  52.807  49.527  1.00  0.00     0.210 C 
ENDBRANCH  14  17
ENDBRANCH   9  11
ENDBRANCH   1   5
BRANCH   2  19
HETATM   19  N   UNL     1      24.464  44.744  49.753  1.00  0.00    -0.267 N 
HETATM   20  C   UNL     1      25.837  44.833  49.711  1.00  0.00     0.240 C 
HETATM   21  O   UNL     1      26.426  45.910  49.666  1.00  0.00    -0.271 OA
HETATM   22  H   UNL     1      23.945  43.873  49.807  1.00  0.00     0.190 HD
BRANCH  20  23
HETATM   23  C   UNL     1      26.617  43.566  49.678  1.00  0.00     0.089 A 
HETATM   24  C   UNL     1      27.270  42.921  50.889  1.00  0.00     0.034 A 
HETATM   25  C   UNL     1      26.081  42.267  50.222  1.00  0.00     0.025 A 
BRANCH  24  26
HETATM   26  C   UNL     1      27.175  43.519  52.279  1.00  0.00    -0.031 A 
HETATM   27  C   UNL     1      28.302  43.696  53.108  1.00  0.00     0.040 A 
HETATM   28 CL   UNL     1      29.879  43.225  52.574  1.00  0.00    -0.084 Cl
HETATM   29  C   UNL     1      28.191  44.244  54.391  1.00  0.00     0.024 A 
HETATM   30  C   UNL     1      26.945  44.619  54.884  1.00  0.00     0.002 A 
HETATM   31  C   UNL     1      25.811  44.435  54.101  1.00  0.00     0.001 A 
HETATM   32  C   UNL     1      25.926  43.885  52.820  1.00  0.00     0.009 A 
ENDBRANCH  24  26
ENDBRANCH  20  23
ENDBRANCH   2  19
TORSDOF 6
ENDMDL
MODEL 7
REMARK VINA RESULT:      -8.1      2.034      2.852
REMARK  6 active torsions:
REMARK  status: ('A' for Active; 'I' for Inactive)
REMARK    1  A    between atoms: O_2  and  C_3 
REMARK    2  A    between atoms: C_6  and  C_7 
REMARK    3  A    between atoms: C_11  and  C_12 
REMARK       I    between atoms: C_12  and  N_13 
REMARK    4  A    between atoms: N_13  and  N_14 
REMARK       I    between atoms: N_14  and  C_15 
REMARK    5  A    between atoms: C_15  and  C_16 
REMARK    6  A    between atoms: C_17  and  C_18 
ROOT
HETATM    1  C   UNL     1      25.491  44.477  49.484  1.00  0.00     0.288 C 
HETATM    2  N   UNL     1      24.906  43.455  48.769  1.00  0.00    -0.262 N 
HETATM    3  O   UNL     1      25.306  45.660  49.204  1.00  0.00    -0.264 OA
HETATM    4  H   UNL     1      25.105  42.470  48.926  1.00  0.00     0.190 HD
ENDROOT
BRANCH   1   5
HETATM    5  C   UNL     1      26.331  44.061  50.573  1.00  0.00     0.121 A 
HETATM    6  N   UNL     1      26.557  42.743  50.850  1.00  0.00    -0.272 N 
HETATM    7  N   UNL     1      27.378  42.530  51.889  1.00  0.00    -0.174 NA
HETATM    8  H   UNL     1      26.178  41.942  50.352  1.00  0.00     0.189 HD
HETATM    9  C   UNL     1      27.688  43.758  52.335  1.00  0.00     0.089 A 
HETATM   10  C   UNL     1      27.054  44.747  51.529  1.00  0.00     0.071 A 
BRANCH   9  11
HETATM   11  C   UNL     1      28.574  43.964  53.484  1.00  0.00    -0.005 A 
HETATM   12  C   UNL     1      28.332  45.004  54.392  1.00  0.00     0.016 A 
HETATM   13  C   UNL     1      29.156  45.195  55.510  1.00  0.00     0.037 A 
HETATM   14  C   UNL     1      30.239  44.348  55.733  1.00  0.00     0.068 A 
HETATM   15  C   UNL     1      30.498  43.321  54.823  1.00  0.00     0.037 A 
HETATM   16  C   UNL     1      29.674  43.127  53.709  1.00  0.00     0.016 A 
BRANCH  14  17
HETATM   17  O   UNL     1      31.115  44.417  56.781  1.00  0.00    -0.356 OA
HETATM   18  C   UNL     1      31.802  43.218  57.121  1.00  0.00     0.210 C 
ENDBRANCH  14  17
ENDBRANCH   9  11
ENDBRANCH   1   5
BRANCH   2  19
HETATM   19  N   UNL     1      24.185  43.757  47.611  1.00  0.00    -0.267 N 
HETATM   20  C   UNL     1      22.830  43.512  47.605  1.00  0.00     0.240 C 
HETATM   21  O   UNL     1      22.240  43.057  48.581  1.00  0.00    -0.271 OA
HETATM   22  H   UNL     1      24.703  44.149  46.829  1.00  0.00     0.190 HD
BRANCH  20  23
HETATM   23  C   UNL     1      22.079  43.778  46.348  1.00  0.00     0.089 A 
HETATM   24  C   UNL     1      21.207  44.998  46.105  1.00  0.00     0.034 A 
HETATM   25  C   UNL     1      22.506  44.824  45.352  1.00  0.00     0.025 A 
BRANCH  24  26
HETATM   26  C   UNL     1      21.026  46.090  47.141  1.00  0.00    -0.031 A 
HETATM   27  C   UNL     1      19.847  46.227  47.903  1.00  0.00     0.040 A 
HETATM   28 CL   UNL     1      18.518  45.140  47.684  1.00  0.00    -0.084 Cl
HETATM   29  C   UNL     1      19.699  47.246  48.850  1.00  0.00     0.024 A 
HETATM   30  C   UNL     1      20.724  48.164  49.053  1.00  0.00     0.002 A 
HETATM   31  C   UNL     1      21.890  48.071  48.301  1.00  0.00     0.001 A 
HETATM   32  C   UNL     1      22.033  47.053  47.354  1.00  0.00     0.009 A 
ENDBRANCH  24  26
ENDBRANCH  20  23
ENDBRANCH   2  19
TORSDOF 6
ENDMDL
MODEL 8
REMARK VINA RESULT:      -8.0      7.225      8.761
REMARK  6 active torsions:
REMARK  status: ('A' for Active; 'I' for Inactive)
REMARK    1  A    between atoms: O_2  and  C_3 
REMARK    2  A    between atoms: C_6  and  C_7 
REMARK    3  A    between atoms: C_11  and  C_12 
REMARK       I    between atoms: C_12  and  N_13 
REMARK    4  A    between atoms: N_13  and  N_14 
REMARK       I    between atoms: N_14  and  C_15 
REMARK    5  A    between atoms: C_15  and  C_16 
REMARK    6  A    between atoms: C_17  and  C_18 
ROOT
HETATM    1  C   UNL     1      27.061  40.879  50.038  1.00  0.00     0.288 C 
HETATM    2  N   UNL     1      27.189  41.788  49.012  1.00  0.00    -0.262 N 
HETATM    3  O   UNL     1      26.616  39.747  49.858  1.00  0.00    -0.264 OA
HETATM    4  H   UNL     1      27.477  42.754  49.146  1.00  0.00     0.190 HD
ENDROOT
BRANCH   1   5
HETATM    5  C   UNL     1      27.483  41.348  51.330  1.00  0.00     0.121 A 
HETATM    6  N   UNL     1      27.302  40.607  52.462  1.00  0.00    -0.272 N 
HETATM    7  N   UNL     1      27.767  41.184  53.580  1.00  0.00    -0.174 NA
HETATM    8  H   UNL     1      26.870  39.689  52.528  1.00  0.00     0.189 HD
HETATM    9  C   UNL     1      28.252  42.369  53.174  1.00  0.00     0.089 A 
HETATM   10  C   UNL     1      28.097  42.505  51.765  1.00  0.00     0.071 A 
BRANCH   9  11
HETATM   11  C   UNL     1      28.855  43.321  54.112  1.00  0.00    -0.005 A 
HETATM   12  C   UNL     1      28.158  44.473  54.503  1.00  0.00     0.016 A 
HETATM   13  C   UNL     1      28.712  45.377  55.419  1.00  0.00     0.037 A 
HETATM   14  C   UNL     1      29.977  45.143  55.955  1.00  0.00     0.068 A 
HETATM   15  C   UNL     1      30.685  44.008  55.556  1.00  0.00     0.037 A 
HETATM   16  C   UNL     1      30.131  43.103  54.645  1.00  0.00     0.016 A 
BRANCH  14  17
HETATM   17  O   UNL     1      30.629  45.936  56.858  1.00  0.00    -0.356 OA
HETATM   18  C   UNL     1      30.094  45.981  58.175  1.00  0.00     0.210 C 
ENDBRANCH  14  17
ENDBRANCH   9  11
ENDBRANCH   1   5
BRANCH   2  19
HETATM   19  N   UNL     1      26.678  41.470  47.751  1.00  0.00    -0.267 N 
HETATM   20  C   UNL     1      27.569  41.179  46.742  1.00  0.00     0.240 C 
HETATM   21  O   UNL     1      28.784  41.175  46.920  1.00  0.00    -0.271 OA
HETATM   22  H   UNL     1      25.668  41.466  47.645  1.00  0.00     0.190 HD
BRANCH  20  23
HETATM   23  C   UNL     1      27.022  40.902  45.387  1.00  0.00     0.089 A 
HETATM   24  C   UNL     1      26.569  39.536  44.900  1.00  0.00     0.034 A 
HETATM   25  C   UNL     1      25.560  40.636  45.139  1.00  0.00     0.025 A 
BRANCH  24  26
HETATM   26  C   UNL     1      26.624  38.301  45.778  1.00  0.00    -0.031 A 
HETATM   27  C   UNL     1      27.710  37.401  45.756  1.00  0.00     0.040 A 
HETATM   28 CL   UNL     1      29.057  37.663  44.703  1.00  0.00    -0.084 Cl
HETATM   29  C   UNL     1      27.737  36.263  46.570  1.00  0.00     0.024 A 
HETATM   30  C   UNL     1      26.670  35.988  47.420  1.00  0.00     0.002 A 
HETATM   31  C   UNL     1      25.574  36.842  47.447  1.00  0.00     0.001 A 
HETATM   32  C   UNL     1      25.549  37.977  46.631  1.00  0.00     0.009 A 
ENDBRANCH  24  26
ENDBRANCH  20  23
ENDBRANCH   2  19
TORSDOF 6
ENDMDL
MODEL 9
REMARK VINA RESULT:      -7.9      1.708      2.291
REMARK  6 active torsions:
REMARK  status: ('A' for Active; 'I' for Inactive)
REMARK    1  A    between atoms: O_2  and  C_3 
REMARK    2  A    between atoms: C_6  and  C_7 
REMARK    3  A    between atoms: C_11  and  C_12 
REMARK       I    between atoms: C_12  and  N_13 
REMARK    4  A    between atoms: N_13  and  N_14 
REMARK       I    between atoms: N_14  and  C_15 
REMARK    5  A    between atoms: C_15  and  C_16 
REMARK    6  A    between atoms: C_17  and  C_18 
ROOT
HETATM    1  C   UNL     1      21.983  44.439  48.978  1.00  0.00     0.288 C 
HETATM    2  N   UNL     1      21.358  45.646  49.200  1.00  0.00    -0.262 N 
HETATM    3  O   UNL     1      21.647  43.687  48.064  1.00  0.00    -0.264 OA
HETATM    4  H   UNL     1      21.561  46.248  49.995  1.00  0.00     0.190 HD
ENDROOT
BRANCH   1   5
HETATM    5  C   UNL     1      23.049  44.122  49.888  1.00  0.00     0.121 A 
HETATM    6  N   UNL     1      23.344  42.835  50.235  1.00  0.00    -0.272 N 
HETATM    7  N   UNL     1      24.378  42.715  51.081  1.00  0.00    -0.174 NA
HETATM    8  H   UNL     1      22.873  41.993  49.915  1.00  0.00     0.189 HD
HETATM    9  C   UNL     1      24.767  43.977  51.324  1.00  0.00     0.089 A 
HETATM   10  C   UNL     1      23.959  44.890  50.588  1.00  0.00     0.071 A 
BRANCH   9  11
HETATM   11  C   UNL     1      25.884  44.283  52.222  1.00  0.00    -0.005 A 
HETATM   12  C   UNL     1      25.797  45.349  53.129  1.00  0.00     0.016 A 
HETATM   13  C   UNL     1      26.848  45.636  54.011  1.00  0.00     0.037 A 
HETATM   14  C   UNL     1      28.006  44.861  53.995  1.00  0.00     0.068 A 
HETATM   15  C   UNL     1      28.108  43.809  53.082  1.00  0.00     0.037 A 
HETATM   16  C   UNL     1      27.058  43.520  52.204  1.00  0.00     0.016 A 
BRANCH  14  17
HETATM   17  O   UNL     1      29.098  45.026  54.801  1.00  0.00    -0.356 OA
HETATM   18  C   UNL     1      28.957  45.926  55.893  1.00  0.00     0.210 C 
ENDBRANCH  14  17
ENDBRANCH   9  11
ENDBRANCH   1   5
BRANCH   2  19
HETATM   19  N   UNL     1      20.224  45.976  48.454  1.00  0.00    -0.267 N 
HETATM   20  C   UNL     1      20.351  46.918  47.458  1.00  0.00     0.240 C 
HETATM   21  O   UNL     1      21.422  47.459  47.198  1.00  0.00    -0.271 OA
HETATM   22  H   UNL     1      19.359  45.497  48.686  1.00  0.00     0.190 HD
BRANCH  20  23
HETATM   23  C   UNL     1      19.127  47.310  46.709  1.00  0.00     0.089 A 
HETATM   24  C   UNL     1      18.357  48.602  46.927  1.00  0.00     0.034 A 
HETATM   25  C   UNL     1      19.130  48.379  45.648  1.00  0.00     0.025 A 
BRANCH  24  26
HETATM   26  C   UNL     1      18.784  49.642  47.945  1.00  0.00    -0.031 A 
HETATM   27  C   UNL     1      18.580  49.476  49.331  1.00  0.00     0.040 A 
HETATM   28 CL   UNL     1      17.812  48.054  49.951  1.00  0.00    -0.084 Cl
HETATM   29  C   UNL     1      18.976  50.451  50.253  1.00  0.00     0.024 A 
HETATM   30  C   UNL     1      19.576  51.626  49.811  1.00  0.00     0.002 A 
HETATM   31  C   UNL     1      19.769  51.830  48.450  1.00  0.00     0.001 A 
HETATM   32  C   UNL     1      19.370  50.854  47.531  1.00  0.00     0.009 A 
ENDBRANCH  24  26
ENDBRANCH  20  23
ENDBRANCH   2  19
TORSDOF 6
ENDMDL
MODEL 10
REMARK VINA RESULT:      -7.9      6.153      7.962
REMARK  6 active torsions:
REMARK  status: ('A' for Active; 'I' for Inactive)
REMARK    1  A    between atoms: O_2  and  C_3 
REMARK    2  A    between atoms: C_6  and  C_7 
REMARK    3  A    between atoms: C_11  and  C_12 
REMARK       I    between atoms: C_12  and  N_13 
REMARK    4  A    between atoms: N_13  and  N_14 
REMARK       I    between atoms: N_14  and  C_15 
REMARK    5  A    between atoms: C_15  and  C_16 
REMARK    6  A    between atoms: C_17  and  C_18 
ROOT
HETATM    1  C   UNL     1      27.103  42.137  49.916  1.00  0.00     0.288 C 
HETATM    2  N   UNL     1      26.213  42.739  49.054  1.00  0.00    -0.262 N 
HETATM    3  O   UNL     1      27.739  41.132  49.603  1.00  0.00    -0.264 OA
HETATM    4  H   UNL     1      25.615  43.519  49.315  1.00  0.00     0.190 HD
ENDROOT
BRANCH   1   5
HETATM    5  C   UNL     1      27.231  42.764  51.203  1.00  0.00     0.121 A 
HETATM    6  N   UNL     1      26.145  43.044  51.982  1.00  0.00    -0.272 N 
HETATM    7  N   UNL     1      26.442  43.614  53.159  1.00  0.00    -0.174 NA
HETATM    8  H   UNL     1      25.171  42.859  51.759  1.00  0.00     0.189 HD
HETATM    9  C   UNL     1      27.779  43.740  53.148  1.00  0.00     0.089 A 
HETATM   10  C   UNL     1      28.312  43.211  51.938  1.00  0.00     0.071 A 
BRANCH   9  11
HETATM   11  C   UNL     1      28.511  44.334  54.270  1.00  0.00    -0.005 A 
HETATM   12  C   UNL     1      28.014  45.473  54.921  1.00  0.00     0.016 A 
HETATM   13  C   UNL     1      28.690  46.034  56.012  1.00  0.00     0.037 A 
HETATM   14  C   UNL     1      29.878  45.466  56.467  1.00  0.00     0.068 A 
HETATM   15  C   UNL     1      30.389  44.344  55.812  1.00  0.00     0.037 A 
HETATM   16  C   UNL     1      29.713  43.780  54.725  1.00  0.00     0.016 A 
BRANCH  14  17
HETATM   17  O   UNL     1      30.632  45.907  57.519  1.00  0.00    -0.356 OA
HETATM   18  C   UNL     1      31.213  44.911  58.352  1.00  0.00     0.210 C 
ENDBRANCH  14  17
ENDBRANCH   9  11
ENDBRANCH   1   5
BRANCH   2  19
HETATM   19  N   UNL     1      25.920  42.122  47.835  1.00  0.00    -0.267 N 
HETATM   20  C   UNL     1      24.749  41.405  47.734  1.00  0.00     0.240 C 
HETATM   21  O   UNL     1      23.957  41.305  48.667  1.00  0.00    -0.271 OA
HETATM   22  H   UNL     1      26.589  42.241  47.081  1.00  0.00     0.190 HD
BRANCH  20  23
HETATM   23  C   UNL     1      24.472  40.700  46.453  1.00  0.00     0.089 A 
HETATM   24  C   UNL     1      25.196  39.451  45.980  1.00  0.00     0.034 A 
HETATM   25  C   UNL     1      23.743  39.383  46.391  1.00  0.00     0.025 A 
BRANCH  24  26
HETATM   26  C   UNL     1      26.288  38.785  46.796  1.00  0.00    -0.031 A 
HETATM   27  C   UNL     1      27.644  39.161  46.700  1.00  0.00     0.040 A 
HETATM   28 CL   UNL     1      28.142  40.420  45.622  1.00  0.00    -0.084 Cl
HETATM   29  C   UNL     1      28.636  38.529  47.458  1.00  0.00     0.024 A 
HETATM   30  C   UNL     1      28.299  37.493  48.324  1.00  0.00     0.002 A 
HETATM   31  C   UNL     1      26.974  37.083  48.423  1.00  0.00     0.001 A 
HETATM   32  C   UNL     1      25.986  37.716  47.662  1.00  0.00     0.009 A 
ENDBRANCH  24  26
ENDBRANCH  20  23
ENDBRANCH   2  19
TORSDOF 6
ENDMDL
