MODEL 1
REMARK VINA RESULT:      -9.7      0.000      0.000
REMARK  5 active torsions:
REMARK  status: ('A' for Active; 'I' for Inactive)
REMARK    1  A    between atoms: O_2  and  C_3 
REMARK    2  A    between atoms: C_6  and  N_7 
REMARK       I    between atoms: N_7  and  C_8 
REMARK    3  A    between atoms: C_8  and  C_9 
REMARK    4  A    between atoms: C_9  and  N_10 
REMARK    5  A    between atoms: N_10  and  C_11 
ROOT
HETATM    1  C   UNL     1      26.509  45.517  53.443  1.00  0.00     0.195 C 
ENDROOT
BRANCH   1   2
HETATM    2  C   UNL     1      26.014  46.750  52.676  1.00  0.00     0.235 C 
HETATM    3  N   UNL     1      26.179  46.644  51.305  1.00  0.00    -0.326 N 
HETATM    4  H   UNL     1      26.661  45.802  50.997  1.00  0.00     0.169 HD
HETATM    5  O   UNL     1      25.548  47.713  53.283  1.00  0.00    -0.272 OA
BRANCH   3   6
HETATM    6  C   UNL     1      25.772  47.563  50.317  1.00  0.00     0.034 A 
HETATM    7  C   UNL     1      26.647  48.422  49.649  1.00  0.00     0.032 A 
HETATM    8  C   UNL     1      26.178  49.321  48.681  1.00  0.00     0.039 A 
HETATM    9  C   UNL     1      24.822  49.372  48.370  1.00  0.00     0.068 A 
HETATM   10  C   UNL     1      23.941  48.521  49.040  1.00  0.00     0.039 A 
HETATM   11  C   UNL     1      24.411  47.620  50.005  1.00  0.00     0.032 A 
BRANCH   9  12
HETATM   12  O   UNL     1      24.239  50.199  47.449  1.00  0.00    -0.356 OA
HETATM   13  C   UNL     1      22.856  50.481  47.629  1.00  0.00     0.210 C 
ENDBRANCH   9  12
ENDBRANCH   3   6
ENDBRANCH   1   2
BRANCH   1  14
HETATM   14  N   UNL     1      27.402  45.893  54.575  1.00  0.00    -0.283 NA
HETATM   15  H   UNL     1      27.749  46.842  54.424  1.00  0.00     0.128 HD
BRANCH  14  16
HETATM   16  C   UNL     1      28.543  45.022  54.595  1.00  0.00     0.019 A 
HETATM   17  C   UNL     1      29.430  44.946  55.707  1.00  0.00    -0.005 A 
HETATM   18  C   UNL     1      30.426  43.936  55.718  1.00  0.00    -0.024 A 
HETATM   19  C   UNL     1      29.386  45.831  56.808  1.00  0.00     0.014 A 
HETATM   20  C   UNL     1      31.284  43.806  56.822  1.00  0.00     0.012 A 
HETATM   21  C   UNL     1      30.552  43.064  54.626  1.00  0.00     0.012 A 
HETATM   22  C   UNL     1      31.191  44.672  57.910  1.00  0.00     0.001 A 
HETATM   23  C   UNL     1      30.249  45.693  57.898  1.00  0.00     0.001 A 
HETATM   24  C   UNL     1      29.709  43.175  53.524  1.00  0.00     0.003 A 
HETATM   25  C   UNL     1      28.709  44.141  53.511  1.00  0.00     0.024 A 
ENDBRANCH  14  16
ENDBRANCH   1  14
TORSDOF 5
ENDMDL
MODEL 2
REMARK VINA RESULT:      -8.8      1.605      2.559
REMARK  5 active torsions:
REMARK  status: ('A' for Active; 'I' for Inactive)
REMARK    1  A    between atoms: O_2  and  C_3 
REMARK    2  A    between atoms: C_6  and  N_7 
REMARK       I    between atoms: N_7  and  C_8 
REMARK    3  A    between atoms: C_8  and  C_9 
REMARK    4  A    between atoms: C_9  and  N_10 
REMARK    5  A    between atoms: N_10  and  C_11 
ROOT
HETATM    1  C   UNL     1      27.421  44.518  51.305  1.00  0.00     0.195 C 
ENDROOT
BRANCH   1   2
HETATM    2  C   UNL     1      26.635  45.342  50.276  1.00  0.00     0.235 C 
HETATM    3  N   UNL     1      26.652  46.702  50.537  1.00  0.00    -0.326 N 
HETATM    4  H   UNL     1      27.121  46.965  51.401  1.00  0.00     0.169 HD
HETATM    5  O   UNL     1      26.053  44.783  49.349  1.00  0.00    -0.272 OA
BRANCH   3   6
HETATM    6  C   UNL     1      26.090  47.733  49.758  1.00  0.00     0.034 A 
HETATM    7  C   UNL     1      26.844  48.696  49.083  1.00  0.00     0.032 A 
HETATM    8  C   UNL     1      26.223  49.701  48.330  1.00  0.00     0.039 A 
HETATM    9  C   UNL     1      24.834  49.758  48.244  1.00  0.00     0.068 A 
HETATM   10  C   UNL     1      24.075  48.803  48.922  1.00  0.00     0.039 A 
HETATM   11  C   UNL     1      24.697  47.795  49.672  1.00  0.00     0.032 A 
BRANCH   9  12
HETATM   12  O   UNL     1      24.109  50.683  47.544  1.00  0.00    -0.356 OA
HETATM   13  C   UNL     1      22.694  50.616  47.675  1.00  0.00     0.210 C 
ENDBRANCH   9  12
ENDBRANCH   3   6
ENDBRANCH   1   2
BRANCH   1  14
HETATM   14  N   UNL     1      26.627  44.275  52.541  1.00  0.00    -0.283 NA
HETATM   15  H   UNL     1      25.683  44.642  52.407  1.00  0.00     0.128 HD
BRANCH  14  16
HETATM   16  C   UNL     1      27.211  44.995  53.636  1.00  0.00     0.019 A 
HETATM   17  C   UNL     1      28.374  44.539  54.320  1.00  0.00    -0.005 A 
HETATM   18  C   UNL     1      28.987  45.395  55.271  1.00  0.00    -0.024 A 
HETATM   19  C   UNL     1      28.956  43.267  54.116  1.00  0.00     0.014 A 
HETATM   20  C   UNL     1      30.163  44.992  55.926  1.00  0.00     0.012 A 
HETATM   21  C   UNL     1      28.421  46.647  55.554  1.00  0.00     0.012 A 
HETATM   22  C   UNL     1      30.732  43.745  55.676  1.00  0.00     0.001 A 
HETATM   23  C   UNL     1      30.123  42.877  54.779  1.00  0.00     0.001 A 
HETATM   24  C   UNL     1      27.259  47.066  54.913  1.00  0.00     0.003 A 
HETATM   25  C   UNL     1      26.662  46.250  53.958  1.00  0.00     0.024 A 
ENDBRANCH  14  16
ENDBRANCH   1  14
TORSDOF 5
ENDMDL
MODEL 3
REMARK VINA RESULT:      -8.6      2.081      3.003
REMARK  5 active torsions:
REMARK  status: ('A' for Active; 'I' for Inactive)
REMARK    1  A    between atoms: O_2  and  C_3 
REMARK    2  A    between atoms: C_6  and  N_7 
REMARK       I    between atoms: N_7  and  C_8 
REMARK    3  A    between atoms: C_8  and  C_9 
REMARK    4  A    between atoms: C_9  and  N_10 
REMARK    5  A    between atoms: N_10  and  C_11 
ROOT
HETATM    1  C   UNL     1      26.603  42.678  51.406  1.00  0.00     0.195 C 
ENDROOT
BRANCH   1   2
HETATM    2  C   UNL     1      26.457  43.870  50.450  1.00  0.00     0.235 C 
HETATM    3  N   UNL     1      25.596  44.848  50.923  1.00  0.00    -0.326 N 
HETATM    4  H   UNL     1      25.130  44.619  51.797  1.00  0.00     0.169 HD
HETATM    5  O   UNL     1      27.056  43.881  49.377  1.00  0.00    -0.272 OA
BRANCH   3   6
HETATM    6  C   UNL     1      25.296  46.088  50.326  1.00  0.00     0.034 A 
HETATM    7  C   UNL     1      24.048  46.408  49.786  1.00  0.00     0.032 A 
HETATM    8  C   UNL     1      23.816  47.658  49.197  1.00  0.00     0.039 A 
HETATM    9  C   UNL     1      24.832  48.608  49.140  1.00  0.00     0.068 A 
HETATM   10  C   UNL     1      26.084  48.291  49.671  1.00  0.00     0.039 A 
HETATM   11  C   UNL     1      26.315  47.042  50.263  1.00  0.00     0.032 A 
BRANCH   9  12
HETATM   12  O   UNL     1      24.734  49.859  48.597  1.00  0.00    -0.356 OA
HETATM   13  C   UNL     1      23.475  50.511  48.718  1.00  0.00     0.210 C 
ENDBRANCH   9  12
ENDBRANCH   3   6
ENDBRANCH   1   2
BRANCH   1  14
HETATM   14  N   UNL     1      26.288  43.057  52.812  1.00  0.00    -0.283 NA
HETATM   15  H   UNL     1      25.666  43.867  52.807  1.00  0.00     0.128 HD
BRANCH  14  16
HETATM   16  C   UNL     1      27.493  43.452  53.483  1.00  0.00     0.019 A 
HETATM   17  C   UNL     1      27.672  44.752  54.037  1.00  0.00    -0.005 A 
HETATM   18  C   UNL     1      28.818  45.003  54.835  1.00  0.00    -0.024 A 
HETATM   19  C   UNL     1      26.772  45.823  53.831  1.00  0.00     0.014 A 
HETATM   20  C   UNL     1      28.996  46.261  55.434  1.00  0.00     0.012 A 
HETATM   21  C   UNL     1      29.772  43.993  55.027  1.00  0.00     0.012 A 
HETATM   22  C   UNL     1      28.072  47.286  55.241  1.00  0.00     0.001 A 
HETATM   23  C   UNL     1      26.965  47.071  54.429  1.00  0.00     0.001 A 
HETATM   24  C   UNL     1      29.612  42.740  54.445  1.00  0.00     0.003 A 
HETATM   25  C   UNL     1      28.479  42.469  53.685  1.00  0.00     0.024 A 
ENDBRANCH  14  16
ENDBRANCH   1  14
TORSDOF 5
ENDMDL
MODEL 4
REMARK VINA RESULT:      -8.4      5.207      7.278
REMARK  5 active torsions:
REMARK  status: ('A' for Active; 'I' for Inactive)
REMARK    1  A    between atoms: O_2  and  C_3 
REMARK    2  A    between atoms: C_6  and  N_7 
REMARK       I    between atoms: N_7  and  C_8 
REMARK    3  A    between atoms: C_8  and  C_9 
REMARK    4  A    between atoms: C_9  and  N_10 
REMARK    5  A    between atoms: N_10  and  C_11 
ROOT
HETATM    1  C   UNL     1      28.547  41.523  53.447  1.00  0.00     0.195 C 
ENDROOT
BRANCH   1   2
HETATM    2  C   UNL     1      28.037  41.114  52.058  1.00  0.00     0.235 C 
HETATM    3  N   UNL     1      28.877  40.223  51.409  1.00  0.00    -0.326 N 
HETATM    4  H   UNL     1      29.740  40.013  51.903  1.00  0.00     0.169 HD
HETATM    5  O   UNL     1      26.991  41.585  51.617  1.00  0.00    -0.272 OA
BRANCH   3   6
HETATM    6  C   UNL     1      28.671  39.605  50.160  1.00  0.00     0.034 A 
HETATM    7  C   UNL     1      28.655  38.221  49.972  1.00  0.00     0.032 A 
HETATM    8  C   UNL     1      28.453  37.668  48.700  1.00  0.00     0.039 A 
HETATM    9  C   UNL     1      28.265  38.495  47.596  1.00  0.00     0.068 A 
HETATM   10  C   UNL     1      28.287  39.879  47.776  1.00  0.00     0.039 A 
HETATM   11  C   UNL     1      28.485  40.432  49.048  1.00  0.00     0.032 A 
BRANCH   9  12
HETATM   12  O   UNL     1      28.057  38.082  46.308  1.00  0.00    -0.356 OA
HETATM   13  C   UNL     1      28.486  36.765  45.983  1.00  0.00     0.210 C 
ENDBRANCH   9  12
ENDBRANCH   3   6
ENDBRANCH   1   2
BRANCH   1  14
HETATM   14  N   UNL     1      29.595  42.578  53.362  1.00  0.00    -0.283 NA
HETATM   15  H   UNL     1      30.482  42.191  53.688  1.00  0.00     0.128 HD
BRANCH  14  16
HETATM   16  C   UNL     1      29.256  43.662  54.239  1.00  0.00     0.019 A 
HETATM   17  C   UNL     1      29.973  43.930  55.439  1.00  0.00    -0.005 A 
HETATM   18  C   UNL     1      29.687  45.121  56.155  1.00  0.00    -0.024 A 
HETATM   19  C   UNL     1      30.957  43.067  55.975  1.00  0.00     0.014 A 
HETATM   20  C   UNL     1      30.411  45.436  57.317  1.00  0.00     0.012 A 
HETATM   21  C   UNL     1      28.681  45.987  55.700  1.00  0.00     0.012 A 
HETATM   22  C   UNL     1      31.400  44.582  57.799  1.00  0.00     0.001 A 
HETATM   23  C   UNL     1      31.666  43.391  57.135  1.00  0.00     0.001 A 
HETATM   24  C   UNL     1      27.955  45.695  54.549  1.00  0.00     0.003 A 
HETATM   25  C   UNL     1      28.244  44.546  53.821  1.00  0.00     0.024 A 
ENDBRANCH  14  16
ENDBRANCH   1  14
TORSDOF 5
ENDMDL
MODEL 5
REMARK VINA RESULT:      -8.3      1.913      2.714
REMARK  5 active torsions:
REMARK  status: ('A' for Active; 'I' for Inactive)
REMARK    1  A    between atoms: O_2  and  C_3 
REMARK    2  A    between atoms: C_6  and  N_7 
REMARK       I    between atoms: N_7  and  C_8 
REMARK    3  A    between atoms: C_8  and  C_9 
REMARK    4  A    between atoms: C_9  and  N_10 
REMARK    5  A    between atoms: N_10  and  C_11 
ROOT
HETATM    1  C   UNL     1      27.433  43.613  52.973  1.00  0.00     0.195 C 
ENDROOT
BRANCH   1   2
HETATM    2  C   UNL     1      26.904  44.264  51.688  1.00  0.00     0.235 C 
HETATM    3  N   UNL     1      25.698  44.923  51.865  1.00  0.00    -0.326 N 
HETATM    4  H   UNL     1      25.295  44.832  52.794  1.00  0.00     0.169 HD
HETATM    5  O   UNL     1      27.529  44.155  50.634  1.00  0.00    -0.272 OA
BRANCH   3   6
HETATM    6  C   UNL     1      24.983  45.674  50.912  1.00  0.00     0.034 A 
HETATM    7  C   UNL     1      25.083  47.061  50.782  1.00  0.00     0.032 A 
HETATM    8  C   UNL     1      24.337  47.752  49.817  1.00  0.00     0.039 A 
HETATM    9  C   UNL     1      23.477  47.061  48.968  1.00  0.00     0.068 A 
HETATM   10  C   UNL     1      23.367  45.676  49.098  1.00  0.00     0.039 A 
HETATM   11  C   UNL     1      24.116  44.985  50.060  1.00  0.00     0.032 A 
BRANCH   9  12
HETATM   12  O   UNL     1      22.698  47.615  47.989  1.00  0.00    -0.356 OA
HETATM   13  C   UNL     1      22.390  48.997  48.124  1.00  0.00     0.210 C 
ENDBRANCH   9  12
ENDBRANCH   3   6
ENDBRANCH   1   2
BRANCH   1  14
HETATM   14  N   UNL     1      28.816  44.065  53.292  1.00  0.00    -0.283 NA
HETATM   15  H   UNL     1      29.417  43.246  53.396  1.00  0.00     0.128 HD
BRANCH  14  16
HETATM   16  C   UNL     1      28.816  44.755  54.551  1.00  0.00     0.019 A 
HETATM   17  C   UNL     1      29.745  44.457  55.588  1.00  0.00    -0.005 A 
HETATM   18  C   UNL     1      29.791  45.301  56.727  1.00  0.00    -0.024 A 
HETATM   19  C   UNL     1      30.627  43.352  55.559  1.00  0.00     0.014 A 
HETATM   20  C   UNL     1      30.729  45.060  57.745  1.00  0.00     0.012 A 
HETATM   21  C   UNL     1      28.900  46.380  56.836  1.00  0.00     0.012 A 
HETATM   22  C   UNL     1      31.610  43.984  57.668  1.00  0.00     0.001 A 
HETATM   23  C   UNL     1      31.552  43.122  56.581  1.00  0.00     0.001 A 
HETATM   24  C   UNL     1      27.966  46.637  55.838  1.00  0.00     0.003 A 
HETATM   25  C   UNL     1      27.928  45.836  54.701  1.00  0.00     0.024 A 
ENDBRANCH  14  16
ENDBRANCH   1  14
TORSDOF 5
ENDMDL
MODEL 6
REMARK VINA RESULT:      -8.0      4.565      6.830
REMARK  5 active torsions:
REMARK  status: ('A' for Active; 'I' for Inactive)
REMARK    1  A    between atoms: O_2  and  C_3 
REMARK    2  A    between atoms: C_6  and  N_7 
REMARK       I    between atoms: N_7  and  C_8 
REMARK    3  A    between atoms: C_8  and  C_9 
REMARK    4  A    between atoms: C_9  and  N_10 
REMARK    5  A    between atoms: N_10  and  C_11 
ROOT
HETATM    1  C   UNL     1      25.926  44.500  51.614  1.00  0.00     0.195 C 
ENDROOT
BRANCH   1   2
HETATM    2  C   UNL     1      26.594  43.461  50.705  1.00  0.00     0.235 C 
HETATM    3  N   UNL     1      26.566  42.178  51.227  1.00  0.00    -0.326 N 
HETATM    4  H   UNL     1      26.171  42.107  52.161  1.00  0.00     0.169 HD
HETATM    5  O   UNL     1      27.105  43.805  49.640  1.00  0.00    -0.272 OA
BRANCH   3   6
HETATM    6  C   UNL     1      27.029  40.994  50.621  1.00  0.00     0.034 A 
HETATM    7  C   UNL     1      28.282  40.431  50.874  1.00  0.00     0.032 A 
HETATM    8  C   UNL     1      28.688  39.254  50.230  1.00  0.00     0.039 A 
HETATM    9  C   UNL     1      27.843  38.623  49.321  1.00  0.00     0.068 A 
HETATM   10  C   UNL     1      26.593  39.186  49.058  1.00  0.00     0.039 A 
HETATM   11  C   UNL     1      26.186  40.360  49.704  1.00  0.00     0.032 A 
BRANCH   9  12
HETATM   12  O   UNL     1      28.118  37.475  48.631  1.00  0.00    -0.356 OA
HETATM   13  C   UNL     1      28.736  37.628  47.358  1.00  0.00     0.210 C 
ENDBRANCH   9  12
ENDBRANCH   3   6
ENDBRANCH   1   2
BRANCH   1  14
HETATM   14  N   UNL     1      25.794  44.006  53.013  1.00  0.00    -0.283 NA
HETATM   15  H   UNL     1      24.820  44.101  53.308  1.00  0.00     0.128 HD
BRANCH  14  16
HETATM   16  C   UNL     1      26.584  44.825  53.887  1.00  0.00     0.019 A 
HETATM   17  C   UNL     1      27.856  44.415  54.380  1.00  0.00    -0.005 A 
HETATM   18  C   UNL     1      28.647  45.353  55.092  1.00  0.00    -0.024 A 
HETATM   19  C   UNL     1      28.381  43.113  54.211  1.00  0.00     0.014 A 
HETATM   20  C   UNL     1      29.926  44.992  55.549  1.00  0.00     0.012 A 
HETATM   21  C   UNL     1      28.153  46.643  55.338  1.00  0.00     0.012 A 
HETATM   22  C   UNL     1      30.430  43.711  55.334  1.00  0.00     0.001 A 
HETATM   23  C   UNL     1      29.653  42.767  54.675  1.00  0.00     0.001 A 
HETATM   24  C   UNL     1      26.890  47.020  54.892  1.00  0.00     0.003 A 
HETATM   25  C   UNL     1      26.115  46.121  54.167  1.00  0.00     0.024 A 
ENDBRANCH  14  16
ENDBRANCH   1  14
TORSDOF 5
ENDMDL
MODEL 7
REMARK VINA RESULT:      -8.0      3.371      5.902
REMARK  5 active torsions:
REMARK  status: ('A' for Active; 'I' for Inactive)
REMARK    1  A    between atoms: O_2  and  C_3 
REMARK    2  A    between atoms: C_6  and  N_7 
REMARK       I    between atoms: N_7  and  C_8 
REMARK    3  A    between atoms: C_8  and  C_9 
REMARK    4  A    between atoms: C_9  and  N_10 
REMARK    5  A    between atoms: N_10  and  C_11 
ROOT
HETATM    1  C   UNL     1      24.221  48.345  49.276  1.00  0.00     0.195 C 
ENDROOT
BRANCH   1   2
HETATM    2  C   UNL     1      22.829  48.795  48.813  1.00  0.00     0.235 C 
HETATM    3  N   UNL     1      22.189  49.617  49.725  1.00  0.00    -0.326 N 
HETATM    4  H   UNL     1      22.691  49.757  50.599  1.00  0.00     0.169 HD
HETATM    5  O   UNL     1      22.379  48.409  47.735  1.00  0.00    -0.272 OA
BRANCH   3   6
HETATM    6  C   UNL     1      20.940  50.252  49.579  1.00  0.00     0.034 A 
HETATM    7  C   UNL     1      19.765  49.804  50.190  1.00  0.00     0.032 A 
HETATM    8  C   UNL     1      18.551  50.476  49.997  1.00  0.00     0.039 A 
HETATM    9  C   UNL     1      18.494  51.607  49.188  1.00  0.00     0.068 A 
HETATM   10  C   UNL     1      19.662  52.055  48.570  1.00  0.00     0.039 A 
HETATM   11  C   UNL     1      20.878  51.385  48.765  1.00  0.00     0.032 A 
BRANCH   9  12
HETATM   12  O   UNL     1      17.377  52.350  48.922  1.00  0.00    -0.356 OA
HETATM   13  C   UNL     1      16.138  51.650  48.889  1.00  0.00     0.210 C 
ENDBRANCH   9  12
ENDBRANCH   3   6
ENDBRANCH   1   2
BRANCH   1  14
HETATM   14  N   UNL     1      24.191  47.798  50.662  1.00  0.00    -0.283 NA
HETATM   15  H   UNL     1      24.457  48.536  51.315  1.00  0.00     0.128 HD
BRANCH  14  16
HETATM   16  C   UNL     1      25.165  46.751  50.784  1.00  0.00     0.019 A 
HETATM   17  C   UNL     1      25.782  46.418  52.024  1.00  0.00    -0.005 A 
HETATM   18  C   UNL     1      26.597  45.259  52.092  1.00  0.00    -0.024 A 
HETATM   19  C   UNL     1      25.638  47.185  53.203  1.00  0.00     0.014 A 
HETATM   20  C   UNL     1      27.180  44.879  53.313  1.00  0.00     0.012 A 
HETATM   21  C   UNL     1      26.820  44.491  50.940  1.00  0.00     0.012 A 
HETATM   22  C   UNL     1      26.989  45.638  54.466  1.00  0.00     0.001 A 
HETATM   23  C   UNL     1      26.228  46.798  54.409  1.00  0.00     0.001 A 
HETATM   24  C   UNL     1      26.250  44.849  49.722  1.00  0.00     0.003 A 
HETATM   25  C   UNL     1      25.424  45.965  49.646  1.00  0.00     0.024 A 
ENDBRANCH  14  16
ENDBRANCH   1  14
TORSDOF 5
ENDMDL
MODEL 8
REMARK VINA RESULT:      -7.9      2.070      2.651
REMARK  5 active torsions:
REMARK  status: ('A' for Active; 'I' for Inactive)
REMARK    1  A    between atoms: O_2  and  C_3 
REMARK    2  A    between atoms: C_6  and  N_7 
REMARK       I    between atoms: N_7  and  C_8 
REMARK    3  A    between atoms: C_8  and  C_9 
REMARK    4  A    between atoms: C_9  and  N_10 
REMARK    5  A    between atoms: N_10  and  C_11 
ROOT
HETATM    1  C   UNL     1      25.995  43.236  51.613  1.00  0.00     0.195 C 
ENDROOT
BRANCH   1   2
HETATM    2  C   UNL     1      24.777  44.002  51.081  1.00  0.00     0.235 C 
HETATM    3  N   UNL     1      25.116  45.133  50.356  1.00  0.00    -0.326 N 
HETATM    4  H   UNL     1      26.111  45.340  50.329  1.00  0.00     0.169 HD
HETATM    5  O   UNL     1      23.639  43.608  51.329  1.00  0.00    -0.272 OA
BRANCH   3   6
HETATM    6  C   UNL     1      24.247  46.012  49.680  1.00  0.00     0.034 A 
HETATM    7  C   UNL     1      23.300  45.597  48.741  1.00  0.00     0.032 A 
HETATM    8  C   UNL     1      22.469  46.524  48.096  1.00  0.00     0.039 A 
HETATM    9  C   UNL     1      22.576  47.882  48.384  1.00  0.00     0.068 A 
HETATM   10  C   UNL     1      23.525  48.303  49.316  1.00  0.00     0.039 A 
HETATM   11  C   UNL     1      24.353  47.376  49.963  1.00  0.00     0.032 A 
BRANCH   9  12
HETATM   12  O   UNL     1      21.827  48.883  47.828  1.00  0.00    -0.356 OA
HETATM   13  C   UNL     1      22.416  50.178  47.796  1.00  0.00     0.210 C 
ENDBRANCH   9  12
ENDBRANCH   3   6
ENDBRANCH   1   2
BRANCH   1  14
HETATM   14  N   UNL     1      26.221  43.497  53.063  1.00  0.00    -0.283 NA
HETATM   15  H   UNL     1      25.924  44.450  53.279  1.00  0.00     0.128 HD
BRANCH  14  16
HETATM   16  C   UNL     1      27.624  43.414  53.352  1.00  0.00     0.019 A 
HETATM   17  C   UNL     1      28.257  44.240  54.324  1.00  0.00    -0.005 A 
HETATM   18  C   UNL     1      29.606  43.973  54.673  1.00  0.00    -0.024 A 
HETATM   19  C   UNL     1      27.620  45.328  54.964  1.00  0.00     0.014 A 
HETATM   20  C   UNL     1      30.242  44.740  55.664  1.00  0.00     0.012 A 
HETATM   21  C   UNL     1      30.305  42.941  54.030  1.00  0.00     0.012 A 
HETATM   22  C   UNL     1      29.574  45.783  56.303  1.00  0.00     0.001 A 
HETATM   23  C   UNL     1      28.266  46.085  55.945  1.00  0.00     0.001 A 
HETATM   24  C   UNL     1      29.692  42.168  53.048  1.00  0.00     0.003 A 
HETATM   25  C   UNL     1      28.361  42.398  52.716  1.00  0.00     0.024 A 
ENDBRANCH  14  16
ENDBRANCH   1  14
TORSDOF 5
ENDMDL
MODEL 9
REMARK VINA RESULT:      -7.6      5.047      5.845
REMARK  5 active torsions:
REMARK  status: ('A' for Active; 'I' for Inactive)
REMARK    1  A    between atoms: O_2  and  C_3 
REMARK    2  A    between atoms: C_6  and  N_7 
REMARK       I    between atoms: N_7  and  C_8 
REMARK    3  A    between atoms: C_8  and  C_9 
REMARK    4  A    between atoms: C_9  and  N_10 
REMARK    5  A    between atoms: N_10  and  C_11 
ROOT
HETATM    1  C   UNL     1      28.242  42.165  53.518  1.00  0.00     0.195 C 
ENDROOT
BRANCH   1   2
HETATM    2  C   UNL     1      28.047  41.427  52.187  1.00  0.00     0.235 C 
HETATM    3  N   UNL     1      27.037  41.966  51.406  1.00  0.00    -0.326 N 
HETATM    4  H   UNL     1      26.521  42.727  51.842  1.00  0.00     0.169 HD
HETATM    5  O   UNL     1      28.738  40.448  51.913  1.00  0.00    -0.272 OA
BRANCH   3   6
HETATM    6  C   UNL     1      26.650  41.571  50.111  1.00  0.00     0.034 A 
HETATM    7  C   UNL     1      25.344  41.216  49.765  1.00  0.00     0.032 A 
HETATM    8  C   UNL     1      25.025  40.823  48.459  1.00  0.00     0.039 A 
HETATM    9  C   UNL     1      26.011  40.778  47.478  1.00  0.00     0.068 A 
HETATM   10  C   UNL     1      27.320  41.124  47.819  1.00  0.00     0.039 A 
HETATM   11  C   UNL     1      27.638  41.521  49.125  1.00  0.00     0.032 A 
BRANCH   9  12
HETATM   12  O   UNL     1      25.830  40.414  46.171  1.00  0.00    -0.356 OA
HETATM   13  C   UNL     1      24.658  39.664  45.874  1.00  0.00     0.210 C 
ENDBRANCH   9  12
ENDBRANCH   3   6
ENDBRANCH   1   2
BRANCH   1  14
HETATM   14  N   UNL     1      29.265  43.242  53.408  1.00  0.00    -0.283 NA
HETATM   15  H   UNL     1      30.193  42.833  53.533  1.00  0.00     0.128 HD
BRANCH  14  16
HETATM   16  C   UNL     1      29.074  44.194  54.464  1.00  0.00     0.019 A 
HETATM   17  C   UNL     1      29.902  44.231  55.622  1.00  0.00    -0.005 A 
HETATM   18  C   UNL     1      29.758  45.311  56.531  1.00  0.00    -0.024 A 
HETATM   19  C   UNL     1      30.863  43.241  55.932  1.00  0.00     0.014 A 
HETATM   20  C   UNL     1      30.593  45.399  57.658  1.00  0.00     0.012 A 
HETATM   21  C   UNL     1      28.782  46.293  56.304  1.00  0.00     0.012 A 
HETATM   22  C   UNL     1      31.556  44.425  57.915  1.00  0.00     0.001 A 
HETATM   23  C   UNL     1      31.683  43.339  57.059  1.00  0.00     0.001 A 
HETATM   24  C   UNL     1      27.947  46.225  55.193  1.00  0.00     0.003 A 
HETATM   25  C   UNL     1      28.096  45.188  54.277  1.00  0.00     0.024 A 
ENDBRANCH  14  16
ENDBRANCH   1  14
TORSDOF 5
ENDMDL
MODEL 10
REMARK VINA RESULT:      -7.5      4.588     11.010
REMARK  5 active torsions:
REMARK  status: ('A' for Active; 'I' for Inactive)
REMARK    1  A    between atoms: O_2  and  C_3 
REMARK    2  A    between atoms: C_6  and  N_7 
REMARK       I    between atoms: N_7  and  C_8 
REMARK    3  A    between atoms: C_8  and  C_9 
REMARK    4  A    between atoms: C_9  and  N_10 
REMARK    5  A    between atoms: N_10  and  C_11 
ROOT
HETATM    1  C   UNL     1      22.138  50.471  49.339  1.00  0.00     0.195 C 
ENDROOT
BRANCH   1   2
HETATM    2  C   UNL     1      23.070  49.358  48.844  1.00  0.00     0.235 C 
HETATM    3  N   UNL     1      23.450  48.477  49.844  1.00  0.00    -0.326 N 
HETATM    4  H   UNL     1      23.119  48.721  50.775  1.00  0.00     0.169 HD
HETATM    5  O   UNL     1      23.424  49.323  47.667  1.00  0.00    -0.272 OA
BRANCH   3   6
HETATM    6  C   UNL     1      24.239  47.318  49.712  1.00  0.00     0.034 A 
HETATM    7  C   UNL     1      23.739  46.082  49.293  1.00  0.00     0.032 A 
HETATM    8  C   UNL     1      24.576  44.963  49.191  1.00  0.00     0.039 A 
HETATM    9  C   UNL     1      25.927  45.064  49.508  1.00  0.00     0.068 A 
HETATM   10  C   UNL     1      26.430  46.294  49.935  1.00  0.00     0.039 A 
HETATM   11  C   UNL     1      25.595  47.414  50.034  1.00  0.00     0.032 A 
BRANCH   9  12
HETATM   12  O   UNL     1      26.845  44.052  49.449  1.00  0.00    -0.356 OA
HETATM   13  C   UNL     1      27.516  43.728  50.662  1.00  0.00     0.210 C 
ENDBRANCH   9  12
ENDBRANCH   3   6
ENDBRANCH   1   2
BRANCH   1  14
HETATM   14  N   UNL     1      20.872  49.922  49.900  1.00  0.00    -0.283 NA
HETATM   15  H   UNL     1      20.868  48.908  49.780  1.00  0.00     0.128 HD
BRANCH  14  16
HETATM   16  C   UNL     1      19.756  50.441  49.161  1.00  0.00     0.019 A 
HETATM   17  C   UNL     1      18.588  49.671  48.894  1.00  0.00    -0.005 A 
HETATM   18  C   UNL     1      17.464  50.314  48.314  1.00  0.00    -0.024 A 
HETATM   19  C   UNL     1      18.481  48.288  49.166  1.00  0.00     0.014 A 
HETATM   20  C   UNL     1      16.282  49.591  48.083  1.00  0.00     0.012 A 
HETATM   21  C   UNL     1      17.533  51.673  47.972  1.00  0.00     0.012 A 
HETATM   22  C   UNL     1      16.196  48.236  48.396  1.00  0.00     0.001 A 
HETATM   23  C   UNL     1      17.300  47.581  48.927  1.00  0.00     0.001 A 
HETATM   24  C   UNL     1      18.694  52.406  48.195  1.00  0.00     0.003 A 
HETATM   25  C   UNL     1      19.794  51.798  48.791  1.00  0.00     0.024 A 
ENDBRANCH  14  16
ENDBRANCH   1  14
TORSDOF 5
ENDMDL
