MODEL 1
REMARK VINA RESULT:      -8.4      0.000      0.000
REMARK  5 active torsions:
REMARK  status: ('A' for Active; 'I' for Inactive)
REMARK    1  A    between atoms: C_3  and  N_4 
REMARK       I    between atoms: N_4  and  C_5 
REMARK       I    between atoms: C_5  and  N_6 
REMARK    2  A    between atoms: N_6  and  C_7 
REMARK    3  A    between atoms: C_7  and  C_8 
REMARK    4  A    between atoms: C_8  and  O_9 
REMARK    5  A    between atoms: O_9  and  C_10 
ROOT
HETATM    1  N   UNL     1      25.004  46.961  50.736  1.00  0.00    -0.307 N 
HETATM    2  C   UNL     1      24.948  45.629  50.461  1.00  0.00     0.320 C 
HETATM    3  N   UNL     1      24.715  44.824  51.537  1.00  0.00    -0.340 N 
HETATM    4  O   UNL     1      25.025  45.111  49.353  1.00  0.00    -0.247 OA
HETATM    5  H   UNL     1      24.298  47.211  51.419  1.00  0.00     0.170 HD
HETATM    6  H   UNL     1      24.653  43.864  51.218  1.00  0.00     0.164 HD
ENDROOT
BRANCH   3   7
HETATM    7  C   UNL     1      25.197  44.976  52.910  1.00  0.00     0.156 C 
BRANCH   7   8
HETATM    8  C   UNL     1      26.335  44.054  53.401  1.00  0.00     0.142 C 
HETATM    9  C   UNL     1      26.086  43.690  54.867  1.00  0.00     0.042 C 
BRANCH   8  10
HETATM   10  O   UNL     1      27.568  44.773  53.274  1.00  0.00    -0.343 OA
BRANCH  10  11
HETATM   11  C   UNL     1      28.604  44.532  54.133  1.00  0.00     0.086 A 
HETATM   12  C   UNL     1      28.875  45.530  55.084  1.00  0.00     0.044 A 
HETATM   13 BR   UNL     1      27.836  47.119  55.179  1.00  0.00    -0.048 Br
HETATM   14  C   UNL     1      29.921  45.381  56.000  1.00  0.00     0.022 A 
HETATM   15  C   UNL     1      30.713  44.237  55.970  1.00  0.00     0.002 A 
HETATM   16  C   UNL     1      30.461  43.247  55.023  1.00  0.00     0.003 A 
HETATM   17  C   UNL     1      29.414  43.393  54.107  1.00  0.00     0.038 A 
ENDBRANCH  10  11
ENDBRANCH   8  10
ENDBRANCH   7   8
ENDBRANCH   3   7
BRANCH   1  18
HETATM   18  C   UNL     1      25.388  47.994  49.850  1.00  0.00     0.059 A 
HETATM   19  C   UNL     1      24.523  48.782  49.075  1.00  0.00    -0.032 A 
HETATM   20  C   UNL     1      23.029  48.632  49.037  1.00  0.00     0.050 C 
HETATM   21  C   UNL     1      25.087  49.782  48.262  1.00  0.00     0.028 A 
HETATM   22  C   UNL     1      26.464  49.921  48.198  1.00  0.00     0.117 A 
HETATM   23  N   UNL     1      27.322  49.139  48.879  1.00  0.00    -0.271 NA
HETATM   24  C   UNL     1      26.763  48.205  49.684  1.00  0.00     0.146 A 
ENDBRANCH   1  18
TORSDOF 5
ENDMDL
MODEL 2
REMARK VINA RESULT:      -8.0      2.667      7.937
REMARK  5 active torsions:
REMARK  status: ('A' for Active; 'I' for Inactive)
REMARK    1  A    between atoms: C_3  and  N_4 
REMARK       I    between atoms: N_4  and  C_5 
REMARK       I    between atoms: C_5  and  N_6 
REMARK    2  A    between atoms: N_6  and  C_7 
REMARK    3  A    between atoms: C_7  and  C_8 
REMARK    4  A    between atoms: C_8  and  O_9 
REMARK    5  A    between atoms: O_9  and  C_10 
ROOT
HETATM    1  N   UNL     1      28.182  44.995  54.117  1.00  0.00    -0.307 N 
HETATM    2  C   UNL     1      27.080  44.208  53.966  1.00  0.00     0.320 C 
HETATM    3  N   UNL     1      26.304  44.500  52.884  1.00  0.00    -0.340 N 
HETATM    4  O   UNL     1      26.770  43.250  54.664  1.00  0.00    -0.247 OA
HETATM    5  H   UNL     1      28.607  45.184  53.217  1.00  0.00     0.170 HD
HETATM    6  H   UNL     1      25.540  43.835  52.843  1.00  0.00     0.164 HD
ENDROOT
BRANCH   3   7
HETATM    7  C   UNL     1      25.999  45.810  52.307  1.00  0.00     0.156 C 
BRANCH   7   8
HETATM    8  C   UNL     1      25.790  45.915  50.780  1.00  0.00     0.142 C 
HETATM    9  C   UNL     1      26.731  44.933  50.078  1.00  0.00     0.042 C 
BRANCH   8  10
HETATM   10  O   UNL     1      26.095  47.258  50.387  1.00  0.00    -0.343 OA
BRANCH  10  11
HETATM   11  C   UNL     1      25.189  47.997  49.677  1.00  0.00     0.086 A 
HETATM   12  C   UNL     1      25.698  49.087  48.952  1.00  0.00     0.044 A 
HETATM   13 BR   UNL     1      27.556  49.493  48.946  1.00  0.00    -0.048 Br
HETATM   14  C   UNL     1      24.851  49.909  48.203  1.00  0.00     0.022 A 
HETATM   15  C   UNL     1      23.483  49.655  48.178  1.00  0.00     0.002 A 
HETATM   16  C   UNL     1      22.964  48.584  48.903  1.00  0.00     0.003 A 
HETATM   17  C   UNL     1      23.812  47.760  49.651  1.00  0.00     0.038 A 
ENDBRANCH  10  11
ENDBRANCH   8  10
ENDBRANCH   7   8
ENDBRANCH   3   7
BRANCH   1  18
HETATM   18  C   UNL     1      29.060  45.020  55.226  1.00  0.00     0.059 A 
HETATM   19  C   UNL     1      30.146  44.157  55.439  1.00  0.00    -0.032 A 
HETATM   20  C   UNL     1      30.536  43.029  54.526  1.00  0.00     0.050 C 
HETATM   21  C   UNL     1      30.926  44.345  56.594  1.00  0.00     0.028 A 
HETATM   22  C   UNL     1      30.571  45.321  57.511  1.00  0.00     0.117 A 
HETATM   23  N   UNL     1      29.500  46.121  57.367  1.00  0.00    -0.271 NA
HETATM   24  C   UNL     1      28.779  45.952  56.233  1.00  0.00     0.146 A 
ENDBRANCH   1  18
TORSDOF 5
ENDMDL
MODEL 3
REMARK VINA RESULT:      -8.0      1.896      2.634
REMARK  5 active torsions:
REMARK  status: ('A' for Active; 'I' for Inactive)
REMARK    1  A    between atoms: C_3  and  N_4 
REMARK       I    between atoms: N_4  and  C_5 
REMARK       I    between atoms: C_5  and  N_6 
REMARK    2  A    between atoms: N_6  and  C_7 
REMARK    3  A    between atoms: C_7  and  C_8 
REMARK    4  A    between atoms: C_8  and  O_9 
REMARK    5  A    between atoms: O_9  and  C_10 
ROOT
HETATM    1  N   UNL     1      23.988  47.202  50.364  1.00  0.00    -0.307 N 
HETATM    2  C   UNL     1      24.073  45.883  50.034  1.00  0.00     0.320 C 
HETATM    3  N   UNL     1      24.298  45.037  51.080  1.00  0.00    -0.340 N 
HETATM    4  O   UNL     1      23.908  45.400  48.920  1.00  0.00    -0.247 OA
HETATM    5  H   UNL     1      23.481  47.316  51.234  1.00  0.00     0.170 HD
HETATM    6  H   UNL     1      24.303  44.085  50.733  1.00  0.00     0.164 HD
ENDROOT
BRANCH   3   7
HETATM    7  C   UNL     1      25.127  45.255  52.266  1.00  0.00     0.156 C 
BRANCH   7   8
HETATM    8  C   UNL     1      26.605  44.809  52.227  1.00  0.00     0.142 C 
HETATM    9  C   UNL     1      26.855  44.019  50.940  1.00  0.00     0.042 C 
BRANCH   8  10
HETATM   10  O   UNL     1      26.843  43.979  53.370  1.00  0.00    -0.343 OA
BRANCH  10  11
HETATM   11  C   UNL     1      27.971  44.143  54.126  1.00  0.00     0.086 A 
HETATM   12  C   UNL     1      28.842  43.044  54.202  1.00  0.00     0.044 A 
HETATM   13 BR   UNL     1      28.474  41.422  53.280  1.00  0.00    -0.048 Br
HETATM   14  C   UNL     1      30.016  43.110  54.958  1.00  0.00     0.022 A 
HETATM   15  C   UNL     1      30.328  44.275  55.653  1.00  0.00     0.002 A 
HETATM   16  C   UNL     1      29.467  45.368  55.595  1.00  0.00     0.003 A 
HETATM   17  C   UNL     1      28.292  45.303  54.838  1.00  0.00     0.038 A 
ENDBRANCH  10  11
ENDBRANCH   8  10
ENDBRANCH   7   8
ENDBRANCH   3   7
BRANCH   1  18
HETATM   18  C   UNL     1      23.924  48.296  49.470  1.00  0.00     0.059 A 
HETATM   19  C   UNL     1      25.021  48.991  48.936  1.00  0.00    -0.032 A 
HETATM   20  C   UNL     1      26.459  48.701  49.258  1.00  0.00     0.050 C 
HETATM   21  C   UNL     1      24.765  50.046  48.041  1.00  0.00     0.028 A 
HETATM   22  C   UNL     1      23.457  50.408  47.762  1.00  0.00     0.117 A 
HETATM   23  N   UNL     1      22.386  49.803  48.307  1.00  0.00    -0.271 NA
HETATM   24  C   UNL     1      22.648  48.768  49.139  1.00  0.00     0.146 A 
ENDBRANCH   1  18
TORSDOF 5
ENDMDL
MODEL 4
REMARK VINA RESULT:      -7.8      3.287      4.559
REMARK  5 active torsions:
REMARK  status: ('A' for Active; 'I' for Inactive)
REMARK    1  A    between atoms: C_3  and  N_4 
REMARK       I    between atoms: N_4  and  C_5 
REMARK       I    between atoms: C_5  and  N_6 
REMARK    2  A    between atoms: N_6  and  C_7 
REMARK    3  A    between atoms: C_7  and  C_8 
REMARK    4  A    between atoms: C_8  and  O_9 
REMARK    5  A    between atoms: O_9  and  C_10 
ROOT
HETATM    1  N   UNL     1      25.952  42.299  51.545  1.00  0.00    -0.307 N 
HETATM    2  C   UNL     1      26.843  41.338  51.175  1.00  0.00     0.320 C 
HETATM    3  N   UNL     1      27.531  40.759  52.201  1.00  0.00    -0.340 N 
HETATM    4  O   UNL     1      27.031  40.918  50.039  1.00  0.00    -0.247 OA
HETATM    5  H   UNL     1      25.472  42.027  52.395  1.00  0.00     0.170 HD
HETATM    6  H   UNL     1      28.132  40.036  51.824  1.00  0.00     0.164 HD
ENDROOT
BRANCH   3   7
HETATM    7  C   UNL     1      28.028  41.380  53.430  1.00  0.00     0.156 C 
BRANCH   7   8
HETATM    8  C   UNL     1      28.630  42.800  53.350  1.00  0.00     0.142 C 
HETATM    9  C   UNL     1      30.154  42.692  53.256  1.00  0.00     0.042 C 
BRANCH   8  10
HETATM   10  O   UNL     1      28.257  43.503  54.541  1.00  0.00    -0.343 OA
BRANCH  10  11
HETATM   11  C   UNL     1      27.773  44.780  54.472  1.00  0.00     0.086 A 
HETATM   12  C   UNL     1      28.498  45.764  55.164  1.00  0.00     0.044 A 
HETATM   13 BR   UNL     1      30.082  45.337  56.126  1.00  0.00    -0.048 Br
HETATM   14  C   UNL     1      28.078  47.098  55.162  1.00  0.00     0.022 A 
HETATM   15  C   UNL     1      26.924  47.461  54.475  1.00  0.00     0.002 A 
HETATM   16  C   UNL     1      26.190  46.491  53.795  1.00  0.00     0.003 A 
HETATM   17  C   UNL     1      26.610  45.157  53.795  1.00  0.00     0.038 A 
ENDBRANCH  10  11
ENDBRANCH   8  10
ENDBRANCH   7   8
ENDBRANCH   3   7
BRANCH   1  18
HETATM   18  C   UNL     1      25.234  43.164  50.687  1.00  0.00     0.059 A 
HETATM   19  C   UNL     1      25.748  44.297  50.038  1.00  0.00    -0.032 A 
HETATM   20  C   UNL     1      27.157  44.800  50.179  1.00  0.00     0.050 C 
HETATM   21  C   UNL     1      24.888  45.029  49.200  1.00  0.00     0.028 A 
HETATM   22  C   UNL     1      23.558  44.657  49.087  1.00  0.00     0.117 A 
HETATM   23  N   UNL     1      23.020  43.614  49.746  1.00  0.00    -0.271 NA
HETATM   24  C   UNL     1      23.869  42.899  50.521  1.00  0.00     0.146 A 
ENDBRANCH   1  18
TORSDOF 5
ENDMDL
MODEL 5
REMARK VINA RESULT:      -7.7      3.039      4.564
REMARK  5 active torsions:
REMARK  status: ('A' for Active; 'I' for Inactive)
REMARK    1  A    between atoms: C_3  and  N_4 
REMARK       I    between atoms: N_4  and  C_5 
REMARK       I    between atoms: C_5  and  N_6 
REMARK    2  A    between atoms: N_6  and  C_7 
REMARK    3  A    between atoms: C_7  and  C_8 
REMARK    4  A    between atoms: C_8  and  O_9 
REMARK    5  A    between atoms: O_9  and  C_10 
ROOT
HETATM    1  N   UNL     1      22.034  48.442  49.629  1.00  0.00    -0.307 N 
HETATM    2  C   UNL     1      22.687  47.577  48.804  1.00  0.00     0.320 C 
HETATM    3  N   UNL     1      23.639  46.808  49.405  1.00  0.00    -0.340 N 
HETATM    4  O   UNL     1      22.455  47.392  47.614  1.00  0.00    -0.247 OA
HETATM    5  H   UNL     1      21.850  48.004  50.524  1.00  0.00     0.170 HD
HETATM    6  H   UNL     1      24.032  46.178  48.717  1.00  0.00     0.164 HD
ENDROOT
BRANCH   3   7
HETATM    7  C   UNL     1      24.557  47.174  50.485  1.00  0.00     0.156 C 
BRANCH   7   8
HETATM    8  C   UNL     1      25.782  46.272  50.752  1.00  0.00     0.142 C 
HETATM    9  C   UNL     1      25.850  45.190  49.671  1.00  0.00     0.042 C 
BRANCH   8  10
HETATM   10  O   UNL     1      25.612  45.671  52.041  1.00  0.00    -0.343 OA
BRANCH  10  11
HETATM   11  C   UNL     1      26.410  46.038  53.090  1.00  0.00     0.086 A 
HETATM   12  C   UNL     1      27.326  45.078  53.548  1.00  0.00     0.044 A 
HETATM   13 BR   UNL     1      27.459  43.366  52.731  1.00  0.00    -0.048 Br
HETATM   14  C   UNL     1      28.179  45.354  54.621  1.00  0.00     0.022 A 
HETATM   15  C   UNL     1      28.118  46.593  55.253  1.00  0.00     0.002 A 
HETATM   16  C   UNL     1      27.205  47.549  54.816  1.00  0.00     0.003 A 
HETATM   17  C   UNL     1      26.352  47.274  53.741  1.00  0.00     0.038 A 
ENDBRANCH  10  11
ENDBRANCH   8  10
ENDBRANCH   7   8
ENDBRANCH   3   7
BRANCH   1  18
HETATM   18  C   UNL     1      21.127  49.457  49.246  1.00  0.00     0.059 A 
HETATM   19  C   UNL     1      21.469  50.730  48.763  1.00  0.00    -0.032 A 
HETATM   20  C   UNL     1      22.873  51.238  48.604  1.00  0.00     0.050 C 
HETATM   21  C   UNL     1      20.427  51.606  48.409  1.00  0.00     0.028 A 
HETATM   22  C   UNL     1      19.110  51.221  48.603  1.00  0.00     0.117 A 
HETATM   23  N   UNL     1      18.751  50.034  49.123  1.00  0.00    -0.271 NA
HETATM   24  C   UNL     1      19.764  49.188  49.425  1.00  0.00     0.146 A 
ENDBRANCH   1  18
TORSDOF 5
ENDMDL
MODEL 6
REMARK VINA RESULT:      -7.7      4.696      6.670
REMARK  5 active torsions:
REMARK  status: ('A' for Active; 'I' for Inactive)
REMARK    1  A    between atoms: C_3  and  N_4 
REMARK       I    between atoms: N_4  and  C_5 
REMARK       I    between atoms: C_5  and  N_6 
REMARK    2  A    between atoms: N_6  and  C_7 
REMARK    3  A    between atoms: C_7  and  C_8 
REMARK    4  A    between atoms: C_8  and  O_9 
REMARK    5  A    between atoms: O_9  and  C_10 
ROOT
HETATM    1  N   UNL     1      27.981  40.832  50.100  1.00  0.00    -0.307 N 
HETATM    2  C   UNL     1      26.914  40.840  50.948  1.00  0.00     0.320 C 
HETATM    3  N   UNL     1      26.972  41.771  51.943  1.00  0.00    -0.340 N 
HETATM    4  O   UNL     1      25.909  40.145  50.859  1.00  0.00    -0.247 OA
HETATM    5  H   UNL     1      28.280  41.779  49.900  1.00  0.00     0.170 HD
HETATM    6  H   UNL     1      26.119  41.719  52.488  1.00  0.00     0.164 HD
ENDROOT
BRANCH   3   7
HETATM    7  C   UNL     1      28.142  42.233  52.693  1.00  0.00     0.156 C 
BRANCH   7   8
HETATM    8  C   UNL     1      27.924  43.170  53.901  1.00  0.00     0.142 C 
HETATM    9  C   UNL     1      26.656  43.996  53.670  1.00  0.00     0.042 C 
BRANCH   8  10
HETATM   10  O   UNL     1      29.063  44.032  53.999  1.00  0.00    -0.343 OA
BRANCH  10  11
HETATM   11  C   UNL     1      29.799  44.084  55.151  1.00  0.00     0.086 A 
HETATM   12  C   UNL     1      29.661  45.242  55.932  1.00  0.00     0.044 A 
HETATM   13 BR   UNL     1      28.492  46.651  55.419  1.00  0.00    -0.048 Br
HETATM   14  C   UNL     1      30.378  45.394  57.123  1.00  0.00     0.022 A 
HETATM   15  C   UNL     1      31.248  44.391  57.540  1.00  0.00     0.002 A 
HETATM   16  C   UNL     1      31.403  43.243  56.767  1.00  0.00     0.003 A 
HETATM   17  C   UNL     1      30.684  43.090  55.577  1.00  0.00     0.038 A 
ENDBRANCH  10  11
ENDBRANCH   8  10
ENDBRANCH   7   8
ENDBRANCH   3   7
BRANCH   1  18
HETATM   18  C   UNL     1      28.255  39.878  49.093  1.00  0.00     0.059 A 
HETATM   19  C   UNL     1      28.969  38.682  49.261  1.00  0.00    -0.032 A 
HETATM   20  C   UNL     1      29.596  38.232  50.549  1.00  0.00     0.050 C 
HETATM   21  C   UNL     1      29.126  37.841  48.145  1.00  0.00     0.028 A 
HETATM   22  C   UNL     1      28.633  38.237  46.912  1.00  0.00     0.117 A 
HETATM   23  N   UNL     1      28.000  39.406  46.705  1.00  0.00    -0.271 NA
HETATM   24  C   UNL     1      27.826  40.188  47.796  1.00  0.00     0.146 A 
ENDBRANCH   1  18
TORSDOF 5
ENDMDL
MODEL 7
REMARK VINA RESULT:      -7.7      2.872      7.514
REMARK  5 active torsions:
REMARK  status: ('A' for Active; 'I' for Inactive)
REMARK    1  A    between atoms: C_3  and  N_4 
REMARK       I    between atoms: N_4  and  C_5 
REMARK       I    between atoms: C_5  and  N_6 
REMARK    2  A    between atoms: N_6  and  C_7 
REMARK    3  A    between atoms: C_7  and  C_8 
REMARK    4  A    between atoms: C_8  and  O_9 
REMARK    5  A    between atoms: O_9  and  C_10 
ROOT
HETATM    1  N   UNL     1      28.735  44.161  53.766  1.00  0.00    -0.307 N 
HETATM    2  C   UNL     1      27.479  43.645  53.657  1.00  0.00     0.320 C 
HETATM    3  N   UNL     1      26.943  43.684  52.404  1.00  0.00    -0.340 N 
HETATM    4  O   UNL     1      26.833  43.109  54.550  1.00  0.00    -0.247 OA
HETATM    5  H   UNL     1      29.293  43.902  52.961  1.00  0.00     0.170 HD
HETATM    6  H   UNL     1      26.031  43.243  52.426  1.00  0.00     0.164 HD
ENDROOT
BRANCH   3   7
HETATM    7  C   UNL     1      27.089  44.722  51.382  1.00  0.00     0.156 C 
BRANCH   7   8
HETATM    8  C   UNL     1      26.032  45.846  51.313  1.00  0.00     0.142 C 
HETATM    9  C   UNL     1      24.710  45.324  51.880  1.00  0.00     0.042 C 
BRANCH   8  10
HETATM   10  O   UNL     1      25.870  46.210  49.937  1.00  0.00    -0.343 OA
BRANCH  10  11
HETATM   11  C   UNL     1      26.182  47.472  49.511  1.00  0.00     0.086 A 
HETATM   12  C   UNL     1      25.106  48.289  49.127  1.00  0.00     0.044 A 
HETATM   13 BR   UNL     1      23.310  47.673  49.220  1.00  0.00    -0.048 Br
HETATM   14  C   UNL     1      25.323  49.591  48.667  1.00  0.00     0.022 A 
HETATM   15  C   UNL     1      26.620  50.088  48.578  1.00  0.00     0.002 A 
HETATM   16  C   UNL     1      27.696  49.283  48.944  1.00  0.00     0.003 A 
HETATM   17  C   UNL     1      27.480  47.980  49.406  1.00  0.00     0.038 A 
ENDBRANCH  10  11
ENDBRANCH   8  10
ENDBRANCH   7   8
ENDBRANCH   3   7
BRANCH   1  18
HETATM   18  C   UNL     1      29.455  44.393  54.961  1.00  0.00     0.059 A 
HETATM   19  C   UNL     1      29.303  45.497  55.815  1.00  0.00    -0.032 A 
HETATM   20  C   UNL     1      28.362  46.643  55.576  1.00  0.00     0.050 C 
HETATM   21  C   UNL     1      30.095  45.550  56.976  1.00  0.00     0.028 A 
HETATM   22  C   UNL     1      31.034  44.559  57.214  1.00  0.00     0.117 A 
HETATM   23  N   UNL     1      31.247  43.523  56.383  1.00  0.00    -0.271 NA
HETATM   24  C   UNL     1      30.454  43.467  55.287  1.00  0.00     0.146 A 
ENDBRANCH   1  18
TORSDOF 5
ENDMDL
MODEL 8
REMARK VINA RESULT:      -7.4      2.494      3.763
REMARK  5 active torsions:
REMARK  status: ('A' for Active; 'I' for Inactive)
REMARK    1  A    between atoms: C_3  and  N_4 
REMARK       I    between atoms: N_4  and  C_5 
REMARK       I    between atoms: C_5  and  N_6 
REMARK    2  A    between atoms: N_6  and  C_7 
REMARK    3  A    between atoms: C_7  and  C_8 
REMARK    4  A    between atoms: C_8  and  O_9 
REMARK    5  A    between atoms: O_9  and  C_10 
ROOT
HETATM    1  N   UNL     1      24.762  44.773  51.667  1.00  0.00    -0.307 N 
HETATM    2  C   UNL     1      25.975  44.181  51.845  1.00  0.00     0.320 C 
HETATM    3  N   UNL     1      26.618  44.511  53.002  1.00  0.00    -0.340 N 
HETATM    4  O   UNL     1      26.497  43.353  51.107  1.00  0.00    -0.247 OA
HETATM    5  H   UNL     1      24.254  44.808  52.543  1.00  0.00     0.170 HD
HETATM    6  H   UNL     1      27.485  43.990  53.054  1.00  0.00     0.164 HD
ENDROOT
BRANCH   3   7
HETATM    7  C   UNL     1      26.645  45.802  53.693  1.00  0.00     0.156 C 
BRANCH   7   8
HETATM    8  C   UNL     1      27.476  45.930  54.988  1.00  0.00     0.142 C 
HETATM    9  C   UNL     1      27.389  47.371  55.497  1.00  0.00     0.042 C 
BRANCH   8  10
HETATM   10  O   UNL     1      28.833  45.599  54.673  1.00  0.00    -0.343 OA
BRANCH  10  11
HETATM   11  C   UNL     1      29.662  45.080  55.630  1.00  0.00     0.086 A 
HETATM   12  C   UNL     1      30.277  43.854  55.329  1.00  0.00     0.044 A 
HETATM   13 BR   UNL     1      29.984  42.978  53.667  1.00  0.00    -0.048 Br
HETATM   14  C   UNL     1      31.133  43.237  56.246  1.00  0.00     0.022 A 
HETATM   15  C   UNL     1      31.378  43.837  57.478  1.00  0.00     0.002 A 
HETATM   16  C   UNL     1      30.764  45.048  57.792  1.00  0.00     0.003 A 
HETATM   17  C   UNL     1      29.908  45.666  56.874  1.00  0.00     0.038 A 
ENDBRANCH  10  11
ENDBRANCH   8  10
ENDBRANCH   7   8
ENDBRANCH   3   7
BRANCH   1  18
HETATM   18  C   UNL     1      23.965  44.736  50.499  1.00  0.00     0.059 A 
HETATM   19  C   UNL     1      23.808  45.780  49.574  1.00  0.00    -0.032 A 
HETATM   20  C   UNL     1      24.443  47.136  49.695  1.00  0.00     0.050 C 
HETATM   21  C   UNL     1      22.987  45.555  48.454  1.00  0.00     0.028 A 
HETATM   22  C   UNL     1      22.316  44.350  48.325  1.00  0.00     0.117 A 
HETATM   23  N   UNL     1      22.396  43.355  49.226  1.00  0.00    -0.271 NA
HETATM   24  C   UNL     1      23.216  43.573  50.281  1.00  0.00     0.146 A 
ENDBRANCH   1  18
TORSDOF 5
ENDMDL
MODEL 9
REMARK VINA RESULT:      -7.4      4.719      7.081
REMARK  5 active torsions:
REMARK  status: ('A' for Active; 'I' for Inactive)
REMARK    1  A    between atoms: C_3  and  N_4 
REMARK       I    between atoms: N_4  and  C_5 
REMARK       I    between atoms: C_5  and  N_6 
REMARK    2  A    between atoms: N_6  and  C_7 
REMARK    3  A    between atoms: C_7  and  C_8 
REMARK    4  A    between atoms: C_8  and  O_9 
REMARK    5  A    between atoms: O_9  and  C_10 
ROOT
HETATM    1  N   UNL     1      28.401  40.743  50.438  1.00  0.00    -0.307 N 
HETATM    2  C   UNL     1      27.323  40.907  51.254  1.00  0.00     0.320 C 
HETATM    3  N   UNL     1      27.533  41.708  52.337  1.00  0.00    -0.340 N 
HETATM    4  O   UNL     1      26.198  40.458  51.071  1.00  0.00    -0.247 OA
HETATM    5  H   UNL     1      28.905  41.617  50.340  1.00  0.00     0.170 HD
HETATM    6  H   UNL     1      26.664  41.795  52.852  1.00  0.00     0.164 HD
ENDROOT
BRANCH   3   7
HETATM    7  C   UNL     1      28.738  41.835  53.158  1.00  0.00     0.156 C 
BRANCH   7   8
HETATM    8  C   UNL     1      29.140  43.235  53.671  1.00  0.00     0.142 C 
HETATM    9  C   UNL     1      30.459  43.126  54.439  1.00  0.00     0.042 C 
BRANCH   8  10
HETATM   10  O   UNL     1      28.100  43.700  54.539  1.00  0.00    -0.343 OA
BRANCH  10  11
HETATM   11  C   UNL     1      27.431  44.861  54.262  1.00  0.00     0.086 A 
HETATM   12  C   UNL     1      27.777  45.984  55.032  1.00  0.00     0.044 A 
HETATM   13 BR   UNL     1      29.123  45.891  56.372  1.00  0.00    -0.048 Br
HETATM   14  C   UNL     1      27.143  47.213  54.831  1.00  0.00     0.022 A 
HETATM   15  C   UNL     1      26.149  47.332  53.864  1.00  0.00     0.002 A 
HETATM   16  C   UNL     1      25.789  46.222  53.103  1.00  0.00     0.003 A 
HETATM   17  C   UNL     1      26.424  44.992  53.302  1.00  0.00     0.038 A 
ENDBRANCH  10  11
ENDBRANCH   8  10
ENDBRANCH   7   8
ENDBRANCH   3   7
BRANCH   1  18
HETATM   18  C   UNL     1      28.511  39.847  49.349  1.00  0.00     0.059 A 
HETATM   19  C   UNL     1      29.143  38.594  49.372  1.00  0.00    -0.032 A 
HETATM   20  C   UNL     1      29.843  38.008  50.564  1.00  0.00     0.050 C 
HETATM   21  C   UNL     1      29.135  37.827  48.193  1.00  0.00     0.028 A 
HETATM   22  C   UNL     1      28.569  38.345  47.039  1.00  0.00     0.117 A 
HETATM   23  N   UNL     1      28.013  39.568  46.969  1.00  0.00    -0.271 NA
HETATM   24  C   UNL     1      27.997  40.280  48.120  1.00  0.00     0.146 A 
ENDBRANCH   1  18
TORSDOF 5
ENDMDL
MODEL 10
REMARK VINA RESULT:      -7.3     11.900     13.712
REMARK  5 active torsions:
REMARK  status: ('A' for Active; 'I' for Inactive)
REMARK    1  A    between atoms: C_3  and  N_4 
REMARK       I    between atoms: N_4  and  C_5 
REMARK       I    between atoms: C_5  and  N_6 
REMARK    2  A    between atoms: N_6  and  C_7 
REMARK    3  A    between atoms: C_7  and  C_8 
REMARK    4  A    between atoms: C_8  and  O_9 
REMARK    5  A    between atoms: O_9  and  C_10 
ROOT
HETATM    1  N   UNL     1      32.262  51.546  40.169  1.00  0.00    -0.307 N 
HETATM    2  C   UNL     1      33.378  52.295  40.394  1.00  0.00     0.320 C 
HETATM    3  N   UNL     1      34.251  51.775  41.304  1.00  0.00    -0.340 N 
HETATM    4  O   UNL     1      33.684  53.334  39.820  1.00  0.00    -0.247 OA
HETATM    5  H   UNL     1      32.497  50.561  40.151  1.00  0.00     0.170 HD
HETATM    6  H   UNL     1      35.058  52.385  41.366  1.00  0.00     0.164 HD
ENDROOT
BRANCH   3   7
HETATM    7  C   UNL     1      33.956  51.035  42.531  1.00  0.00     0.156 C 
BRANCH   7   8
HETATM    8  C   UNL     1      32.549  51.170  43.155  1.00  0.00     0.142 C 
HETATM    9  C   UNL     1      32.680  51.769  44.558  1.00  0.00     0.042 C 
BRANCH   8  10
HETATM   10  O   UNL     1      31.975  49.860  43.230  1.00  0.00    -0.343 OA
BRANCH  10  11
HETATM   11  C   UNL     1      31.002  49.476  42.348  1.00  0.00     0.086 A 
HETATM   12  C   UNL     1      31.347  48.472  41.430  1.00  0.00     0.044 A 
HETATM   13 BR   UNL     1      33.074  47.675  41.434  1.00  0.00    -0.048 Br
HETATM   14  C   UNL     1      30.425  48.019  40.482  1.00  0.00     0.022 A 
HETATM   15  C   UNL     1      29.149  48.572  40.436  1.00  0.00     0.002 A 
HETATM   16  C   UNL     1      28.798  49.578  41.334  1.00  0.00     0.003 A 
HETATM   17  C   UNL     1      29.720  50.031  42.284  1.00  0.00     0.038 A 
ENDBRANCH  10  11
ENDBRANCH   8  10
ENDBRANCH   7   8
ENDBRANCH   3   7
BRANCH   1  18
HETATM   18  C   UNL     1      31.130  51.921  39.410  1.00  0.00     0.059 A 
HETATM   19  C   UNL     1      30.101  52.779  39.829  1.00  0.00    -0.032 A 
HETATM   20  C   UNL     1      30.019  53.421  41.185  1.00  0.00     0.050 C 
HETATM   21  C   UNL     1      29.059  53.055  38.926  1.00  0.00     0.028 A 
HETATM   22  C   UNL     1      29.041  52.435  37.687  1.00  0.00     0.117 A 
HETATM   23  N   UNL     1      29.977  51.559  37.281  1.00  0.00    -0.271 NA
HETATM   24  C   UNL     1      30.992  51.330  38.147  1.00  0.00     0.146 A 
ENDBRANCH   1  18
TORSDOF 5
ENDMDL
