MODEL 1
REMARK VINA RESULT:      -7.3      0.000      0.000
REMARK  9 active torsions:
REMARK  status: ('A' for Active; 'I' for Inactive)
REMARK    1  A    between atoms: C_2  and  N_3 
REMARK       I    between atoms: N_3  and  C_4 
REMARK    2  A    between atoms: C_4  and  C_5 
REMARK    3  A    between atoms: C_5  and  S_6 
REMARK    4  A    between atoms: S_6  and  C_7 
REMARK    5  A    between atoms: N_8  and  C_9 
REMARK    6  A    between atoms: C_9  and  C_10 
REMARK    7  A    between atoms: C_10  and  C_11 
REMARK    8  A    between atoms: C_17  and  C_18 
REMARK    9  A    between atoms: C_21  and  O_22 
ROOT
HETATM    1  C   UNL     1      22.965  47.882  49.247  1.00  0.00     0.192 A 
HETATM    2  N   UNL     1      21.656  48.258  49.088  1.00  0.00    -0.307 N 
HETATM    3  C   UNL     1      21.620  49.608  49.400  1.00  0.00     0.164 A 
HETATM    4  N   UNL     1      22.856  49.994  49.680  1.00  0.00    -0.128 NA
HETATM    5  N   UNL     1      23.691  48.918  49.580  1.00  0.00    -0.122 NA
ENDROOT
BRANCH   1   6
HETATM    6  S   UNL     1      23.558  46.274  49.016  1.00  0.00    -0.081 SA
BRANCH   6   7
HETATM    7  C   UNL     1      24.860  46.185  50.277  1.00  0.00     0.185 C 
BRANCH   7   8
HETATM    8  C   UNL     1      26.214  46.585  49.713  1.00  0.00     0.227 C 
HETATM    9  N   UNL     1      26.426  47.947  49.663  1.00  0.00    -0.361 N 
HETATM   10  H   UNL     1      25.878  48.516  50.308  1.00  0.00     0.162 HD
HETATM   11  O   UNL     1      27.028  45.756  49.315  1.00  0.00    -0.273 OA
BRANCH   9  12
HETATM   12  C   UNL     1      27.675  48.512  49.199  1.00  0.00     0.118 C 
HETATM   13  C   UNL     1      27.510  49.950  48.743  1.00  0.00     0.026 C 
ENDBRANCH   9  12
ENDBRANCH   7   8
ENDBRANCH   6   7
ENDBRANCH   1   6
BRANCH   2  14
HETATM   14  C   UNL     1      20.588  47.450  48.531  1.00  0.00     0.137 C 
BRANCH  14  15
HETATM   15  C   UNL     1      20.262  47.793  47.076  1.00  0.00     0.059 C 
BRANCH  15  16
HETATM   16  C   UNL     1      18.940  48.514  46.968  1.00  0.00    -0.057 A 
HETATM   17  C   UNL     1      18.781  49.563  46.050  1.00  0.00     0.007 A 
HETATM   18  C   UNL     1      17.570  50.250  45.967  1.00  0.00     0.001 A 
HETATM   19  C   UNL     1      16.508  49.898  46.798  1.00  0.00     0.000 A 
HETATM   20  C   UNL     1      16.656  48.857  47.712  1.00  0.00     0.001 A 
HETATM   21  C   UNL     1      17.868  48.168  47.799  1.00  0.00     0.007 A 
ENDBRANCH  15  16
ENDBRANCH  14  15
ENDBRANCH   2  14
BRANCH   3  22
HETATM   22  C   UNL     1      20.472  50.519  49.375  1.00  0.00     0.012 A 
HETATM   23  C   UNL     1      20.368  51.598  48.492  1.00  0.00     0.018 A 
HETATM   24  C   UNL     1      19.230  52.412  48.492  1.00  0.00     0.037 A 
HETATM   25  C   UNL     1      18.161  52.147  49.349  1.00  0.00     0.068 A 
HETATM   26  C   UNL     1      18.246  51.069  50.225  1.00  0.00     0.037 A 
HETATM   27  C   UNL     1      19.392  50.263  50.233  1.00  0.00     0.018 A 
BRANCH  25  28
HETATM   28  O   UNL     1      17.103  53.006  49.233  1.00  0.00    -0.356 OA
HETATM   29  C   UNL     1      15.840  52.522  49.674  1.00  0.00     0.210 C 
ENDBRANCH  25  28
ENDBRANCH   3  22
TORSDOF 9
ENDMDL
MODEL 2
REMARK VINA RESULT:      -7.1      1.420      2.421
REMARK  9 active torsions:
REMARK  status: ('A' for Active; 'I' for Inactive)
REMARK    1  A    between atoms: C_2  and  N_3 
REMARK       I    between atoms: N_3  and  C_4 
REMARK    2  A    between atoms: C_4  and  C_5 
REMARK    3  A    between atoms: C_5  and  S_6 
REMARK    4  A    between atoms: S_6  and  C_7 
REMARK    5  A    between atoms: N_8  and  C_9 
REMARK    6  A    between atoms: C_9  and  C_10 
REMARK    7  A    between atoms: C_10  and  C_11 
REMARK    8  A    between atoms: C_17  and  C_18 
REMARK    9  A    between atoms: C_21  and  O_22 
ROOT
HETATM    1  C   UNL     1      23.112  48.520  49.406  1.00  0.00     0.192 A 
HETATM    2  N   UNL     1      21.762  48.687  49.225  1.00  0.00    -0.307 N 
HETATM    3  C   UNL     1      21.525  50.033  49.452  1.00  0.00     0.164 A 
HETATM    4  N   UNL     1      22.688  50.615  49.704  1.00  0.00    -0.128 NA
HETATM    5  N   UNL     1      23.674  49.671  49.671  1.00  0.00    -0.122 NA
ENDROOT
BRANCH   1   6
HETATM    6  S   UNL     1      23.937  47.006  49.276  1.00  0.00    -0.081 SA
BRANCH   6   7
HETATM    7  C   UNL     1      25.563  47.422  49.967  1.00  0.00     0.185 C 
BRANCH   7   8
HETATM    8  C   UNL     1      25.685  46.980  51.417  1.00  0.00     0.227 C 
HETATM    9  N   UNL     1      26.294  45.754  51.585  1.00  0.00    -0.361 N 
HETATM   10  H   UNL     1      26.911  45.446  50.834  1.00  0.00     0.162 HD
HETATM   11  O   UNL     1      25.248  47.654  52.346  1.00  0.00    -0.273 OA
BRANCH   9  12
HETATM   12  C   UNL     1      26.538  45.193  52.897  1.00  0.00     0.118 C 
HETATM   13  C   UNL     1      25.394  44.305  53.353  1.00  0.00     0.026 C 
ENDBRANCH   9  12
ENDBRANCH   7   8
ENDBRANCH   6   7
ENDBRANCH   1   6
BRANCH   2  14
HETATM   14  C   UNL     1      20.830  47.696  48.723  1.00  0.00     0.137 C 
BRANCH  14  15
HETATM   15  C   UNL     1      20.465  47.898  47.251  1.00  0.00     0.059 C 
BRANCH  15  16
HETATM   16  C   UNL     1      19.090  48.505  47.108  1.00  0.00    -0.057 A 
HETATM   17  C   UNL     1      18.033  48.058  47.915  1.00  0.00     0.007 A 
HETATM   18  C   UNL     1      16.755  48.595  47.767  1.00  0.00     0.001 A 
HETATM   19  C   UNL     1      16.519  49.584  46.813  1.00  0.00     0.000 A 
HETATM   20  C   UNL     1      17.562  50.035  46.007  1.00  0.00     0.001 A 
HETATM   21  C   UNL     1      18.843  49.497  46.152  1.00  0.00     0.007 A 
ENDBRANCH  15  16
ENDBRANCH  14  15
ENDBRANCH   2  14
BRANCH   3  22
HETATM   22  C   UNL     1      20.255  50.761  49.371  1.00  0.00     0.012 A 
HETATM   23  C   UNL     1      19.167  50.500  50.209  1.00  0.00     0.018 A 
HETATM   24  C   UNL     1      17.992  51.253  50.108  1.00  0.00     0.037 A 
HETATM   25  C   UNL     1      17.891  52.301  49.191  1.00  0.00     0.068 A 
HETATM   26  C   UNL     1      18.971  52.580  48.359  1.00  0.00     0.037 A 
HETATM   27  C   UNL     1      20.142  51.817  48.453  1.00  0.00     0.018 A 
BRANCH  25  28
HETATM   28  O   UNL     1      16.698  52.969  49.209  1.00  0.00    -0.356 OA
HETATM   29  C   UNL     1      15.546  52.204  49.544  1.00  0.00     0.210 C 
ENDBRANCH  25  28
ENDBRANCH   3  22
TORSDOF 9
ENDMDL
MODEL 3
REMARK VINA RESULT:      -7.1      8.166     10.907
REMARK  9 active torsions:
REMARK  status: ('A' for Active; 'I' for Inactive)
REMARK    1  A    between atoms: C_2  and  N_3 
REMARK       I    between atoms: N_3  and  C_4 
REMARK    2  A    between atoms: C_4  and  C_5 
REMARK    3  A    between atoms: C_5  and  S_6 
REMARK    4  A    between atoms: S_6  and  C_7 
REMARK    5  A    between atoms: N_8  and  C_9 
REMARK    6  A    between atoms: C_9  and  C_10 
REMARK    7  A    between atoms: C_10  and  C_11 
REMARK    8  A    between atoms: C_17  and  C_18 
REMARK    9  A    between atoms: C_21  and  O_22 
ROOT
HETATM    1  C   UNL     1      27.085  41.427  50.810  1.00  0.00     0.192 A 
HETATM    2  N   UNL     1      27.472  42.526  51.535  1.00  0.00    -0.307 N 
HETATM    3  C   UNL     1      26.329  43.298  51.671  1.00  0.00     0.164 A 
HETATM    4  N   UNL     1      25.329  42.651  51.092  1.00  0.00    -0.128 NA
HETATM    5  N   UNL     1      25.801  41.486  50.560  1.00  0.00    -0.122 NA
ENDROOT
BRANCH   1   6
HETATM    6  S   UNL     1      28.144  40.150  50.324  1.00  0.00    -0.081 SA
BRANCH   6   7
HETATM    7  C   UNL     1      28.372  40.521  48.562  1.00  0.00     0.185 C 
BRANCH   7   8
HETATM    8  C   UNL     1      27.146  40.141  47.747  1.00  0.00     0.227 C 
HETATM    9  N   UNL     1      26.387  41.216  47.331  1.00  0.00    -0.361 N 
HETATM   10  H   UNL     1      26.868  42.114  47.268  1.00  0.00     0.162 HD
HETATM   11  O   UNL     1      26.853  38.972  47.511  1.00  0.00    -0.273 OA
BRANCH   9  12
HETATM   12  C   UNL     1      25.210  41.050  46.506  1.00  0.00     0.118 C 
HETATM   13  C   UNL     1      23.940  41.012  47.337  1.00  0.00     0.026 C 
ENDBRANCH   9  12
ENDBRANCH   7   8
ENDBRANCH   6   7
ENDBRANCH   1   6
BRANCH   2  14
HETATM   14  C   UNL     1      28.758  42.728  52.173  1.00  0.00     0.137 C 
BRANCH  14  15
HETATM   15  C   UNL     1      28.800  42.240  53.622  1.00  0.00     0.059 C 
BRANCH  15  16
HETATM   16  C   UNL     1      29.436  43.268  54.526  1.00  0.00    -0.057 A 
HETATM   17  C   UNL     1      30.523  42.917  55.339  1.00  0.00     0.007 A 
HETATM   18  C   UNL     1      31.096  43.856  56.197  1.00  0.00     0.001 A 
HETATM   19  C   UNL     1      30.589  45.153  56.251  1.00  0.00     0.000 A 
HETATM   20  C   UNL     1      29.510  45.512  55.447  1.00  0.00     0.001 A 
HETATM   21  C   UNL     1      28.933  44.573  54.589  1.00  0.00     0.007 A 
ENDBRANCH  15  16
ENDBRANCH  14  15
ENDBRANCH   2  14
BRANCH   3  22
HETATM   22  C   UNL     1      26.170  44.572  52.377  1.00  0.00     0.012 A 
HETATM   23  C   UNL     1      26.336  45.816  51.762  1.00  0.00     0.018 A 
HETATM   24  C   UNL     1      26.135  47.000  52.481  1.00  0.00     0.037 A 
HETATM   25  C   UNL     1      25.734  46.966  53.818  1.00  0.00     0.068 A 
HETATM   26  C   UNL     1      25.554  45.734  54.439  1.00  0.00     0.037 A 
HETATM   27  C   UNL     1      25.767  44.550  53.722  1.00  0.00     0.018 A 
BRANCH  25  28
HETATM   28  O   UNL     1      25.553  48.191  54.396  1.00  0.00    -0.356 OA
HETATM   29  C   UNL     1      26.390  48.501  55.505  1.00  0.00     0.210 C 
ENDBRANCH  25  28
ENDBRANCH   3  22
TORSDOF 9
ENDMDL
MODEL 4
REMARK VINA RESULT:      -7.1      9.768     13.957
REMARK  9 active torsions:
REMARK  status: ('A' for Active; 'I' for Inactive)
REMARK    1  A    between atoms: C_2  and  N_3 
REMARK       I    between atoms: N_3  and  C_4 
REMARK    2  A    between atoms: C_4  and  C_5 
REMARK    3  A    between atoms: C_5  and  S_6 
REMARK    4  A    between atoms: S_6  and  C_7 
REMARK    5  A    between atoms: N_8  and  C_9 
REMARK    6  A    between atoms: C_9  and  C_10 
REMARK    7  A    between atoms: C_10  and  C_11 
REMARK    8  A    between atoms: C_17  and  C_18 
REMARK    9  A    between atoms: C_21  and  O_22 
ROOT
HETATM    1  C   UNL     1      26.499  49.881  38.964  1.00  0.00     0.192 A 
HETATM    2  N   UNL     1      27.637  50.035  39.715  1.00  0.00    -0.307 N 
HETATM    3  C   UNL     1      28.490  50.799  38.936  1.00  0.00     0.164 A 
HETATM    4  N   UNL     1      27.855  51.106  37.816  1.00  0.00    -0.128 NA
HETATM    5  N   UNL     1      26.615  50.536  37.837  1.00  0.00    -0.122 NA
ENDROOT
BRANCH   1   6
HETATM    6  S   UNL     1      25.115  48.971  39.458  1.00  0.00    -0.081 SA
BRANCH   6   7
HETATM    7  C   UNL     1      23.991  49.234  38.058  1.00  0.00     0.185 C 
BRANCH   7   8
HETATM    8  C   UNL     1      22.787  50.073  38.456  1.00  0.00     0.227 C 
HETATM    9  N   UNL     1      22.893  50.661  39.699  1.00  0.00    -0.361 N 
HETATM   10  H   UNL     1      23.838  50.801  40.056  1.00  0.00     0.162 HD
HETATM   11  O   UNL     1      21.800  50.185  37.734  1.00  0.00    -0.273 OA
BRANCH   9  12
HETATM   12  C   UNL     1      21.864  51.532  40.225  1.00  0.00     0.118 C 
HETATM   13  C   UNL     1      20.845  50.767  41.051  1.00  0.00     0.026 C 
ENDBRANCH   9  12
ENDBRANCH   7   8
ENDBRANCH   6   7
ENDBRANCH   1   6
BRANCH   2  14
HETATM   14  C   UNL     1      27.819  49.635  41.097  1.00  0.00     0.137 C 
BRANCH  14  15
HETATM   15  C   UNL     1      28.530  48.290  41.252  1.00  0.00     0.059 C 
BRANCH  15  16
HETATM   16  C   UNL     1      30.020  48.475  41.407  1.00  0.00    -0.057 A 
HETATM   17  C   UNL     1      30.910  47.716  40.632  1.00  0.00     0.007 A 
HETATM   18  C   UNL     1      32.288  47.863  40.792  1.00  0.00     0.001 A 
HETATM   19  C   UNL     1      32.790  48.769  41.726  1.00  0.00     0.000 A 
HETATM   20  C   UNL     1      31.914  49.527  42.500  1.00  0.00     0.001 A 
HETATM   21  C   UNL     1      30.534  49.380  42.343  1.00  0.00     0.007 A 
ENDBRANCH  15  16
ENDBRANCH  14  15
ENDBRANCH   2  14
BRANCH   3  22
HETATM   22  C   UNL     1      29.837  51.280  39.262  1.00  0.00     0.012 A 
HETATM   23  C   UNL     1      30.996  50.771  38.671  1.00  0.00     0.018 A 
HETATM   24  C   UNL     1      32.253  51.295  38.997  1.00  0.00     0.037 A 
HETATM   25  C   UNL     1      32.373  52.357  39.896  1.00  0.00     0.068 A 
HETATM   26  C   UNL     1      31.225  52.881  40.483  1.00  0.00     0.037 A 
HETATM   27  C   UNL     1      29.970  52.347  40.164  1.00  0.00     0.018 A 
BRANCH  25  28
HETATM   28  O   UNL     1      33.652  52.787  40.111  1.00  0.00    -0.356 OA
HETATM   29  C   UNL     1      34.696  51.928  39.665  1.00  0.00     0.210 C 
ENDBRANCH  25  28
ENDBRANCH   3  22
TORSDOF 9
ENDMDL
MODEL 5
REMARK VINA RESULT:      -7.0      4.813     11.116
REMARK  9 active torsions:
REMARK  status: ('A' for Active; 'I' for Inactive)
REMARK    1  A    between atoms: C_2  and  N_3 
REMARK       I    between atoms: N_3  and  C_4 
REMARK    2  A    between atoms: C_4  and  C_5 
REMARK    3  A    between atoms: C_5  and  S_6 
REMARK    4  A    between atoms: S_6  and  C_7 
REMARK    5  A    between atoms: N_8  and  C_9 
REMARK    6  A    between atoms: C_9  and  C_10 
REMARK    7  A    between atoms: C_10  and  C_11 
REMARK    8  A    between atoms: C_17  and  C_18 
REMARK    9  A    between atoms: C_21  and  O_22 
ROOT
HETATM    1  C   UNL     1      24.762  45.532  49.651  1.00  0.00     0.192 A 
HETATM    2  N   UNL     1      25.706  44.647  50.105  1.00  0.00    -0.307 N 
HETATM    3  C   UNL     1      25.441  43.456  49.448  1.00  0.00     0.164 A 
HETATM    4  N   UNL     1      24.424  43.663  48.625  1.00  0.00    -0.128 NA
HETATM    5  N   UNL     1      24.005  44.956  48.751  1.00  0.00    -0.122 NA
ENDROOT
BRANCH   1   6
HETATM    6  S   UNL     1      24.618  47.171  50.182  1.00  0.00    -0.081 SA
BRANCH   6   7
HETATM    7  C   UNL     1      23.263  47.772  49.136  1.00  0.00     0.185 C 
BRANCH   7   8
HETATM    8  C   UNL     1      22.986  49.248  49.372  1.00  0.00     0.227 C 
HETATM    9  N   UNL     1      21.668  49.538  49.659  1.00  0.00    -0.361 N 
HETATM   10  H   UNL     1      21.109  48.776  50.043  1.00  0.00     0.162 HD
HETATM   11  O   UNL     1      23.865  50.102  49.284  1.00  0.00    -0.273 OA
BRANCH   9  12
HETATM   12  C   UNL     1      21.226  50.883  49.957  1.00  0.00     0.118 C 
HETATM   13  C   UNL     1      20.264  51.408  48.908  1.00  0.00     0.026 C 
ENDBRANCH   9  12
ENDBRANCH   7   8
ENDBRANCH   6   7
ENDBRANCH   1   6
BRANCH   2  14
HETATM   14  C   UNL     1      26.844  44.958  50.948  1.00  0.00     0.137 C 
BRANCH  14  15
HETATM   15  C   UNL     1      26.647  44.549  52.409  1.00  0.00     0.059 C 
BRANCH  15  16
HETATM   16  C   UNL     1      27.937  44.052  53.015  1.00  0.00    -0.057 A 
HETATM   17  C   UNL     1      28.743  43.143  52.314  1.00  0.00     0.007 A 
HETATM   18  C   UNL     1      29.922  42.659  52.882  1.00  0.00     0.001 A 
HETATM   19  C   UNL     1      30.307  43.078  54.154  1.00  0.00     0.000 A 
HETATM   20  C   UNL     1      29.513  43.981  54.859  1.00  0.00     0.001 A 
HETATM   21  C   UNL     1      28.332  44.465  54.294  1.00  0.00     0.007 A 
ENDBRANCH  15  16
ENDBRANCH  14  15
ENDBRANCH   2  14
BRANCH   3  22
HETATM   22  C   UNL     1      26.160  42.183  49.544  1.00  0.00     0.012 A 
HETATM   23  C   UNL     1      27.213  41.830  48.695  1.00  0.00     0.018 A 
HETATM   24  C   UNL     1      27.885  40.614  48.859  1.00  0.00     0.037 A 
HETATM   25  C   UNL     1      27.541  39.740  49.891  1.00  0.00     0.068 A 
HETATM   26  C   UNL     1      26.503  40.084  50.751  1.00  0.00     0.037 A 
HETATM   27  C   UNL     1      25.822  41.296  50.578  1.00  0.00     0.018 A 
BRANCH  25  28
HETATM   28  O   UNL     1      28.289  38.597  49.952  1.00  0.00    -0.356 OA
HETATM   29  C   UNL     1      28.724  38.055  48.711  1.00  0.00     0.210 C 
ENDBRANCH  25  28
ENDBRANCH   3  22
TORSDOF 9
ENDMDL
MODEL 6
REMARK VINA RESULT:      -7.0      4.911     11.081
REMARK  9 active torsions:
REMARK  status: ('A' for Active; 'I' for Inactive)
REMARK    1  A    between atoms: C_2  and  N_3 
REMARK       I    between atoms: N_3  and  C_4 
REMARK    2  A    between atoms: C_4  and  C_5 
REMARK    3  A    between atoms: C_5  and  S_6 
REMARK    4  A    between atoms: S_6  and  C_7 
REMARK    5  A    between atoms: N_8  and  C_9 
REMARK    6  A    between atoms: C_9  and  C_10 
REMARK    7  A    between atoms: C_10  and  C_11 
REMARK    8  A    between atoms: C_17  and  C_18 
REMARK    9  A    between atoms: C_21  and  O_22 
ROOT
HETATM    1  C   UNL     1      25.075  45.628  49.961  1.00  0.00     0.192 A 
HETATM    2  N   UNL     1      25.965  44.642  50.303  1.00  0.00    -0.307 N 
HETATM    3  C   UNL     1      25.585  43.532  49.566  1.00  0.00     0.164 A 
HETATM    4  N   UNL     1      24.558  43.879  48.806  1.00  0.00    -0.128 NA
HETATM    5  N   UNL     1      24.245  45.185  49.051  1.00  0.00    -0.122 NA
ENDROOT
BRANCH   1   6
HETATM    6  S   UNL     1      25.076  47.224  50.626  1.00  0.00    -0.081 SA
BRANCH   6   7
HETATM    7  C   UNL     1      26.359  48.030  49.629  1.00  0.00     0.185 C 
BRANCH   7   8
HETATM    8  C   UNL     1      25.778  49.124  48.747  1.00  0.00     0.227 C 
HETATM    9  N   UNL     1      24.402  49.107  48.657  1.00  0.00    -0.361 N 
HETATM   10  H   UNL     1      23.902  48.656  49.423  1.00  0.00     0.162 HD
HETATM   11  O   UNL     1      26.488  49.930  48.150  1.00  0.00    -0.273 OA
BRANCH   9  12
HETATM   12  C   UNL     1      23.671  50.100  47.899  1.00  0.00     0.118 C 
HETATM   13  C   UNL     1      22.956  51.087  48.804  1.00  0.00     0.026 C 
ENDBRANCH   9  12
ENDBRANCH   7   8
ENDBRANCH   6   7
ENDBRANCH   1   6
BRANCH   2  14
HETATM   14  C   UNL     1      27.153  44.799  51.120  1.00  0.00     0.137 C 
BRANCH  14  15
HETATM   15  C   UNL     1      26.926  44.459  52.594  1.00  0.00     0.059 C 
BRANCH  15  16
HETATM   16  C   UNL     1      28.205  44.003  53.252  1.00  0.00    -0.057 A 
HETATM   17  C   UNL     1      29.061  43.110  52.590  1.00  0.00     0.007 A 
HETATM   18  C   UNL     1      30.231  42.664  53.206  1.00  0.00     0.001 A 
HETATM   19  C   UNL     1      30.557  43.105  54.488  1.00  0.00     0.000 A 
HETATM   20  C   UNL     1      29.713  43.992  55.153  1.00  0.00     0.001 A 
HETATM   21  C   UNL     1      28.541  44.439  54.540  1.00  0.00     0.007 A 
ENDBRANCH  15  16
ENDBRANCH  14  15
ENDBRANCH   2  14
BRANCH   3  22
HETATM   22  C   UNL     1      26.208  42.206  49.530  1.00  0.00     0.012 A 
HETATM   23  C   UNL     1      27.142  41.822  48.563  1.00  0.00     0.018 A 
HETATM   24  C   UNL     1      27.729  40.552  48.602  1.00  0.00     0.037 A 
HETATM   25  C   UNL     1      27.421  39.653  49.624  1.00  0.00     0.068 A 
HETATM   26  C   UNL     1      26.502  40.026  50.600  1.00  0.00     0.037 A 
HETATM   27  C   UNL     1      25.905  41.293  50.552  1.00  0.00     0.018 A 
BRANCH  25  28
HETATM   28  O   UNL     1      28.079  38.457  49.556  1.00  0.00    -0.356 OA
HETATM   29  C   UNL     1      29.429  38.498  49.108  1.00  0.00     0.210 C 
ENDBRANCH  25  28
ENDBRANCH   3  22
TORSDOF 9
ENDMDL
MODEL 7
REMARK VINA RESULT:      -6.9      1.866      3.559
REMARK  9 active torsions:
REMARK  status: ('A' for Active; 'I' for Inactive)
REMARK    1  A    between atoms: C_2  and  N_3 
REMARK       I    between atoms: N_3  and  C_4 
REMARK    2  A    between atoms: C_4  and  C_5 
REMARK    3  A    between atoms: C_5  and  S_6 
REMARK    4  A    between atoms: S_6  and  C_7 
REMARK    5  A    between atoms: N_8  and  C_9 
REMARK    6  A    between atoms: C_9  and  C_10 
REMARK    7  A    between atoms: C_10  and  C_11 
REMARK    8  A    between atoms: C_17  and  C_18 
REMARK    9  A    between atoms: C_21  and  O_22 
ROOT
HETATM    1  C   UNL     1      23.396  47.818  48.918  1.00  0.00     0.192 A 
HETATM    2  N   UNL     1      22.215  48.513  48.968  1.00  0.00    -0.307 N 
HETATM    3  C   UNL     1      21.231  47.590  48.654  1.00  0.00     0.164 A 
HETATM    4  N   UNL     1      21.816  46.415  48.478  1.00  0.00    -0.128 NA
HETATM    5  N   UNL     1      23.163  46.559  48.646  1.00  0.00    -0.122 NA
ENDROOT
BRANCH   1   6
HETATM    6  S   UNL     1      24.955  48.512  49.197  1.00  0.00    -0.081 SA
BRANCH   6   7
HETATM    7  C   UNL     1      25.628  47.393  50.456  1.00  0.00     0.185 C 
BRANCH   7   8
HETATM    8  C   UNL     1      26.329  46.199  49.827  1.00  0.00     0.227 C 
HETATM    9  N   UNL     1      25.681  44.996  50.019  1.00  0.00    -0.361 N 
HETATM   10  H   UNL     1      24.680  45.045  50.209  1.00  0.00     0.162 HD
HETATM   11  O   UNL     1      27.395  46.307  49.225  1.00  0.00    -0.273 OA
BRANCH   9  12
HETATM   12  C   UNL     1      26.176  43.760  49.453  1.00  0.00     0.118 C 
HETATM   13  C   UNL     1      27.075  43.014  50.423  1.00  0.00     0.026 C 
ENDBRANCH   9  12
ENDBRANCH   7   8
ENDBRANCH   6   7
ENDBRANCH   1   6
BRANCH   2  14
HETATM   14  C   UNL     1      22.035  49.875  49.434  1.00  0.00     0.137 C 
BRANCH  14  15
HETATM   15  C   UNL     1      21.636  50.849  48.324  1.00  0.00     0.059 C 
BRANCH  15  16
HETATM   16  C   UNL     1      20.204  51.298  48.481  1.00  0.00    -0.057 A 
HETATM   17  C   UNL     1      19.381  51.441  47.354  1.00  0.00     0.007 A 
HETATM   18  C   UNL     1      18.065  51.884  47.492  1.00  0.00     0.001 A 
HETATM   19  C   UNL     1      17.558  52.187  48.755  1.00  0.00     0.000 A 
HETATM   20  C   UNL     1      18.368  52.047  49.880  1.00  0.00     0.001 A 
HETATM   21  C   UNL     1      19.686  51.607  49.746  1.00  0.00     0.007 A 
ENDBRANCH  15  16
ENDBRANCH  14  15
ENDBRANCH   2  14
BRANCH   3  22
HETATM   22  C   UNL     1      19.781  47.792  48.584  1.00  0.00     0.012 A 
HETATM   23  C   UNL     1      18.977  47.980  49.711  1.00  0.00     0.018 A 
HETATM   24  C   UNL     1      17.602  48.204  49.578  1.00  0.00     0.037 A 
HETATM   25  C   UNL     1      17.008  48.275  48.317  1.00  0.00     0.068 A 
HETATM   26  C   UNL     1      17.798  48.101  47.186  1.00  0.00     0.037 A 
HETATM   27  C   UNL     1      19.172  47.865  47.321  1.00  0.00     0.018 A 
BRANCH  25  28
HETATM   28  O   UNL     1      15.663  48.519  48.328  1.00  0.00    -0.356 OA
HETATM   29  C   UNL     1      15.049  48.756  47.066  1.00  0.00     0.210 C 
ENDBRANCH  25  28
ENDBRANCH   3  22
TORSDOF 9
ENDMDL
MODEL 8
REMARK VINA RESULT:      -6.8     11.218     12.915
REMARK  9 active torsions:
REMARK  status: ('A' for Active; 'I' for Inactive)
REMARK    1  A    between atoms: C_2  and  N_3 
REMARK       I    between atoms: N_3  and  C_4 
REMARK    2  A    between atoms: C_4  and  C_5 
REMARK    3  A    between atoms: C_5  and  S_6 
REMARK    4  A    between atoms: S_6  and  C_7 
REMARK    5  A    between atoms: N_8  and  C_9 
REMARK    6  A    between atoms: C_9  and  C_10 
REMARK    7  A    between atoms: C_10  and  C_11 
REMARK    8  A    between atoms: C_17  and  C_18 
REMARK    9  A    between atoms: C_21  and  O_22 
ROOT
HETATM    1  C   UNL     1      31.542  51.800  42.717  1.00  0.00     0.192 A 
HETATM    2  N   UNL     1      30.675  50.909  42.136  1.00  0.00    -0.307 N 
HETATM    3  C   UNL     1      29.979  51.640  41.187  1.00  0.00     0.164 A 
HETATM    4  N   UNL     1      30.456  52.875  41.193  1.00  0.00    -0.128 NA
HETATM    5  N   UNL     1      31.431  52.971  42.143  1.00  0.00    -0.122 NA
ENDROOT
BRANCH   1   6
HETATM    6  S   UNL     1      32.632  51.411  44.002  1.00  0.00    -0.081 SA
BRANCH   6   7
HETATM    7  C   UNL     1      34.239  51.718  43.218  1.00  0.00     0.185 C 
BRANCH   7   8
HETATM    8  C   UNL     1      34.307  51.114  41.824  1.00  0.00     0.227 C 
HETATM    9  N   UNL     1      34.151  52.028  40.803  1.00  0.00    -0.361 N 
HETATM   10  H   UNL     1      34.375  52.999  41.023  1.00  0.00     0.162 HD
HETATM   11  O   UNL     1      34.460  49.909  41.639  1.00  0.00    -0.273 OA
BRANCH   9  12
HETATM   12  C   UNL     1      34.232  51.643  39.410  1.00  0.00     0.118 C 
HETATM   13  C   UNL     1      32.858  51.436  38.800  1.00  0.00     0.026 C 
ENDBRANCH   9  12
ENDBRANCH   7   8
ENDBRANCH   6   7
ENDBRANCH   1   6
BRANCH   2  14
HETATM   14  C   UNL     1      30.640  49.476  42.351  1.00  0.00     0.137 C 
BRANCH  14  15
HETATM   15  C   UNL     1      31.308  48.677  41.231  1.00  0.00     0.059 C 
BRANCH  15  16
HETATM   16  C   UNL     1      30.282  47.963  40.384  1.00  0.00    -0.057 A 
HETATM   17  C   UNL     1      29.069  47.544  40.948  1.00  0.00     0.007 A 
HETATM   18  C   UNL     1      28.130  46.858  40.177  1.00  0.00     0.001 A 
HETATM   19  C   UNL     1      28.394  46.585  38.835  1.00  0.00     0.000 A 
HETATM   20  C   UNL     1      29.597  46.997  38.266  1.00  0.00     0.001 A 
HETATM   21  C   UNL     1      30.539  47.682  39.036  1.00  0.00     0.007 A 
ENDBRANCH  15  16
ENDBRANCH  14  15
ENDBRANCH   2  14
BRANCH   3  22
HETATM   22  C   UNL     1      28.943  51.176  40.260  1.00  0.00     0.012 A 
HETATM   23  C   UNL     1      29.147  51.043  38.884  1.00  0.00     0.018 A 
HETATM   24  C   UNL     1      28.129  50.560  38.054  1.00  0.00     0.037 A 
HETATM   25  C   UNL     1      26.898  50.171  38.585  1.00  0.00     0.068 A 
HETATM   26  C   UNL     1      26.685  50.286  39.955  1.00  0.00     0.037 A 
HETATM   27  C   UNL     1      27.701  50.782  40.783  1.00  0.00     0.018 A 
BRANCH  25  28
HETATM   28  O   UNL     1      26.000  49.698  37.670  1.00  0.00    -0.356 OA
HETATM   29  C   UNL     1      24.830  49.075  38.189  1.00  0.00     0.210 C 
ENDBRANCH  25  28
ENDBRANCH   3  22
TORSDOF 9
ENDMDL
MODEL 9
REMARK VINA RESULT:      -6.8     10.709     12.708
REMARK  9 active torsions:
REMARK  status: ('A' for Active; 'I' for Inactive)
REMARK    1  A    between atoms: C_2  and  N_3 
REMARK       I    between atoms: N_3  and  C_4 
REMARK    2  A    between atoms: C_4  and  C_5 
REMARK    3  A    between atoms: C_5  and  S_6 
REMARK    4  A    between atoms: S_6  and  C_7 
REMARK    5  A    between atoms: N_8  and  C_9 
REMARK    6  A    between atoms: C_9  and  C_10 
REMARK    7  A    between atoms: C_10  and  C_11 
REMARK    8  A    between atoms: C_17  and  C_18 
REMARK    9  A    between atoms: C_21  and  O_22 
ROOT
HETATM    1  C   UNL     1      28.383  46.287  39.971  1.00  0.00     0.192 A 
HETATM    2  N   UNL     1      28.576  47.489  40.604  1.00  0.00    -0.307 N 
HETATM    3  C   UNL     1      29.948  47.681  40.617  1.00  0.00     0.164 A 
HETATM    4  N   UNL     1      30.509  46.663  39.984  1.00  0.00    -0.128 NA
HETATM    5  N   UNL     1      29.532  45.799  39.580  1.00  0.00    -0.122 NA
ENDROOT
BRANCH   1   6
HETATM    6  S   UNL     1      26.840  45.550  39.716  1.00  0.00    -0.081 SA
BRANCH   6   7
HETATM    7  C   UNL     1      27.315  43.837  39.351  1.00  0.00     0.185 C 
BRANCH   7   8
HETATM    8  C   UNL     1      27.593  43.050  40.621  1.00  0.00     0.227 C 
HETATM    9  N   UNL     1      26.607  43.155  41.580  1.00  0.00    -0.361 N 
HETATM   10  H   UNL     1      25.675  43.405  41.248  1.00  0.00     0.162 HD
HETATM   11  O   UNL     1      28.625  42.403  40.778  1.00  0.00    -0.273 OA
BRANCH   9  12
HETATM   12  C   UNL     1      26.678  42.438  42.835  1.00  0.00     0.118 C 
HETATM   13  C   UNL     1      25.317  42.320  43.496  1.00  0.00     0.026 C 
ENDBRANCH   9  12
ENDBRANCH   7   8
ENDBRANCH   6   7
ENDBRANCH   1   6
BRANCH   2  14
HETATM   14  C   UNL     1      27.546  48.430  40.999  1.00  0.00     0.137 C 
BRANCH  14  15
HETATM   15  C   UNL     1      27.137  49.388  39.879  1.00  0.00     0.059 C 
BRANCH  15  16
HETATM   16  C   UNL     1      27.792  50.737  40.048  1.00  0.00    -0.057 A 
HETATM   17  C   UNL     1      28.209  51.466  38.924  1.00  0.00     0.007 A 
HETATM   18  C   UNL     1      28.841  52.700  39.076  1.00  0.00     0.001 A 
HETATM   19  C   UNL     1      29.062  53.219  40.351  1.00  0.00     0.000 A 
HETATM   20  C   UNL     1      28.652  52.503  41.474  1.00  0.00     0.001 A 
HETATM   21  C   UNL     1      28.021  51.266  41.325  1.00  0.00     0.007 A 
ENDBRANCH  15  16
ENDBRANCH  14  15
ENDBRANCH   2  14
BRANCH   3  22
HETATM   22  C   UNL     1      30.704  48.818  41.153  1.00  0.00     0.012 A 
HETATM   23  C   UNL     1      30.949  49.001  42.517  1.00  0.00     0.018 A 
HETATM   24  C   UNL     1      31.708  50.088  42.966  1.00  0.00     0.037 A 
HETATM   25  C   UNL     1      32.263  50.995  42.061  1.00  0.00     0.068 A 
HETATM   26  C   UNL     1      32.037  50.817  40.700  1.00  0.00     0.037 A 
HETATM   27  C   UNL     1      31.266  49.736  40.253  1.00  0.00     0.018 A 
BRANCH  25  28
HETATM   28  O   UNL     1      32.999  51.997  42.629  1.00  0.00    -0.356 OA
HETATM   29  C   UNL     1      33.339  51.838  44.001  1.00  0.00     0.210 C 
ENDBRANCH  25  28
ENDBRANCH   3  22
TORSDOF 9
ENDMDL
MODEL 10
REMARK VINA RESULT:      -6.7      7.023     10.838
REMARK  9 active torsions:
REMARK  status: ('A' for Active; 'I' for Inactive)
REMARK    1  A    between atoms: C_2  and  N_3 
REMARK       I    between atoms: N_3  and  C_4 
REMARK    2  A    between atoms: C_4  and  C_5 
REMARK    3  A    between atoms: C_5  and  S_6 
REMARK    4  A    between atoms: S_6  and  C_7 
REMARK    5  A    between atoms: N_8  and  C_9 
REMARK    6  A    between atoms: C_9  and  C_10 
REMARK    7  A    between atoms: C_10  and  C_11 
REMARK    8  A    between atoms: C_17  and  C_18 
REMARK    9  A    between atoms: C_21  and  O_22 
ROOT
HETATM    1  C   UNL     1      27.430  41.558  51.110  1.00  0.00     0.192 A 
HETATM    2  N   UNL     1      27.475  42.698  51.871  1.00  0.00    -0.307 N 
HETATM    3  C   UNL     1      28.470  42.475  52.810  1.00  0.00     0.164 A 
HETATM    4  N   UNL     1      28.998  41.285  52.569  1.00  0.00    -0.128 NA
HETATM    5  N   UNL     1      28.352  40.718  51.508  1.00  0.00    -0.122 NA
ENDROOT
BRANCH   1   6
HETATM    6  S   UNL     1      26.327  41.292  49.806  1.00  0.00    -0.081 SA
BRANCH   6   7
HETATM    7  C   UNL     1      27.463  40.888  48.449  1.00  0.00     0.185 C 
BRANCH   7   8
HETATM    8  C   UNL     1      28.020  39.480  48.586  1.00  0.00     0.227 C 
HETATM    9  N   UNL     1      29.355  39.430  48.930  1.00  0.00    -0.361 N 
HETATM   10  H   UNL     1      29.732  40.249  49.405  1.00  0.00     0.162 HD
HETATM   11  O   UNL     1      27.334  38.481  48.379  1.00  0.00    -0.273 OA
BRANCH   9  12
HETATM   12  C   UNL     1      30.044  38.176  49.149  1.00  0.00     0.118 C 
HETATM   13  C   UNL     1      29.914  37.703  50.585  1.00  0.00     0.026 C 
ENDBRANCH   9  12
ENDBRANCH   7   8
ENDBRANCH   6   7
ENDBRANCH   1   6
BRANCH   2  14
HETATM   14  C   UNL     1      26.759  43.933  51.616  1.00  0.00     0.137 C 
BRANCH  14  15
HETATM   15  C   UNL     1      27.289  44.704  50.406  1.00  0.00     0.059 C 
BRANCH  15  16
HETATM   16  C   UNL     1      26.406  45.884  50.082  1.00  0.00    -0.057 A 
HETATM   17  C   UNL     1      26.976  47.114  49.719  1.00  0.00     0.007 A 
HETATM   18  C   UNL     1      26.165  48.216  49.446  1.00  0.00     0.001 A 
HETATM   19  C   UNL     1      24.779  48.100  49.532  1.00  0.00     0.000 A 
HETATM   20  C   UNL     1      24.203  46.883  49.890  1.00  0.00     0.001 A 
HETATM   21  C   UNL     1      25.012  45.779  50.166  1.00  0.00     0.007 A 
ENDBRANCH  15  16
ENDBRANCH  14  15
ENDBRANCH   2  14
BRANCH   3  22
HETATM   22  C   UNL     1      28.951  43.378  53.860  1.00  0.00     0.012 A 
HETATM   23  C   UNL     1      28.181  44.418  54.389  1.00  0.00     0.018 A 
HETATM   24  C   UNL     1      28.683  45.225  55.416  1.00  0.00     0.037 A 
HETATM   25  C   UNL     1      29.948  44.991  55.956  1.00  0.00     0.068 A 
HETATM   26  C   UNL     1      30.720  43.952  55.447  1.00  0.00     0.037 A 
HETATM   27  C   UNL     1      30.222  43.152  54.410  1.00  0.00     0.018 A 
BRANCH  25  28
HETATM   28  O   UNL     1      30.308  45.838  56.967  1.00  0.00    -0.356 OA
HETATM   29  C   UNL     1      29.322  46.101  57.958  1.00  0.00     0.210 C 
ENDBRANCH  25  28
ENDBRANCH   3  22
TORSDOF 9
ENDMDL
