MODEL 1
REMARK VINA RESULT:      -7.8      0.000      0.000
REMARK  6 active torsions:
REMARK  status: ('A' for Active; 'I' for Inactive)
REMARK    1  A    between atoms: C_2  and  O_3 
REMARK    2  A    between atoms: O_3  and  C_4 
REMARK    3  A    between atoms: C_4  and  C_5 
REMARK    4  A    between atoms: C_6  and  O_7 
REMARK    5  A    between atoms: C_12  and  O_13 
REMARK    6  A    between atoms: C_17  and  C_18 
ROOT
HETATM    1  C   UNL     1      28.418  43.949  52.707  1.00  0.00     0.133 C 
HETATM    2  C   UNL     1      29.126  42.703  53.333  1.00  0.00     0.073 C 
HETATM    3  C   UNL     1      29.468  42.880  54.821  1.00  0.00     0.047 C 
HETATM    4  C   UNL     1      28.327  41.380  53.146  1.00  0.00     0.097 C 
HETATM    5  C   UNL     1      27.843  41.292  51.748  1.00  0.00     0.042 A 
HETATM    6  C   UNL     1      27.649  42.342  50.877  1.00  0.00     0.030 A 
HETATM    7  C   UNL     1      27.277  41.700  49.683  1.00  0.00     0.190 A 
HETATM    8  N   UNL     1      27.213  40.377  49.784  1.00  0.00    -0.149 NA
HETATM    9  N   UNL     1      27.574  40.147  51.059  1.00  0.00    -0.279 N 
HETATM   10  H   UNL     1      27.633  39.185  51.375  1.00  0.00     0.189 HD
HETATM   11  C   UNL     1      27.924  43.764  51.237  1.00  0.00     0.074 C 
ENDROOT
BRANCH  11  12
HETATM   12  C   UNL     1      26.695  44.572  50.838  1.00  0.00    -0.048 A 
HETATM   13  C   UNL     1      25.382  44.158  51.147  1.00  0.00     0.011 A 
HETATM   14  C   UNL     1      24.279  44.925  50.772  1.00  0.00     0.043 A 
HETATM   15  C   UNL     1      24.476  46.120  50.097  1.00  0.00     0.116 A 
HETATM   16  F   UNL     1      23.419  46.861  49.742  1.00  0.00    -0.206 F 
HETATM   17  C   UNL     1      25.758  46.561  49.791  1.00  0.00     0.043 A 
HETATM   18  C   UNL     1      26.864  45.794  50.162  1.00  0.00     0.011 A 
ENDBRANCH  11  12
BRANCH   1  19
HETATM   19  C   UNL     1      27.341  44.478  53.634  1.00  0.00     0.267 C 
HETATM   20  O   UNL     1      26.410  43.826  54.082  1.00  0.00    -0.265 OA
BRANCH  19  21
HETATM   21  O   UNL     1      27.607  45.783  53.929  1.00  0.00    -0.316 OA
BRANCH  21  22
HETATM   22  C   UNL     1      26.546  46.555  54.523  1.00  0.00     0.123 C 
HETATM   23  C   UNL     1      25.742  47.245  53.431  1.00  0.00     0.040 C 
HETATM   24  C   UNL     1      27.210  47.582  55.434  1.00  0.00     0.040 C 
ENDBRANCH  21  22
ENDBRANCH  19  21
ENDBRANCH   1  19
BRANCH   2  25
HETATM   25  O   UNL     1      30.394  42.539  52.655  1.00  0.00    -0.389 OA
HETATM   26  H   UNL     1      31.023  42.114  53.264  1.00  0.00     0.210 HD
ENDBRANCH   2  25
BRANCH   7  27
HETATM   27  O   UNL     1      26.984  42.219  48.489  1.00  0.00    -0.343 OA
HETATM   28  H   UNL     1      26.806  43.167  48.585  1.00  0.00     0.219 HD
ENDBRANCH   7  27
TORSDOF 6
ENDMDL
MODEL 2
REMARK VINA RESULT:      -7.7      2.941      5.022
REMARK  6 active torsions:
REMARK  status: ('A' for Active; 'I' for Inactive)
REMARK    1  A    between atoms: C_2  and  O_3 
REMARK    2  A    between atoms: O_3  and  C_4 
REMARK    3  A    between atoms: C_4  and  C_5 
REMARK    4  A    between atoms: C_6  and  O_7 
REMARK    5  A    between atoms: C_12  and  O_13 
REMARK    6  A    between atoms: C_17  and  C_18 
ROOT
HETATM    1  C   UNL     1      26.294  44.015  52.728  1.00  0.00     0.133 C 
HETATM    2  C   UNL     1      27.084  43.382  53.921  1.00  0.00     0.073 C 
HETATM    3  C   UNL     1      27.751  42.043  53.566  1.00  0.00     0.047 C 
HETATM    4  C   UNL     1      28.148  44.338  54.534  1.00  0.00     0.097 C 
HETATM    5  C   UNL     1      27.555  45.685  54.712  1.00  0.00     0.042 A 
HETATM    6  C   UNL     1      26.474  46.204  54.034  1.00  0.00     0.030 A 
HETATM    7  C   UNL     1      26.284  47.454  54.648  1.00  0.00     0.190 A 
HETATM    8  N   UNL     1      27.168  47.721  55.602  1.00  0.00    -0.149 NA
HETATM    9  N   UNL     1      27.934  46.616  55.632  1.00  0.00    -0.279 N 
HETATM   10  H   UNL     1      28.679  46.567  56.319  1.00  0.00     0.189 HD
HETATM   11  C   UNL     1      25.718  45.442  52.996  1.00  0.00     0.074 C 
ENDROOT
BRANCH  11  12
HETATM   12  C   UNL     1      25.590  46.351  51.779  1.00  0.00    -0.048 A 
HETATM   13  C   UNL     1      26.610  47.245  51.390  1.00  0.00     0.011 A 
HETATM   14  C   UNL     1      26.463  48.059  50.267  1.00  0.00     0.043 A 
HETATM   15  C   UNL     1      25.303  47.979  49.513  1.00  0.00     0.116 A 
HETATM   16  F   UNL     1      25.162  48.754  48.431  1.00  0.00    -0.206 F 
HETATM   17  C   UNL     1      24.286  47.098  49.863  1.00  0.00     0.043 A 
HETATM   18  C   UNL     1      24.429  46.284  50.989  1.00  0.00     0.011 A 
ENDBRANCH  11  12
BRANCH   1  19
HETATM   19  C   UNL     1      27.097  43.931  51.445  1.00  0.00     0.267 C 
HETATM   20  O   UNL     1      28.279  44.216  51.330  1.00  0.00    -0.265 OA
BRANCH  19  21
HETATM   21  O   UNL     1      26.302  43.434  50.453  1.00  0.00    -0.316 OA
BRANCH  21  22
HETATM   22  C   UNL     1      25.339  42.428  50.820  1.00  0.00     0.123 C 
HETATM   23  C   UNL     1      25.871  41.052  50.444  1.00  0.00     0.040 C 
HETATM   24  C   UNL     1      24.063  42.742  50.048  1.00  0.00     0.040 C 
ENDBRANCH  21  22
ENDBRANCH  19  21
ENDBRANCH   1  19
BRANCH   2  25
HETATM   25  O   UNL     1      26.126  43.080  54.963  1.00  0.00    -0.389 OA
HETATM   26  H   UNL     1      25.736  42.206  54.788  1.00  0.00     0.210 HD
ENDBRANCH   2  25
BRANCH   7  27
HETATM   27  O   UNL     1      25.364  48.391  54.411  1.00  0.00    -0.343 OA
HETATM   28  H   UNL     1      24.486  47.981  54.383  1.00  0.00     0.219 HD
ENDBRANCH   7  27
TORSDOF 6
ENDMDL
MODEL 3
REMARK VINA RESULT:      -7.1     12.577     13.910
REMARK  6 active torsions:
REMARK  status: ('A' for Active; 'I' for Inactive)
REMARK    1  A    between atoms: C_2  and  O_3 
REMARK    2  A    between atoms: O_3  and  C_4 
REMARK    3  A    between atoms: C_4  and  C_5 
REMARK    4  A    between atoms: C_6  and  O_7 
REMARK    5  A    between atoms: C_12  and  O_13 
REMARK    6  A    between atoms: C_17  and  C_18 
ROOT
HETATM    1  C   UNL     1      30.502  48.508  41.201  1.00  0.00     0.133 C 
HETATM    2  C   UNL     1      31.971  48.792  41.659  1.00  0.00     0.073 C 
HETATM    3  C   UNL     1      32.949  47.661  41.303  1.00  0.00     0.047 C 
HETATM    4  C   UNL     1      32.534  50.142  41.126  1.00  0.00     0.097 C 
HETATM    5  C   UNL     1      31.517  51.205  41.307  1.00  0.00     0.042 A 
HETATM    6  C   UNL     1      30.157  51.029  41.432  1.00  0.00     0.030 A 
HETATM    7  C   UNL     1      29.688  52.333  41.669  1.00  0.00     0.190 A 
HETATM    8  N   UNL     1      30.645  53.254  41.669  1.00  0.00    -0.149 NA
HETATM    9  N   UNL     1      31.763  52.538  41.455  1.00  0.00    -0.279 N 
HETATM   10  H   UNL     1      32.652  53.027  41.444  1.00  0.00     0.189 HD
HETATM   11  C   UNL     1      29.501  49.688  41.413  1.00  0.00     0.074 C 
ENDROOT
BRANCH  11  12
HETATM   12  C   UNL     1      28.345  49.771  40.422  1.00  0.00    -0.048 A 
HETATM   13  C   UNL     1      28.420  50.521  39.231  1.00  0.00     0.011 A 
HETATM   14  C   UNL     1      27.345  50.570  38.343  1.00  0.00     0.043 A 
HETATM   15  C   UNL     1      26.191  49.859  38.629  1.00  0.00     0.116 A 
HETATM   16  F   UNL     1      25.160  49.899  37.774  1.00  0.00    -0.206 F 
HETATM   17  C   UNL     1      26.092  49.098  39.788  1.00  0.00     0.043 A 
HETATM   18  C   UNL     1      27.165  49.050  40.681  1.00  0.00     0.011 A 
ENDBRANCH  11  12
BRANCH   1  19
HETATM   19  C   UNL     1      30.476  47.953  39.791  1.00  0.00     0.267 C 
HETATM   20  O   UNL     1      31.027  48.455  38.822  1.00  0.00    -0.265 OA
BRANCH  19  21
HETATM   21  O   UNL     1      29.784  46.778  39.786  1.00  0.00    -0.316 OA
BRANCH  21  22
HETATM   22  C   UNL     1      29.518  46.172  38.507  1.00  0.00     0.123 C 
HETATM   23  C   UNL     1      28.207  46.709  37.951  1.00  0.00     0.040 C 
HETATM   24  C   UNL     1      29.429  44.669  38.744  1.00  0.00     0.040 C 
ENDBRANCH  21  22
ENDBRANCH  19  21
ENDBRANCH   1  19
BRANCH   2  25
HETATM   25  O   UNL     1      31.967  48.869  43.104  1.00  0.00    -0.389 OA
HETATM   26  H   UNL     1      32.160  47.986  43.466  1.00  0.00     0.210 HD
ENDBRANCH   2  25
BRANCH   7  27
HETATM   27  O   UNL     1      28.445  52.768  41.886  1.00  0.00    -0.343 OA
HETATM   28  H   UNL     1      28.462  53.723  42.049  1.00  0.00     0.219 HD
ENDBRANCH   7  27
TORSDOF 6
ENDMDL
MODEL 4
REMARK VINA RESULT:      -7.1      2.689      4.834
REMARK  6 active torsions:
REMARK  status: ('A' for Active; 'I' for Inactive)
REMARK    1  A    between atoms: C_2  and  O_3 
REMARK    2  A    between atoms: O_3  and  C_4 
REMARK    3  A    between atoms: C_4  and  C_5 
REMARK    4  A    between atoms: C_6  and  O_7 
REMARK    5  A    between atoms: C_12  and  O_13 
REMARK    6  A    between atoms: C_17  and  C_18 
ROOT
HETATM    1  C   UNL     1      25.990  42.456  50.648  1.00  0.00     0.133 C 
HETATM    2  C   UNL     1      25.549  42.016  49.213  1.00  0.00     0.073 C 
HETATM    3  C   UNL     1      24.685  43.065  48.495  1.00  0.00     0.047 C 
HETATM    4  C   UNL     1      26.740  41.618  48.295  1.00  0.00     0.097 C 
HETATM    5  C   UNL     1      27.672  40.745  49.048  1.00  0.00     0.042 A 
HETATM    6  C   UNL     1      27.805  40.672  50.417  1.00  0.00     0.030 A 
HETATM    7  C   UNL     1      28.743  39.640  50.591  1.00  0.00     0.190 A 
HETATM    8  N   UNL     1      29.186  39.122  49.450  1.00  0.00    -0.149 NA
HETATM    9  N   UNL     1      28.508  39.810  48.515  1.00  0.00    -0.279 N 
HETATM   10  H   UNL     1      28.655  39.568  47.541  1.00  0.00     0.189 HD
HETATM   11  C   UNL     1      26.985  41.487  51.363  1.00  0.00     0.074 C 
ENDROOT
BRANCH  11  12
HETATM   12  C   UNL     1      27.952  42.129  52.351  1.00  0.00    -0.048 A 
HETATM   13  C   UNL     1      29.243  42.559  51.979  1.00  0.00     0.011 A 
HETATM   14  C   UNL     1      30.100  43.149  52.907  1.00  0.00     0.043 A 
HETATM   15  C   UNL     1      29.672  43.330  54.213  1.00  0.00     0.116 A 
HETATM   16  F   UNL     1      30.490  43.903  55.105  1.00  0.00    -0.206 F 
HETATM   17  C   UNL     1      28.400  42.930  54.607  1.00  0.00     0.043 A 
HETATM   18  C   UNL     1      27.541  42.335  53.680  1.00  0.00     0.011 A 
ENDBRANCH  11  12
BRANCH   1  19
HETATM   19  C   UNL     1      26.461  43.897  50.649  1.00  0.00     0.267 C 
HETATM   20  O   UNL     1      27.320  44.361  49.913  1.00  0.00    -0.265 OA
BRANCH  19  21
HETATM   21  O   UNL     1      25.736  44.603  51.563  1.00  0.00    -0.316 OA
BRANCH  21  22
HETATM   22  C   UNL     1      26.278  45.862  52.006  1.00  0.00     0.123 C 
HETATM   23  C   UNL     1      26.377  45.869  53.525  1.00  0.00     0.040 C 
HETATM   24  C   UNL     1      25.322  46.945  51.523  1.00  0.00     0.040 C 
ENDBRANCH  21  22
ENDBRANCH  19  21
ENDBRANCH   1  19
BRANCH   2  25
HETATM   25  O   UNL     1      24.709  40.847  49.358  1.00  0.00    -0.389 OA
HETATM   26  H   UNL     1      24.171  40.944  50.164  1.00  0.00     0.210 HD
ENDBRANCH   2  25
BRANCH   7  27
HETATM   27  O   UNL     1      29.242  39.119  51.713  1.00  0.00    -0.343 OA
HETATM   28  H   UNL     1      28.937  38.204  51.807  1.00  0.00     0.219 HD
ENDBRANCH   7  27
TORSDOF 6
ENDMDL
MODEL 5
REMARK VINA RESULT:      -6.9      2.542      4.180
REMARK  6 active torsions:
REMARK  status: ('A' for Active; 'I' for Inactive)
REMARK    1  A    between atoms: C_2  and  O_3 
REMARK    2  A    between atoms: O_3  and  C_4 
REMARK    3  A    between atoms: C_4  and  C_5 
REMARK    4  A    between atoms: C_6  and  O_7 
REMARK    5  A    between atoms: C_12  and  O_13 
REMARK    6  A    between atoms: C_17  and  C_18 
ROOT
HETATM    1  C   UNL     1      27.159  43.002  50.306  1.00  0.00     0.133 C 
HETATM    2  C   UNL     1      26.856  41.764  49.400  1.00  0.00     0.073 C 
HETATM    3  C   UNL     1      27.904  40.646  49.527  1.00  0.00     0.047 C 
HETATM    4  C   UNL     1      25.438  41.164  49.628  1.00  0.00     0.097 C 
HETATM    5  C   UNL     1      24.443  42.261  49.684  1.00  0.00     0.042 A 
HETATM    6  C   UNL     1      24.690  43.580  49.996  1.00  0.00     0.030 A 
HETATM    7  C   UNL     1      23.436  44.190  49.813  1.00  0.00     0.190 A 
HETATM    8  N   UNL     1      22.479  43.346  49.448  1.00  0.00    -0.149 NA
HETATM    9  N   UNL     1      23.121  42.167  49.365  1.00  0.00    -0.279 N 
HETATM   10  H   UNL     1      22.594  41.354  49.065  1.00  0.00     0.189 HD
HETATM   11  C   UNL     1      26.050  44.103  50.320  1.00  0.00     0.074 C 
ENDROOT
BRANCH  11  12
HETATM   12  C   UNL     1      25.924  44.910  51.607  1.00  0.00    -0.048 A 
HETATM   13  C   UNL     1      25.360  44.376  52.784  1.00  0.00     0.011 A 
HETATM   14  C   UNL     1      25.266  45.140  53.947  1.00  0.00     0.043 A 
HETATM   15  C   UNL     1      25.746  46.440  53.950  1.00  0.00     0.116 A 
HETATM   16  F   UNL     1      25.663  47.174  55.067  1.00  0.00    -0.206 F 
HETATM   17  C   UNL     1      26.321  46.990  52.810  1.00  0.00     0.043 A 
HETATM   18  C   UNL     1      26.413  46.228  51.643  1.00  0.00     0.011 A 
ENDBRANCH  11  12
BRANCH   1  19
HETATM   19  C   UNL     1      27.576  42.564  51.696  1.00  0.00     0.267 C 
HETATM   20  O   UNL     1      27.088  41.634  52.322  1.00  0.00    -0.265 OA
BRANCH  19  21
HETATM   21  O   UNL     1      28.619  43.338  52.114  1.00  0.00    -0.316 OA
BRANCH  21  22
HETATM   22  C   UNL     1      29.043  43.192  53.483  1.00  0.00     0.123 C 
HETATM   23  C   UNL     1      28.863  44.513  54.216  1.00  0.00     0.040 C 
HETATM   24  C   UNL     1      30.513  42.791  53.446  1.00  0.00     0.040 C 
ENDBRANCH  21  22
ENDBRANCH  19  21
ENDBRANCH   1  19
BRANCH   2  25
HETATM   25  O   UNL     1      26.919  42.208  48.025  1.00  0.00    -0.389 OA
HETATM   26  H   UNL     1      27.662  41.761  47.584  1.00  0.00     0.210 HD
ENDBRANCH   2  25
BRANCH   7  27
HETATM   27  O   UNL     1      23.080  45.468  49.953  1.00  0.00    -0.343 OA
HETATM   28  H   UNL     1      23.098  45.707  50.892  1.00  0.00     0.219 HD
ENDBRANCH   7  27
TORSDOF 6
ENDMDL
MODEL 6
REMARK VINA RESULT:      -6.9      3.244      5.389
REMARK  6 active torsions:
REMARK  status: ('A' for Active; 'I' for Inactive)
REMARK    1  A    between atoms: C_2  and  O_3 
REMARK    2  A    between atoms: O_3  and  C_4 
REMARK    3  A    between atoms: C_4  and  C_5 
REMARK    4  A    between atoms: C_6  and  O_7 
REMARK    5  A    between atoms: C_12  and  O_13 
REMARK    6  A    between atoms: C_17  and  C_18 
ROOT
HETATM    1  C   UNL     1      25.716  43.685  50.997  1.00  0.00     0.133 C 
HETATM    2  C   UNL     1      24.709  44.869  50.818  1.00  0.00     0.073 C 
HETATM    3  C   UNL     1      25.198  46.184  51.447  1.00  0.00     0.047 C 
HETATM    4  C   UNL     1      24.317  45.127  49.334  1.00  0.00     0.097 C 
HETATM    5  C   UNL     1      24.017  43.835  48.673  1.00  0.00     0.042 A 
HETATM    6  C   UNL     1      24.461  42.590  49.060  1.00  0.00     0.030 A 
HETATM    7  C   UNL     1      23.815  41.726  48.158  1.00  0.00     0.190 A 
HETATM    8  N   UNL     1      23.056  42.354  47.267  1.00  0.00    -0.149 NA
HETATM    9  N   UNL     1      23.186  43.649  47.608  1.00  0.00    -0.279 N 
HETATM   10  H   UNL     1      22.663  44.339  47.080  1.00  0.00     0.189 HD
HETATM   11  C   UNL     1      25.330  42.367  50.254  1.00  0.00     0.074 C 
ENDROOT
BRANCH  11  12
HETATM   12  C   UNL     1      26.492  41.489  49.803  1.00  0.00    -0.048 A 
HETATM   13  C   UNL     1      27.100  41.627  48.537  1.00  0.00     0.011 A 
HETATM   14  C   UNL     1      28.165  40.811  48.158  1.00  0.00     0.043 A 
HETATM   15  C   UNL     1      28.644  39.858  49.044  1.00  0.00     0.116 A 
HETATM   16  F   UNL     1      29.672  39.078  48.685  1.00  0.00    -0.206 F 
HETATM   17  C   UNL     1      28.075  39.708  50.303  1.00  0.00     0.043 A 
HETATM   18  C   UNL     1      27.005  40.521  50.684  1.00  0.00     0.011 A 
ENDBRANCH  11  12
BRANCH   1  19
HETATM   19  C   UNL     1      27.134  44.136  50.709  1.00  0.00     0.267 C 
HETATM   20  O   UNL     1      27.486  44.791  49.739  1.00  0.00    -0.265 OA
BRANCH  19  21
HETATM   21  O   UNL     1      27.945  43.741  51.733  1.00  0.00    -0.316 OA
BRANCH  21  22
HETATM   22  C   UNL     1      27.359  43.658  53.046  1.00  0.00     0.123 C 
HETATM   23  C   UNL     1      27.746  44.887  53.856  1.00  0.00     0.040 C 
HETATM   24  C   UNL     1      27.908  42.392  53.692  1.00  0.00     0.040 C 
ENDBRANCH  21  22
ENDBRANCH  19  21
ENDBRANCH   1  19
BRANCH   2  25
HETATM   25  O   UNL     1      23.498  44.520  51.528  1.00  0.00    -0.389 OA
HETATM   26  H   UNL     1      22.767  45.068  51.192  1.00  0.00     0.210 HD
ENDBRANCH   2  25
BRANCH   7  27
HETATM   27  O   UNL     1      23.857  40.396  48.070  1.00  0.00    -0.343 OA
HETATM   28  H   UNL     1      23.594  40.008  48.918  1.00  0.00     0.219 HD
ENDBRANCH   7  27
TORSDOF 6
ENDMDL
MODEL 7
REMARK VINA RESULT:      -6.9      8.028     10.580
REMARK  6 active torsions:
REMARK  status: ('A' for Active; 'I' for Inactive)
REMARK    1  A    between atoms: C_2  and  O_3 
REMARK    2  A    between atoms: O_3  and  C_4 
REMARK    3  A    between atoms: C_4  and  C_5 
REMARK    4  A    between atoms: C_6  and  O_7 
REMARK    5  A    between atoms: C_12  and  O_13 
REMARK    6  A    between atoms: C_17  and  C_18 
ROOT
HETATM    1  C   UNL     1      19.665  47.634  48.472  1.00  0.00     0.133 C 
HETATM    2  C   UNL     1      20.746  46.620  47.972  1.00  0.00     0.073 C 
HETATM    3  C   UNL     1      20.194  45.585  46.978  1.00  0.00     0.047 C 
HETATM    4  C   UNL     1      21.998  47.307  47.353  1.00  0.00     0.097 C 
HETATM    5  C   UNL     1      22.426  48.426  48.225  1.00  0.00     0.042 A 
HETATM    6  C   UNL     1      21.645  49.109  49.130  1.00  0.00     0.030 A 
HETATM    7  C   UNL     1      22.557  49.988  49.739  1.00  0.00     0.190 A 
HETATM    8  N   UNL     1      23.791  49.897  49.256  1.00  0.00    -0.149 NA
HETATM    9  N   UNL     1      23.691  48.924  48.333  1.00  0.00    -0.279 N 
HETATM   10  H   UNL     1      24.530  48.645  47.837  1.00  0.00     0.189 HD
HETATM   11  C   UNL     1      20.206  48.791  49.372  1.00  0.00     0.074 C 
ENDROOT
BRANCH  11  12
HETATM   12  C   UNL     1      19.440  50.107  49.302  1.00  0.00    -0.048 A 
HETATM   13  C   UNL     1      19.836  51.171  48.464  1.00  0.00     0.011 A 
HETATM   14  C   UNL     1      19.108  52.360  48.420  1.00  0.00     0.043 A 
HETATM   15  C   UNL     1      17.970  52.494  49.200  1.00  0.00     0.116 A 
HETATM   16  F   UNL     1      17.266  53.632  49.153  1.00  0.00    -0.206 F 
HETATM   17  C   UNL     1      17.547  51.458  50.024  1.00  0.00     0.043 A 
HETATM   18  C   UNL     1      18.275  50.267  50.073  1.00  0.00     0.011 A 
ENDBRANCH  11  12
BRANCH   1  19
HETATM   19  C   UNL     1      18.814  48.128  47.319  1.00  0.00     0.267 C 
HETATM   20  O   UNL     1      19.237  48.670  46.308  1.00  0.00    -0.265 OA
BRANCH  19  21
HETATM   21  O   UNL     1      17.508  47.822  47.565  1.00  0.00    -0.316 OA
BRANCH  21  22
HETATM   22  C   UNL     1      16.507  48.628  46.915  1.00  0.00     0.123 C 
HETATM   23  C   UNL     1      15.481  49.092  47.939  1.00  0.00     0.040 C 
HETATM   24  C   UNL     1      15.853  47.747  45.857  1.00  0.00     0.040 C 
ENDBRANCH  21  22
ENDBRANCH  19  21
ENDBRANCH   1  19
BRANCH   2  25
HETATM   25  O   UNL     1      21.194  45.863  49.120  1.00  0.00    -0.389 OA
HETATM   26  H   UNL     1      20.885  44.945  49.032  1.00  0.00     0.210 HD
ENDBRANCH   2  25
BRANCH   7  27
HETATM   27  O   UNL     1      22.364  50.883  50.710  1.00  0.00    -0.343 OA
HETATM   28  H   UNL     1      23.100  50.840  51.339  1.00  0.00     0.219 HD
ENDBRANCH   7  27
TORSDOF 6
ENDMDL
MODEL 8
REMARK VINA RESULT:      -6.8      2.533      5.521
REMARK  6 active torsions:
REMARK  status: ('A' for Active; 'I' for Inactive)
REMARK    1  A    between atoms: C_2  and  O_3 
REMARK    2  A    between atoms: O_3  and  C_4 
REMARK    3  A    between atoms: C_4  and  C_5 
REMARK    4  A    between atoms: C_6  and  O_7 
REMARK    5  A    between atoms: C_12  and  O_13 
REMARK    6  A    between atoms: C_17  and  C_18 
ROOT
HETATM    1  C   UNL     1      26.069  40.431  49.321  1.00  0.00     0.133 C 
HETATM    2  C   UNL     1      26.937  39.132  49.412  1.00  0.00     0.073 C 
HETATM    3  C   UNL     1      27.043  38.376  48.078  1.00  0.00     0.047 C 
HETATM    4  C   UNL     1      28.367  39.383  49.974  1.00  0.00     0.097 C 
HETATM    5  C   UNL     1      28.281  40.263  51.163  1.00  0.00     0.042 A 
HETATM    6  C   UNL     1      27.260  41.135  51.469  1.00  0.00     0.030 A 
HETATM    7  C   UNL     1      27.635  41.636  52.728  1.00  0.00     0.190 A 
HETATM    8  N   UNL     1      28.791  41.156  53.171  1.00  0.00    -0.149 NA
HETATM    9  N   UNL     1      29.166  40.306  52.199  1.00  0.00    -0.279 N 
HETATM   10  H   UNL     1      30.024  39.780  52.326  1.00  0.00     0.189 HD
HETATM   11  C   UNL     1      26.048  41.308  50.613  1.00  0.00     0.074 C 
ENDROOT
BRANCH  11  12
HETATM   12  C   UNL     1      25.860  42.806  50.402  1.00  0.00    -0.048 A 
HETATM   13  C   UNL     1      26.939  43.676  50.143  1.00  0.00     0.011 A 
HETATM   14  C   UNL     1      26.732  45.041  49.949  1.00  0.00     0.043 A 
HETATM   15  C   UNL     1      25.443  45.549  49.997  1.00  0.00     0.116 A 
HETATM   16  F   UNL     1      25.240  46.859  49.803  1.00  0.00    -0.206 F 
HETATM   17  C   UNL     1      24.357  44.714  50.236  1.00  0.00     0.043 A 
HETATM   18  C   UNL     1      24.563  43.347  50.434  1.00  0.00     0.011 A 
ENDBRANCH  11  12
BRANCH   1  19
HETATM   19  C   UNL     1      26.412  41.220  48.073  1.00  0.00     0.267 C 
HETATM   20  O   UNL     1      27.542  41.510  47.706  1.00  0.00    -0.265 OA
BRANCH  19  21
HETATM   21  O   UNL     1      25.263  41.510  47.398  1.00  0.00    -0.316 OA
BRANCH  21  22
HETATM   22  C   UNL     1      24.157  40.602  47.557  1.00  0.00     0.123 C 
HETATM   23  C   UNL     1      24.016  39.744  46.308  1.00  0.00     0.040 C 
HETATM   24  C   UNL     1      22.913  41.458  47.766  1.00  0.00     0.040 C 
ENDBRANCH  21  22
ENDBRANCH  19  21
ENDBRANCH   1  19
BRANCH   2  25
HETATM   25  O   UNL     1      26.269  38.229  50.324  1.00  0.00    -0.389 OA
HETATM   26  H   UNL     1      26.829  38.105  51.111  1.00  0.00     0.210 HD
ENDBRANCH   2  25
BRANCH   7  27
HETATM   27  O   UNL     1      27.011  42.509  53.521  1.00  0.00    -0.343 OA
HETATM   28  H   UNL     1      27.657  43.132  53.886  1.00  0.00     0.219 HD
ENDBRANCH   7  27
TORSDOF 6
ENDMDL
MODEL 9
REMARK VINA RESULT:      -6.6     12.217     14.663
REMARK  6 active torsions:
REMARK  status: ('A' for Active; 'I' for Inactive)
REMARK    1  A    between atoms: C_2  and  O_3 
REMARK    2  A    between atoms: O_3  and  C_4 
REMARK    3  A    between atoms: C_4  and  C_5 
REMARK    4  A    between atoms: C_6  and  O_7 
REMARK    5  A    between atoms: C_12  and  O_13 
REMARK    6  A    between atoms: C_17  and  C_18 
ROOT
HETATM    1  C   UNL     1      29.220  50.503  38.324  1.00  0.00     0.133 C 
HETATM    2  C   UNL     1      29.853  51.923  38.501  1.00  0.00     0.073 C 
HETATM    3  C   UNL     1      28.907  53.065  38.099  1.00  0.00     0.047 C 
HETATM    4  C   UNL     1      30.390  52.184  39.938  1.00  0.00     0.097 C 
HETATM    5  C   UNL     1      31.158  51.003  40.399  1.00  0.00     0.042 A 
HETATM    6  C   UNL     1      31.039  49.712  39.934  1.00  0.00     0.030 A 
HETATM    7  C   UNL     1      32.047  49.027  40.635  1.00  0.00     0.190 A 
HETATM    8  N   UNL     1      32.725  49.794  41.482  1.00  0.00    -0.149 NA
HETATM    9  N   UNL     1      32.170  51.007  41.313  1.00  0.00    -0.279 N 
HETATM   10  H   UNL     1      32.548  51.785  41.842  1.00  0.00     0.189 HD
HETATM   11  C   UNL     1      30.089  49.318  38.851  1.00  0.00     0.074 C 
ENDROOT
BRANCH  11  12
HETATM   12  C   UNL     1      29.324  48.097  39.351  1.00  0.00    -0.048 A 
HETATM   13  C   UNL     1      28.716  48.053  40.623  1.00  0.00     0.011 A 
HETATM   14  C   UNL     1      28.018  46.923  41.047  1.00  0.00     0.043 A 
HETATM   15  C   UNL     1      27.908  45.831  40.200  1.00  0.00     0.116 A 
HETATM   16  F   UNL     1      27.232  44.747  40.602  1.00  0.00    -0.206 F 
HETATM   17  C   UNL     1      28.484  45.850  38.935  1.00  0.00     0.043 A 
HETATM   18  C   UNL     1      29.187  46.980  38.510  1.00  0.00     0.011 A 
ENDBRANCH  11  12
BRANCH   1  19
HETATM   19  C   UNL     1      27.799  50.478  38.851  1.00  0.00     0.267 C 
HETATM   20  O   UNL     1      27.456  50.800  39.979  1.00  0.00    -0.265 OA
BRANCH  19  21
HETATM   21  O   UNL     1      26.958  50.089  37.849  1.00  0.00    -0.316 OA
BRANCH  21  22
HETATM   22  C   UNL     1      26.006  49.052  38.152  1.00  0.00     0.123 C 
HETATM   23  C   UNL     1      25.961  48.049  37.008  1.00  0.00     0.040 C 
HETATM   24  C   UNL     1      24.654  49.735  38.324  1.00  0.00     0.040 C 
ENDBRANCH  21  22
ENDBRANCH  19  21
ENDBRANCH   1  19
BRANCH   2  25
HETATM   25  O   UNL     1      30.981  52.010  37.598  1.00  0.00    -0.389 OA
HETATM   26  H   UNL     1      30.709  51.682  36.723  1.00  0.00     0.210 HD
ENDBRANCH   2  25
BRANCH   7  27
HETATM   27  O   UNL     1      32.410  47.745  40.574  1.00  0.00    -0.343 OA
HETATM   28  H   UNL     1      31.681  47.221  40.207  1.00  0.00     0.219 HD
ENDBRANCH   7  27
TORSDOF 6
ENDMDL
MODEL 10
REMARK VINA RESULT:      -6.5     16.349     17.948
REMARK  6 active torsions:
REMARK  status: ('A' for Active; 'I' for Inactive)
REMARK    1  A    between atoms: C_2  and  O_3 
REMARK    2  A    between atoms: O_3  and  C_4 
REMARK    3  A    between atoms: C_4  and  C_5 
REMARK    4  A    between atoms: C_6  and  O_7 
REMARK    5  A    between atoms: C_12  and  O_13 
REMARK    6  A    between atoms: C_17  and  C_18 
ROOT
HETATM    1  C   UNL     1      37.157  45.597  64.572  1.00  0.00     0.133 C 
HETATM    2  C   UNL     1      37.220  47.085  65.051  1.00  0.00     0.073 C 
HETATM    3  C   UNL     1      35.937  47.551  65.758  1.00  0.00     0.047 C 
HETATM    4  C   UNL     1      38.445  47.390  65.961  1.00  0.00     0.097 C 
HETATM    5  C   UNL     1      39.661  46.784  65.367  1.00  0.00     0.042 A 
HETATM    6  C   UNL     1      39.707  45.729  64.484  1.00  0.00     0.030 A 
HETATM    7  C   UNL     1      41.076  45.628  64.179  1.00  0.00     0.190 A 
HETATM    8  N   UNL     1      41.833  46.510  64.822  1.00  0.00    -0.149 NA
HETATM    9  N   UNL     1      40.942  47.217  65.539  1.00  0.00    -0.279 N 
HETATM   10  H   UNL     1      41.284  47.988  66.103  1.00  0.00     0.189 HD
HETATM   11  C   UNL     1      38.487  45.034  63.976  1.00  0.00     0.074 C 
ENDROOT
BRANCH  11  12
HETATM   12  C   UNL     1      38.719  43.538  64.152  1.00  0.00    -0.048 A 
HETATM   13  C   UNL     1      39.278  42.990  65.325  1.00  0.00     0.011 A 
HETATM   14  C   UNL     1      39.471  41.615  65.456  1.00  0.00     0.043 A 
HETATM   15  C   UNL     1      39.094  40.772  64.423  1.00  0.00     0.116 A 
HETATM   16  F   UNL     1      39.272  39.450  64.549  1.00  0.00    -0.206 F 
HETATM   17  C   UNL     1      38.527  41.280  63.260  1.00  0.00     0.043 A 
HETATM   18  C   UNL     1      38.336  42.657  63.125  1.00  0.00     0.011 A 
ENDBRANCH  11  12
BRANCH   1  19
HETATM   19  C   UNL     1      36.568  44.709  65.650  1.00  0.00     0.267 C 
HETATM   20  O   UNL     1      36.981  44.617  66.796  1.00  0.00    -0.265 OA
BRANCH  19  21
HETATM   21  O   UNL     1      35.470  44.070  65.151  1.00  0.00    -0.316 OA
BRANCH  21  22
HETATM   22  C   UNL     1      34.964  42.947  65.898  1.00  0.00     0.123 C 
HETATM   23  C   UNL     1      35.522  41.655  65.319  1.00  0.00     0.040 C 
HETATM   24  C   UNL     1      33.445  42.985  65.769  1.00  0.00     0.040 C 
ENDBRANCH  21  22
ENDBRANCH  19  21
ENDBRANCH   1  19
BRANCH   2  25
HETATM   25  O   UNL     1      37.343  47.914  63.872  1.00  0.00    -0.389 OA
HETATM   26  H   UNL     1      37.151  47.374  63.085  1.00  0.00     0.210 HD
ENDBRANCH   2  25
BRANCH   7  27
HETATM   27  O   UNL     1      41.709  44.789  63.357  1.00  0.00    -0.343 OA
HETATM   28  H   UNL     1      41.821  45.210  62.491  1.00  0.00     0.219 HD
ENDBRANCH   7  27
TORSDOF 6
ENDMDL
