MODEL 1
REMARK VINA RESULT:      -8.3      0.000      0.000
REMARK  6 active torsions:
REMARK  status: ('A' for Active; 'I' for Inactive)
REMARK    1  A    between atoms: C_3  and  N_4 
REMARK    2  A    between atoms: N_4  and  C_5 
REMARK    3  A    between atoms: C_5  and  C_6 
REMARK    4  A    between atoms: N_8  and  C_10 
REMARK    5  A    between atoms: C_10  and  C_11 
REMARK    6  A    between atoms: C_12  and  O_13 
ROOT
HETATM    1  C   UNL     1      26.517  46.249  54.214  1.00  0.00     0.031 C 
HETATM    2  C   UNL     1      26.208  47.176  53.039  1.00  0.00     0.241 C 
HETATM    3  N   UNL     1      25.502  46.318  52.024  1.00  0.00    -0.067 N 
HETATM    4  H   UNL     1      24.603  46.786  51.794  1.00  0.00     0.280 HD
HETATM    5  C   UNL     1      25.162  44.995  52.658  1.00  0.00     0.235 C 
HETATM    6  C   UNL     1      25.371  45.239  54.143  1.00  0.00     0.035 C 
ENDROOT
BRANCH   3   7
HETATM    7  C   UNL     1      26.173  46.228  50.677  1.00  0.00     0.276 C 
BRANCH   7   8
HETATM    8  C   UNL     1      26.046  47.483  49.861  1.00  0.00     0.002 A 
HETATM    9  C   UNL     1      24.784  47.993  49.525  1.00  0.00     0.091 A 
HETATM   10  C   UNL     1      24.657  49.190  48.814  1.00  0.00     0.044 A 
HETATM   11 BR   UNL     1      22.950  49.873  48.372  1.00  0.00    -0.048 Br
HETATM   12  C   UNL     1      25.796  49.888  48.422  1.00  0.00     0.022 A 
HETATM   13  C   UNL     1      27.060  49.391  48.746  1.00  0.00     0.002 A 
HETATM   14  C   UNL     1      27.186  48.198  49.465  1.00  0.00     0.012 A 
BRANCH   9  15
HETATM   15  O   UNL     1      23.684  47.263  49.905  1.00  0.00    -0.359 OA
HETATM   16  H   UNL     1      23.980  46.686  50.645  1.00  0.00     0.218 HD
ENDBRANCH   9  15
ENDBRANCH   7   8
ENDBRANCH   3   7
BRANCH   1  17
HETATM   17  C   UNL     1      27.904  45.580  54.142  1.00  0.00     0.127 C 
BRANCH  17  18
HETATM   18  N   UNL     1      28.727  46.023  55.263  1.00  0.00    -0.376 N 
HETATM   19  H   UNL     1      29.155  46.940  55.101  1.00  0.00     0.161 HD
BRANCH  18  20
HETATM   20  C   UNL     1      29.615  45.235  55.992  1.00  0.00     0.100 A 
HETATM   21  C   UNL     1      30.135  44.077  55.388  1.00  0.00     0.048 A 
HETATM   22  C   UNL     1      31.058  43.279  56.061  1.00  0.00     0.005 A 
HETATM   23  C   UNL     1      31.474  43.646  57.331  1.00  0.00     0.017 A 
HETATM   24  C   UNL     1      30.964  44.807  57.890  1.00  0.00     0.089 A 
HETATM   25  N   UNL     1      30.077  45.556  57.212  1.00  0.00    -0.353 N 
HETATM   26  H   UNL     1      29.751  46.404  57.660  1.00  0.00     0.166 HD
ENDBRANCH  18  20
ENDBRANCH  17  18
ENDBRANCH   1  17
TORSDOF 6
ENDMDL
MODEL 2
REMARK VINA RESULT:      -8.2      1.443      2.156
REMARK  6 active torsions:
REMARK  status: ('A' for Active; 'I' for Inactive)
REMARK    1  A    between atoms: C_3  and  N_4 
REMARK    2  A    between atoms: N_4  and  C_5 
REMARK    3  A    between atoms: C_5  and  C_6 
REMARK    4  A    between atoms: N_8  and  C_10 
REMARK    5  A    between atoms: C_10  and  C_11 
REMARK    6  A    between atoms: C_12  and  O_13 
ROOT
HETATM    1  C   UNL     1      26.196  43.384  51.452  1.00  0.00     0.031 C 
HETATM    2  C   UNL     1      25.322  44.585  51.811  1.00  0.00     0.241 C 
HETATM    3  N   UNL     1      25.506  45.568  50.685  1.00  0.00    -0.067 N 
HETATM    4  H   UNL     1      24.561  45.805  50.324  1.00  0.00     0.280 HD
HETATM    5  C   UNL     1      26.250  44.889  49.565  1.00  0.00     0.235 C 
HETATM    6  C   UNL     1      26.181  43.414  49.924  1.00  0.00     0.035 C 
ENDROOT
BRANCH   3   7
HETATM    7  C   UNL     1      26.047  46.916  51.088  1.00  0.00     0.276 C 
BRANCH   7   8
HETATM    8  C   UNL     1      25.938  47.951  50.005  1.00  0.00     0.002 A 
HETATM    9  C   UNL     1      24.683  48.361  49.532  1.00  0.00     0.091 A 
HETATM   10  C   UNL     1      24.571  49.363  48.565  1.00  0.00     0.044 A 
HETATM   11 BR   UNL     1      22.873  49.915  47.939  1.00  0.00    -0.048 Br
HETATM   12  C   UNL     1      25.717  49.964  48.051  1.00  0.00     0.022 A 
HETATM   13  C   UNL     1      26.974  49.563  48.509  1.00  0.00     0.002 A 
HETATM   14  C   UNL     1      27.085  48.566  49.484  1.00  0.00     0.012 A 
BRANCH   9  15
HETATM   15  O   UNL     1      23.575  47.728  50.043  1.00  0.00    -0.359 OA
HETATM   16  H   UNL     1      23.874  46.831  50.316  1.00  0.00     0.218 HD
ENDBRANCH   9  15
ENDBRANCH   7   8
ENDBRANCH   3   7
BRANCH   1  17
HETATM   17  C   UNL     1      27.623  43.445  52.035  1.00  0.00     0.127 C 
BRANCH  17  18
HETATM   18  N   UNL     1      27.635  44.288  53.226  1.00  0.00    -0.376 N 
HETATM   19  H   UNL     1      27.314  45.242  53.039  1.00  0.00     0.161 HD
BRANCH  18  20
HETATM   20  C   UNL     1      28.641  44.333  54.189  1.00  0.00     0.100 A 
HETATM   21  C   UNL     1      29.556  43.268  54.254  1.00  0.00     0.048 A 
HETATM   22  C   UNL     1      30.604  43.288  55.172  1.00  0.00     0.005 A 
HETATM   23  C   UNL     1      30.748  44.378  56.015  1.00  0.00     0.017 A 
HETATM   24  C   UNL     1      29.847  45.426  55.909  1.00  0.00     0.089 A 
HETATM   25  N   UNL     1      28.848  45.376  55.010  1.00  0.00    -0.353 N 
HETATM   26  H   UNL     1      28.229  46.177  54.963  1.00  0.00     0.166 HD
ENDBRANCH  18  20
ENDBRANCH  17  18
ENDBRANCH   1  17
TORSDOF 6
ENDMDL
MODEL 3
REMARK VINA RESULT:      -7.9      3.883      7.714
REMARK  6 active torsions:
REMARK  status: ('A' for Active; 'I' for Inactive)
REMARK    1  A    between atoms: C_3  and  N_4 
REMARK    2  A    between atoms: N_4  and  C_5 
REMARK    3  A    between atoms: C_5  and  C_6 
REMARK    4  A    between atoms: N_8  and  C_10 
REMARK    5  A    between atoms: C_10  and  C_11 
REMARK    6  A    between atoms: C_12  and  O_13 
ROOT
HETATM    1  C   UNL     1      26.543  44.433  49.662  1.00  0.00     0.031 C 
HETATM    2  C   UNL     1      27.360  44.568  50.946  1.00  0.00     0.241 C 
HETATM    3  N   UNL     1      26.840  43.499  51.869  1.00  0.00    -0.067 N 
HETATM    4  H   UNL     1      27.654  42.931  52.176  1.00  0.00     0.280 HD
HETATM    5  C   UNL     1      25.930  42.585  51.090  1.00  0.00     0.235 C 
HETATM    6  C   UNL     1      26.214  42.940  49.640  1.00  0.00     0.035 C 
ENDROOT
BRANCH   3   7
HETATM    7  C   UNL     1      26.280  43.994  53.178  1.00  0.00     0.276 C 
BRANCH   7   8
HETATM    8  C   UNL     1      27.298  44.684  54.041  1.00  0.00     0.002 A 
HETATM    9  C   UNL     1      28.419  43.990  54.518  1.00  0.00     0.091 A 
HETATM   10  C   UNL     1      29.399  44.639  55.275  1.00  0.00     0.044 A 
HETATM   11 BR   UNL     1      30.911  43.696  55.907  1.00  0.00    -0.048 Br
HETATM   12  C   UNL     1      29.264  45.993  55.570  1.00  0.00     0.022 A 
HETATM   13  C   UNL     1      28.151  46.696  55.106  1.00  0.00     0.002 A 
HETATM   14  C   UNL     1      27.176  46.049  54.341  1.00  0.00     0.012 A 
BRANCH   9  15
HETATM   15  O   UNL     1      28.505  42.649  54.229  1.00  0.00    -0.359 OA
HETATM   16  H   UNL     1      28.604  42.586  53.252  1.00  0.00     0.218 HD
ENDBRANCH   9  15
ENDBRANCH   7   8
ENDBRANCH   3   7
BRANCH   1  17
HETATM   17  C   UNL     1      25.283  45.321  49.619  1.00  0.00     0.127 C 
BRANCH  17  18
HETATM   18  N   UNL     1      25.547  46.587  50.297  1.00  0.00    -0.376 N 
HETATM   19  H   UNL     1      24.890  46.769  51.062  1.00  0.00     0.161 HD
BRANCH  18  20
HETATM   20  C   UNL     1      25.869  47.795  49.683  1.00  0.00     0.100 A 
HETATM   21  C   UNL     1      27.222  48.162  49.593  1.00  0.00     0.048 A 
HETATM   22  C   UNL     1      27.597  49.341  48.951  1.00  0.00     0.005 A 
HETATM   23  C   UNL     1      26.621  50.146  48.386  1.00  0.00     0.017 A 
HETATM   24  C   UNL     1      25.297  49.744  48.466  1.00  0.00     0.089 A 
HETATM   25  N   UNL     1      24.970  48.599  49.090  1.00  0.00    -0.353 N 
HETATM   26  H   UNL     1      23.989  48.345  49.104  1.00  0.00     0.166 HD
ENDBRANCH  18  20
ENDBRANCH  17  18
ENDBRANCH   1  17
TORSDOF 6
ENDMDL
MODEL 4
REMARK VINA RESULT:      -7.7      4.804      6.060
REMARK  6 active torsions:
REMARK  status: ('A' for Active; 'I' for Inactive)
REMARK    1  A    between atoms: C_3  and  N_4 
REMARK    2  A    between atoms: N_4  and  C_5 
REMARK    3  A    between atoms: C_5  and  C_6 
REMARK    4  A    between atoms: N_8  and  C_10 
REMARK    5  A    between atoms: C_10  and  C_11 
REMARK    6  A    between atoms: C_12  and  O_13 
ROOT
HETATM    1  C   UNL     1      29.428  42.482  52.797  1.00  0.00     0.031 C 
HETATM    2  C   UNL     1      28.572  43.638  52.282  1.00  0.00     0.241 C 
HETATM    3  N   UNL     1      28.174  44.421  53.505  1.00  0.00    -0.067 N 
HETATM    4  H   UNL     1      28.457  45.408  53.346  1.00  0.00     0.280 HD
HETATM    5  C   UNL     1      28.967  43.918  54.683  1.00  0.00     0.235 C 
HETATM    6  C   UNL     1      30.067  43.082  54.050  1.00  0.00     0.035 C 
ENDROOT
BRANCH   3   7
HETATM    7  C   UNL     1      26.690  44.543  53.739  1.00  0.00     0.276 C 
BRANCH   7   8
HETATM    8  C   UNL     1      25.950  45.143  52.578  1.00  0.00     0.002 A 
HETATM    9  C   UNL     1      25.007  44.389  51.864  1.00  0.00     0.091 A 
HETATM   10  C   UNL     1      24.274  44.957  50.819  1.00  0.00     0.044 A 
HETATM   11 BR   UNL     1      22.998  43.933  49.868  1.00  0.00    -0.048 Br
HETATM   12  C   UNL     1      24.482  46.287  50.467  1.00  0.00     0.022 A 
HETATM   13  C   UNL     1      25.421  47.049  51.165  1.00  0.00     0.002 A 
HETATM   14  C   UNL     1      26.148  46.484  52.218  1.00  0.00     0.012 A 
BRANCH   9  15
HETATM   15  O   UNL     1      24.847  43.072  52.222  1.00  0.00    -0.359 OA
HETATM   16  H   UNL     1      24.440  43.078  53.118  1.00  0.00     0.218 HD
ENDBRANCH   9  15
ENDBRANCH   7   8
ENDBRANCH   3   7
BRANCH   1  17
HETATM   17  C   UNL     1      28.635  41.193  53.092  1.00  0.00     0.127 C 
BRANCH  17  18
HETATM   18  N   UNL     1      28.011  40.704  51.867  1.00  0.00    -0.376 N 
HETATM   19  H   UNL     1      27.025  40.458  51.997  1.00  0.00     0.161 HD
BRANCH  18  20
HETATM   20  C   UNL     1      28.579  39.817  50.954  1.00  0.00     0.100 A 
HETATM   21  C   UNL     1      28.334  40.017  49.584  1.00  0.00     0.048 A 
HETATM   22  C   UNL     1      28.914  39.183  48.631  1.00  0.00     0.005 A 
HETATM   23  C   UNL     1      29.750  38.158  49.044  1.00  0.00     0.017 A 
HETATM   24  C   UNL     1      29.994  38.002  50.399  1.00  0.00     0.089 A 
HETATM   25  N   UNL     1      29.421  38.827  51.293  1.00  0.00    -0.353 N 
HETATM   26  H   UNL     1      29.648  38.679  52.269  1.00  0.00     0.166 HD
ENDBRANCH  18  20
ENDBRANCH  17  18
ENDBRANCH   1  17
TORSDOF 6
ENDMDL
MODEL 5
REMARK VINA RESULT:      -7.7      3.789      8.727
REMARK  6 active torsions:
REMARK  status: ('A' for Active; 'I' for Inactive)
REMARK    1  A    between atoms: C_3  and  N_4 
REMARK    2  A    between atoms: N_4  and  C_5 
REMARK    3  A    between atoms: C_5  and  C_6 
REMARK    4  A    between atoms: N_8  and  C_10 
REMARK    5  A    between atoms: C_10  and  C_11 
REMARK    6  A    between atoms: C_12  and  O_13 
ROOT
HETATM    1  C   UNL     1      25.423  45.546  50.647  1.00  0.00     0.031 C 
HETATM    2  C   UNL     1      26.793  45.353  51.297  1.00  0.00     0.241 C 
HETATM    3  N   UNL     1      26.512  44.830  52.680  1.00  0.00    -0.067 N 
HETATM    4  H   UNL     1      27.051  43.949  52.794  1.00  0.00     0.280 HD
HETATM    5  C   UNL     1      25.052  44.472  52.777  1.00  0.00     0.235 C 
HETATM    6  C   UNL     1      24.582  44.469  51.332  1.00  0.00     0.035 C 
ENDROOT
BRANCH   3   7
HETATM    7  C   UNL     1      27.038  45.679  53.810  1.00  0.00     0.276 C 
BRANCH   7   8
HETATM    8  C   UNL     1      28.258  45.103  54.472  1.00  0.00     0.002 A 
HETATM    9  C   UNL     1      28.749  45.650  55.666  1.00  0.00     0.091 A 
HETATM   10  C   UNL     1      29.849  45.087  56.317  1.00  0.00     0.044 A 
HETATM   11 BR   UNL     1      30.499  45.828  57.931  1.00  0.00    -0.048 Br
HETATM   12  C   UNL     1      30.479  43.970  55.775  1.00  0.00     0.022 A 
HETATM   13  C   UNL     1      30.005  43.417  54.584  1.00  0.00     0.002 A 
HETATM   14  C   UNL     1      28.898  43.975  53.938  1.00  0.00     0.012 A 
BRANCH   9  15
HETATM   15  O   UNL     1      28.118  46.769  56.157  1.00  0.00    -0.359 OA
HETATM   16  H   UNL     1      27.294  46.872  55.628  1.00  0.00     0.218 HD
ENDBRANCH   9  15
ENDBRANCH   7   8
ENDBRANCH   3   7
BRANCH   1  17
HETATM   17  C   UNL     1      24.836  46.961  50.822  1.00  0.00     0.127 C 
BRANCH  17  18
HETATM   18  N   UNL     1      24.639  47.581  49.516  1.00  0.00    -0.376 N 
HETATM   19  H   UNL     1      25.519  47.738  49.016  1.00  0.00     0.161 HD
BRANCH  18  20
HETATM   20  C   UNL     1      23.766  48.627  49.227  1.00  0.00     0.100 A 
HETATM   21  C   UNL     1      24.224  49.680  48.415  1.00  0.00     0.048 A 
HETATM   22  C   UNL     1      23.375  50.727  48.065  1.00  0.00     0.005 A 
HETATM   23  C   UNL     1      22.064  50.717  48.511  1.00  0.00     0.017 A 
HETATM   24  C   UNL     1      21.632  49.652  49.286  1.00  0.00     0.089 A 
HETATM   25  N   UNL     1      22.477  48.655  49.605  1.00  0.00    -0.353 N 
HETATM   26  H   UNL     1      22.103  47.894  50.158  1.00  0.00     0.166 HD
ENDBRANCH  18  20
ENDBRANCH  17  18
ENDBRANCH   1  17
TORSDOF 6
ENDMDL
MODEL 6
REMARK VINA RESULT:      -7.6      3.927      8.421
REMARK  6 active torsions:
REMARK  status: ('A' for Active; 'I' for Inactive)
REMARK    1  A    between atoms: C_3  and  N_4 
REMARK    2  A    between atoms: N_4  and  C_5 
REMARK    3  A    between atoms: C_5  and  C_6 
REMARK    4  A    between atoms: N_8  and  C_10 
REMARK    5  A    between atoms: C_10  and  C_11 
REMARK    6  A    between atoms: C_12  and  O_13 
ROOT
HETATM    1  C   UNL     1      25.356  45.296  49.584  1.00  0.00     0.031 C 
HETATM    2  C   UNL     1      26.351  45.384  50.741  1.00  0.00     0.241 C 
HETATM    3  N   UNL     1      25.935  44.313  51.713  1.00  0.00    -0.067 N 
HETATM    4  H   UNL     1      26.768  43.717  51.892  1.00  0.00     0.280 HD
HETATM    5  C   UNL     1      24.898  43.439  51.058  1.00  0.00     0.235 C 
HETATM    6  C   UNL     1      24.984  43.812  49.588  1.00  0.00     0.035 C 
ENDROOT
BRANCH   3   7
HETATM    7  C   UNL     1      25.581  44.798  53.095  1.00  0.00     0.276 C 
BRANCH   7   8
HETATM    8  C   UNL     1      26.777  45.203  53.910  1.00  0.00     0.002 A 
HETATM    9  C   UNL     1      27.819  44.297  54.151  1.00  0.00     0.091 A 
HETATM   10  C   UNL     1      28.959  44.682  54.861  1.00  0.00     0.044 A 
HETATM   11 BR   UNL     1      30.362  43.454  55.174  1.00  0.00    -0.048 Br
HETATM   12  C   UNL     1      29.067  45.982  55.348  1.00  0.00     0.022 A 
HETATM   13  C   UNL     1      28.035  46.895  55.120  1.00  0.00     0.002 A 
HETATM   14  C   UNL     1      26.898  46.511  54.402  1.00  0.00     0.012 A 
BRANCH   9  15
HETATM   15  O   UNL     1      27.666  43.015  53.679  1.00  0.00    -0.359 OA
HETATM   16  H   UNL     1      28.352  42.473  54.129  1.00  0.00     0.218 HD
ENDBRANCH   9  15
ENDBRANCH   7   8
ENDBRANCH   3   7
BRANCH   1  17
HETATM   17  C   UNL     1      24.130  46.218  49.734  1.00  0.00     0.127 C 
BRANCH  17  18
HETATM   18  N   UNL     1      24.530  47.608  49.545  1.00  0.00    -0.376 N 
HETATM   19  H   UNL     1      25.220  47.919  50.236  1.00  0.00     0.161 HD
BRANCH  18  20
HETATM   20  C   UNL     1      23.682  48.673  49.247  1.00  0.00     0.100 A 
HETATM   21  C   UNL     1      24.171  49.715  48.439  1.00  0.00     0.048 A 
HETATM   22  C   UNL     1      23.348  50.780  48.080  1.00  0.00     0.005 A 
HETATM   23  C   UNL     1      22.033  50.798  48.514  1.00  0.00     0.017 A 
HETATM   24  C   UNL     1      21.571  49.744  49.286  1.00  0.00     0.089 A 
HETATM   25  N   UNL     1      22.391  48.730  49.613  1.00  0.00    -0.353 N 
HETATM   26  H   UNL     1      21.996  47.977  50.164  1.00  0.00     0.166 HD
ENDBRANCH  18  20
ENDBRANCH  17  18
ENDBRANCH   1  17
TORSDOF 6
ENDMDL
MODEL 7
REMARK VINA RESULT:      -7.4     12.104     13.246
REMARK  6 active torsions:
REMARK  status: ('A' for Active; 'I' for Inactive)
REMARK    1  A    between atoms: C_3  and  N_4 
REMARK    2  A    between atoms: N_4  and  C_5 
REMARK    3  A    between atoms: C_5  and  C_6 
REMARK    4  A    between atoms: N_8  and  C_10 
REMARK    5  A    between atoms: C_10  and  C_11 
REMARK    6  A    between atoms: C_12  and  O_13 
ROOT
HETATM    1  C   UNL     1      28.838  48.464  41.807  1.00  0.00     0.031 C 
HETATM    2  C   UNL     1      27.998  49.732  41.660  1.00  0.00     0.241 C 
HETATM    3  N   UNL     1      27.479  49.709  40.247  1.00  0.00    -0.067 N 
HETATM    4  H   UNL     1      26.445  49.804  40.294  1.00  0.00     0.280 HD
HETATM    5  C   UNL     1      27.773  48.361  39.643  1.00  0.00     0.235 C 
HETATM    6  C   UNL     1      28.150  47.502  40.838  1.00  0.00     0.035 C 
ENDROOT
BRANCH   3   7
HETATM    7  C   UNL     1      27.873  50.890  39.396  1.00  0.00     0.276 C 
BRANCH   7   8
HETATM    8  C   UNL     1      29.136  51.562  39.856  1.00  0.00     0.002 A 
HETATM    9  C   UNL     1      30.360  51.288  39.230  1.00  0.00     0.091 A 
HETATM   10  C   UNL     1      31.529  51.950  39.614  1.00  0.00     0.044 A 
HETATM   11 BR   UNL     1      33.175  51.579  38.758  1.00  0.00    -0.048 Br
HETATM   12  C   UNL     1      31.489  52.892  40.639  1.00  0.00     0.022 A 
HETATM   13  C   UNL     1      30.278  53.172  41.275  1.00  0.00     0.002 A 
HETATM   14  C   UNL     1      29.107  52.516  40.884  1.00  0.00     0.012 A 
BRANCH   9  15
HETATM   15  O   UNL     1      30.367  50.334  38.241  1.00  0.00    -0.359 OA
HETATM   16  H   UNL     1      30.474  50.820  37.392  1.00  0.00     0.218 HD
ENDBRANCH   9  15
ENDBRANCH   7   8
ENDBRANCH   3   7
BRANCH   1  17
HETATM   17  C   UNL     1      30.335  48.659  41.491  1.00  0.00     0.127 C 
BRANCH  17  18
HETATM   18  N   UNL     1      31.050  49.052  42.700  1.00  0.00    -0.376 N 
HETATM   19  H   UNL     1      30.420  49.290  43.472  1.00  0.00     0.161 HD
BRANCH  18  20
HETATM   20  C   UNL     1      32.167  49.883  42.760  1.00  0.00     0.100 A 
HETATM   21  C   UNL     1      32.166  50.943  43.683  1.00  0.00     0.048 A 
HETATM   22  C   UNL     1      33.277  51.775  43.809  1.00  0.00     0.005 A 
HETATM   23  C   UNL     1      34.394  51.538  43.025  1.00  0.00     0.017 A 
HETATM   24  C   UNL     1      34.377  50.469  42.144  1.00  0.00     0.089 A 
HETATM   25  N   UNL     1      33.289  49.683  42.049  1.00  0.00    -0.353 N 
HETATM   26  H   UNL     1      33.337  48.905  41.402  1.00  0.00     0.166 HD
ENDBRANCH  18  20
ENDBRANCH  17  18
ENDBRANCH   1  17
TORSDOF 6
ENDMDL
MODEL 8
REMARK VINA RESULT:      -7.3      4.979      5.929
REMARK  6 active torsions:
REMARK  status: ('A' for Active; 'I' for Inactive)
REMARK    1  A    between atoms: C_3  and  N_4 
REMARK    2  A    between atoms: N_4  and  C_5 
REMARK    3  A    between atoms: C_5  and  C_6 
REMARK    4  A    between atoms: N_8  and  C_10 
REMARK    5  A    between atoms: C_10  and  C_11 
REMARK    6  A    between atoms: C_12  and  O_13 
ROOT
HETATM    1  C   UNL     1      26.427  45.355  52.459  1.00  0.00     0.031 C 
HETATM    2  C   UNL     1      27.234  44.545  51.446  1.00  0.00     0.241 C 
HETATM    3  N   UNL     1      26.351  43.389  51.059  1.00  0.00    -0.067 N 
HETATM    4  H   UNL     1      26.272  43.394  50.022  1.00  0.00     0.280 HD
HETATM    5  C   UNL     1      24.970  43.628  51.610  1.00  0.00     0.235 C 
HETATM    6  C   UNL     1      24.988  45.092  52.015  1.00  0.00     0.035 C 
ENDROOT
BRANCH   3   7
HETATM    7  C   UNL     1      26.921  42.021  51.333  1.00  0.00     0.276 C 
BRANCH   7   8
HETATM    8  C   UNL     1      27.443  41.333  50.104  1.00  0.00     0.002 A 
HETATM    9  C   UNL     1      28.332  40.254  50.211  1.00  0.00     0.091 A 
HETATM   10  C   UNL     1      28.779  39.574  49.075  1.00  0.00     0.044 A 
HETATM   11 BR   UNL     1      29.972  38.115  49.232  1.00  0.00    -0.048 Br
HETATM   12  C   UNL     1      28.346  39.971  47.813  1.00  0.00     0.022 A 
HETATM   13  C   UNL     1      27.465  41.047  47.690  1.00  0.00     0.002 A 
HETATM   14  C   UNL     1      27.010  41.722  48.827  1.00  0.00     0.012 A 
BRANCH   9  15
HETATM   15  O   UNL     1      28.758  39.907  51.471  1.00  0.00    -0.359 OA
HETATM   16  H   UNL     1      27.963  39.574  51.947  1.00  0.00     0.218 HD
ENDBRANCH   9  15
ENDBRANCH   7   8
ENDBRANCH   3   7
BRANCH   1  17
HETATM   17  C   UNL     1      26.679  44.959  53.928  1.00  0.00     0.127 C 
BRANCH  17  18
HETATM   18  N   UNL     1      27.869  45.638  54.428  1.00  0.00    -0.376 N 
HETATM   19  H   UNL     1      28.240  46.325  53.764  1.00  0.00     0.161 HD
BRANCH  18  20
HETATM   20  C   UNL     1      28.935  45.041  55.099  1.00  0.00     0.100 A 
HETATM   21  C   UNL     1      29.476  43.854  54.576  1.00  0.00     0.048 A 
HETATM   22  C   UNL     1      30.568  43.243  55.188  1.00  0.00     0.005 A 
HETATM   23  C   UNL     1      31.130  43.825  56.312  1.00  0.00     0.017 A 
HETATM   24  C   UNL     1      30.592  45.010  56.789  1.00  0.00     0.089 A 
HETATM   25  N   UNL     1      29.539  45.575  56.173  1.00  0.00    -0.353 N 
HETATM   26  H   UNL     1      29.198  46.450  56.553  1.00  0.00     0.166 HD
ENDBRANCH  18  20
ENDBRANCH  17  18
ENDBRANCH   1  17
TORSDOF 6
ENDMDL
MODEL 9
REMARK VINA RESULT:      -7.2      4.074      8.735
REMARK  6 active torsions:
REMARK  status: ('A' for Active; 'I' for Inactive)
REMARK    1  A    between atoms: C_3  and  N_4 
REMARK    2  A    between atoms: N_4  and  C_5 
REMARK    3  A    between atoms: C_5  and  C_6 
REMARK    4  A    between atoms: N_8  and  C_10 
REMARK    5  A    between atoms: C_10  and  C_11 
REMARK    6  A    between atoms: C_12  and  O_13 
ROOT
HETATM    1  C   UNL     1      25.034  47.115  50.354  1.00  0.00     0.031 C 
HETATM    2  C   UNL     1      25.246  46.497  51.735  1.00  0.00     0.241 C 
HETATM    3  N   UNL     1      26.332  45.469  51.555  1.00  0.00    -0.067 N 
HETATM    4  H   UNL     1      27.077  45.682  52.247  1.00  0.00     0.280 HD
HETATM    5  C   UNL     1      26.937  45.637  50.186  1.00  0.00     0.235 C 
HETATM    6  C   UNL     1      26.423  46.991  49.725  1.00  0.00     0.035 C 
ENDROOT
BRANCH   3   7
HETATM    7  C   UNL     1      25.949  44.057  51.915  1.00  0.00     0.276 C 
BRANCH   7   8
HETATM    8  C   UNL     1      27.124  43.193  52.278  1.00  0.00     0.002 A 
HETATM    9  C   UNL     1      28.030  43.598  53.268  1.00  0.00     0.091 A 
HETATM   10  C   UNL     1      29.094  42.776  53.650  1.00  0.00     0.044 A 
HETATM   11 BR   UNL     1      30.306  43.328  54.993  1.00  0.00    -0.048 Br
HETATM   12  C   UNL     1      29.269  41.538  53.037  1.00  0.00     0.022 A 
HETATM   13  C   UNL     1      28.377  41.123  52.046  1.00  0.00     0.002 A 
HETATM   14  C   UNL     1      27.308  41.942  51.671  1.00  0.00     0.012 A 
BRANCH   9  15
HETATM   15  O   UNL     1      27.841  44.837  53.832  1.00  0.00    -0.359 OA
HETATM   16  H   UNL     1      28.699  45.083  54.246  1.00  0.00     0.218 HD
ENDBRANCH   9  15
ENDBRANCH   7   8
ENDBRANCH   3   7
BRANCH   1  17
HETATM   17  C   UNL     1      23.938  46.427  49.516  1.00  0.00     0.127 C 
BRANCH  17  18
HETATM   18  N   UNL     1      22.734  47.252  49.502  1.00  0.00    -0.376 N 
HETATM   19  H   UNL     1      21.944  46.791  49.041  1.00  0.00     0.161 HD
BRANCH  18  20
HETATM   20  C   UNL     1      22.678  48.618  49.232  1.00  0.00     0.100 A 
HETATM   21  C   UNL     1      23.395  49.114  48.129  1.00  0.00     0.048 A 
HETATM   22  C   UNL     1      23.337  50.465  47.794  1.00  0.00     0.005 A 
HETATM   23  C   UNL     1      22.550  51.318  48.550  1.00  0.00     0.017 A 
HETATM   24  C   UNL     1      21.832  50.796  49.614  1.00  0.00     0.089 A 
HETATM   25  N   UNL     1      21.909  49.486  49.909  1.00  0.00    -0.353 N 
HETATM   26  H   UNL     1      21.349  49.155  50.686  1.00  0.00     0.166 HD
ENDBRANCH  18  20
ENDBRANCH  17  18
ENDBRANCH   1  17
TORSDOF 6
ENDMDL
MODEL 10
REMARK VINA RESULT:      -7.2      3.100      7.509
REMARK  6 active torsions:
REMARK  status: ('A' for Active; 'I' for Inactive)
REMARK    1  A    between atoms: C_3  and  N_4 
REMARK    2  A    between atoms: N_4  and  C_5 
REMARK    3  A    between atoms: C_5  and  C_6 
REMARK    4  A    between atoms: N_8  and  C_10 
REMARK    5  A    between atoms: C_10  and  C_11 
REMARK    6  A    between atoms: C_12  and  O_13 
ROOT
HETATM    1  C   UNL     1      26.067  44.557  49.654  1.00  0.00     0.031 C 
HETATM    2  C   UNL     1      26.983  44.787  50.856  1.00  0.00     0.241 C 
HETATM    3  N   UNL     1      27.006  43.480  51.602  1.00  0.00    -0.067 N 
HETATM    4  H   UNL     1      28.002  43.205  51.714  1.00  0.00     0.280 HD
HETATM    5  C   UNL     1      26.347  42.425  50.753  1.00  0.00     0.235 C 
HETATM    6  C   UNL     1      26.262  43.065  49.378  1.00  0.00     0.035 C 
ENDROOT
BRANCH   3   7
HETATM    7  C   UNL     1      26.526  43.544  53.030  1.00  0.00     0.276 C 
BRANCH   7   8
HETATM    8  C   UNL     1      27.278  44.538  53.869  1.00  0.00     0.002 A 
HETATM    9  C   UNL     1      26.700  45.770  54.207  1.00  0.00     0.091 A 
HETATM   10  C   UNL     1      27.370  46.677  55.032  1.00  0.00     0.044 A 
HETATM   11 BR   UNL     1      26.579  48.333  55.489  1.00  0.00    -0.048 Br
HETATM   12  C   UNL     1      28.634  46.364  55.525  1.00  0.00     0.022 A 
HETATM   13  C   UNL     1      29.224  45.143  55.194  1.00  0.00     0.002 A 
HETATM   14  C   UNL     1      28.549  44.232  54.375  1.00  0.00     0.012 A 
BRANCH   9  15
HETATM   15  O   UNL     1      25.463  46.056  53.681  1.00  0.00    -0.359 OA
HETATM   16  H   UNL     1      25.522  46.972  53.325  1.00  0.00     0.218 HD
ENDBRANCH   9  15
ENDBRANCH   7   8
ENDBRANCH   3   7
BRANCH   1  17
HETATM   17  C   UNL     1      24.592  44.928  49.905  1.00  0.00     0.127 C 
BRANCH  17  18
HETATM   18  N   UNL     1      24.514  46.217  50.585  1.00  0.00    -0.376 N 
HETATM   19  H   UNL     1      23.939  46.183  51.431  1.00  0.00     0.161 HD
BRANCH  18  20
HETATM   20  C   UNL     1      24.344  47.458  49.975  1.00  0.00     0.100 A 
HETATM   21  C   UNL     1      25.481  48.133  49.499  1.00  0.00     0.048 A 
HETATM   22  C   UNL     1      25.357  49.357  48.845  1.00  0.00     0.005 A 
HETATM   23  C   UNL     1      24.097  49.900  48.652  1.00  0.00     0.017 A 
HETATM   24  C   UNL     1      22.992  49.198  49.108  1.00  0.00     0.089 A 
HETATM   25  N   UNL     1      23.147  48.017  49.733  1.00  0.00    -0.353 N 
HETATM   26  H   UNL     1      22.304  47.539  50.030  1.00  0.00     0.166 HD
ENDBRANCH  18  20
ENDBRANCH  17  18
ENDBRANCH   1  17
TORSDOF 6
ENDMDL
