MODEL 1
REMARK VINA RESULT:      -9.1      0.000      0.000
REMARK  8 active torsions:
REMARK  status: ('A' for Active; 'I' for Inactive)
REMARK    1  A    between atoms: C_2  and  C_3 
REMARK    2  A    between atoms: C_3  and  C_4 
REMARK       I    between atoms: C_4  and  N_5 
REMARK    3  A    between atoms: N_8  and  C_9 
REMARK    4  A    between atoms: C_13  and  N_14 
REMARK    5  A    between atoms: N_14  and  C_15 
REMARK    6  A    between atoms: C_15  and  N_16 
REMARK       I    between atoms: N_16  and  C_17 
REMARK    7  A    between atoms: C_17  and  C_18 
REMARK    8  A    between atoms: C_20  and  O_21 
ROOT
HETATM    1  C   UNL     1      24.498  46.688  49.444  1.00  0.00     0.052 A 
HETATM    2  C   UNL     1      25.877  46.984  49.572  1.00  0.00     0.062 A 
HETATM    3 CL   UNL     1      26.519  48.548  49.179  1.00  0.00    -0.082 Cl
HETATM    4  C   UNL     1      26.815  45.996  49.930  1.00  0.00     0.055 A 
HETATM    5  C   UNL     1      26.410  44.675  50.110  1.00  0.00     0.036 A 
HETATM    6  C   UNL     1      25.051  44.383  50.066  1.00  0.00     0.032 A 
HETATM    7  C   UNL     1      24.115  45.372  49.743  1.00  0.00     0.033 A 
ENDROOT
BRANCH   5   8
HETATM    8  N   UNL     1      27.388  43.689  50.360  1.00  0.00    -0.333 N 
HETATM    9  H   UNL     1      28.088  43.543  49.631  1.00  0.00     0.168 HD
BRANCH   8  10
HETATM   10  C   UNL     1      27.414  42.744  51.360  1.00  0.00     0.179 C 
HETATM   11  S   UNL     1      26.927  41.141  51.306  1.00  0.00    -0.040 SA
BRANCH  10  12
HETATM   12  N   UNL     1      27.931  43.160  52.569  1.00  0.00    -0.299 N 
HETATM   13  C   UNL     1      29.147  42.862  53.166  1.00  0.00     0.257 C 
HETATM   14  O   UNL     1      29.928  42.012  52.752  1.00  0.00    -0.267 OA
HETATM   15  H   UNL     1      27.355  43.875  52.992  1.00  0.00     0.171 HD
BRANCH  13  16
HETATM   16  C   UNL     1      29.474  43.681  54.367  1.00  0.00     0.035 A 
HETATM   17  C   UNL     1      28.760  44.846  54.679  1.00  0.00     0.053 A 
HETATM   18  C   UNL     1      29.152  45.651  55.753  1.00  0.00     0.069 A 
HETATM   19  C   UNL     1      30.240  45.269  56.537  1.00  0.00     0.037 A 
HETATM   20  C   UNL     1      30.930  44.087  56.252  1.00  0.00     0.004 A 
HETATM   21  C   UNL     1      30.548  43.293  55.169  1.00  0.00     0.017 A 
BRANCH  18  22
HETATM   22  O   UNL     1      28.391  46.775  55.922  1.00  0.00    -0.356 OA
HETATM   23  C   UNL     1      27.325  46.976  55.001  1.00  0.00     0.210 C 
ENDBRANCH  18  22
ENDBRANCH  13  16
ENDBRANCH  10  12
ENDBRANCH   8  10
ENDBRANCH   5   8
BRANCH   1  24
HETATM   24  N   UNL     1      23.560  47.629  48.977  1.00  0.00    -0.376 N 
HETATM   25  C   UNL     1      23.319  48.789  49.863  1.00  0.00     0.143 C 
HETATM   26  C   UNL     1      22.594  49.908  49.079  1.00  0.00     0.145 C 
HETATM   27  N   UNL     1      21.387  49.430  48.381  1.00  0.00    -0.349 N 
HETATM   28  C   UNL     1      20.299  50.225  48.039  1.00  0.00     0.219 C 
HETATM   29  C   UNL     1      21.563  48.185  47.623  1.00  0.00     0.145 C 
HETATM   30  O   UNL     1      19.364  49.786  47.369  1.00  0.00    -0.273 OA
HETATM   31  C   UNL     1      22.297  47.097  48.416  1.00  0.00     0.143 C 
BRANCH  28  32
HETATM   32  C   UNL     1      20.306  51.661  48.543  1.00  0.00     0.103 C 
BRANCH  32  33
HETATM   33  C   UNL     1      18.962  52.374  48.378  1.00  0.00     0.005 C 
HETATM   34  C   UNL     1      18.123  52.371  49.650  1.00  0.00     0.005 C 
ENDBRANCH  32  33
ENDBRANCH  28  32
ENDBRANCH   1  24
TORSDOF 8
ENDMDL
MODEL 2
REMARK VINA RESULT:      -8.7      2.420     10.489
REMARK  8 active torsions:
REMARK  status: ('A' for Active; 'I' for Inactive)
REMARK    1  A    between atoms: C_2  and  C_3 
REMARK    2  A    between atoms: C_3  and  C_4 
REMARK       I    between atoms: C_4  and  N_5 
REMARK    3  A    between atoms: N_8  and  C_9 
REMARK    4  A    between atoms: C_13  and  N_14 
REMARK    5  A    between atoms: N_14  and  C_15 
REMARK    6  A    between atoms: C_15  and  N_16 
REMARK       I    between atoms: N_16  and  C_17 
REMARK    7  A    between atoms: C_17  and  C_18 
REMARK    8  A    between atoms: C_20  and  O_21 
ROOT
HETATM    1  C   UNL     1      25.344  45.078  51.169  1.00  0.00     0.052 A 
HETATM    2  C   UNL     1      25.037  46.159  50.306  1.00  0.00     0.062 A 
HETATM    3 CL   UNL     1      25.914  47.656  50.366  1.00  0.00    -0.082 Cl
HETATM    4  C   UNL     1      23.941  46.112  49.424  1.00  0.00     0.055 A 
HETATM    5  C   UNL     1      23.086  45.011  49.421  1.00  0.00     0.036 A 
HETATM    6  C   UNL     1      23.418  43.910  50.204  1.00  0.00     0.032 A 
HETATM    7  C   UNL     1      24.526  43.943  51.056  1.00  0.00     0.033 A 
ENDROOT
BRANCH   5   8
HETATM    8  N   UNL     1      21.936  45.042  48.605  1.00  0.00    -0.333 N 
HETATM    9  H   UNL     1      21.247  44.303  48.756  1.00  0.00     0.168 HD
BRANCH   8  10
HETATM   10  C   UNL     1      21.702  45.807  47.485  1.00  0.00     0.179 C 
HETATM   11  S   UNL     1      21.919  45.405  45.873  1.00  0.00    -0.040 SA
BRANCH  10  12
HETATM   12  N   UNL     1      21.198  47.070  47.713  1.00  0.00    -0.299 N 
HETATM   13  C   UNL     1      20.049  47.463  48.383  1.00  0.00     0.257 C 
HETATM   14  O   UNL     1      19.177  46.689  48.766  1.00  0.00    -0.267 OA
HETATM   15  H   UNL     1      21.854  47.787  47.433  1.00  0.00     0.171 HD
BRANCH  13  16
HETATM   16  C   UNL     1      19.943  48.925  48.644  1.00  0.00     0.035 A 
HETATM   17  C   UNL     1      18.870  49.468  49.366  1.00  0.00     0.053 A 
HETATM   18  C   UNL     1      18.739  50.852  49.508  1.00  0.00     0.069 A 
HETATM   19  C   UNL     1      19.704  51.694  48.956  1.00  0.00     0.037 A 
HETATM   20  C   UNL     1      20.796  51.154  48.268  1.00  0.00     0.004 A 
HETATM   21  C   UNL     1      20.916  49.773  48.112  1.00  0.00     0.017 A 
BRANCH  18  22
HETATM   22  O   UNL     1      17.629  51.245  50.203  1.00  0.00    -0.356 OA
HETATM   23  C   UNL     1      17.076  52.513  49.872  1.00  0.00     0.210 C 
ENDBRANCH  18  22
ENDBRANCH  13  16
ENDBRANCH  10  12
ENDBRANCH   8  10
ENDBRANCH   5   8
BRANCH   1  24
HETATM   24  N   UNL     1      26.362  45.146  52.139  1.00  0.00    -0.376 N 
HETATM   25  C   UNL     1      27.103  43.889  52.380  1.00  0.00     0.143 C 
HETATM   26  C   UNL     1      28.411  44.188  53.150  1.00  0.00     0.145 C 
HETATM   27  N   UNL     1      28.190  44.993  54.365  1.00  0.00    -0.349 N 
HETATM   28  C   UNL     1      29.022  44.997  55.479  1.00  0.00     0.219 C 
HETATM   29  C   UNL     1      27.321  46.162  54.182  1.00  0.00     0.145 C 
HETATM   30  O   UNL     1      28.836  45.766  56.422  1.00  0.00    -0.273 OA
HETATM   31  C   UNL     1      26.039  45.843  53.405  1.00  0.00     0.143 C 
BRANCH  28  32
HETATM   32  C   UNL     1      30.168  43.995  55.488  1.00  0.00     0.103 C 
BRANCH  32  33
HETATM   33  C   UNL     1      31.244  44.307  56.532  1.00  0.00     0.005 C 
HETATM   34  C   UNL     1      31.909  43.058  57.097  1.00  0.00     0.005 C 
ENDBRANCH  32  33
ENDBRANCH  28  32
ENDBRANCH   1  24
TORSDOF 8
ENDMDL
MODEL 3
REMARK VINA RESULT:      -8.5      2.707     11.390
REMARK  8 active torsions:
REMARK  status: ('A' for Active; 'I' for Inactive)
REMARK    1  A    between atoms: C_2  and  C_3 
REMARK    2  A    between atoms: C_3  and  C_4 
REMARK       I    between atoms: C_4  and  N_5 
REMARK    3  A    between atoms: N_8  and  C_9 
REMARK    4  A    between atoms: C_13  and  N_14 
REMARK    5  A    between atoms: N_14  and  C_15 
REMARK    6  A    between atoms: C_15  and  N_16 
REMARK       I    between atoms: N_16  and  C_17 
REMARK    7  A    between atoms: C_17  and  C_18 
REMARK    8  A    between atoms: C_20  and  O_21 
ROOT
HETATM    1  C   UNL     1      25.230  45.709  50.881  1.00  0.00     0.052 A 
HETATM    2  C   UNL     1      24.263  45.097  50.047  1.00  0.00     0.062 A 
HETATM    3 CL   UNL     1      24.154  43.372  49.882  1.00  0.00    -0.082 Cl
HETATM    4  C   UNL     1      23.404  45.857  49.230  1.00  0.00     0.055 A 
HETATM    5  C   UNL     1      23.528  47.245  49.179  1.00  0.00     0.036 A 
HETATM    6  C   UNL     1      24.417  47.866  50.049  1.00  0.00     0.032 A 
HETATM    7  C   UNL     1      25.247  47.112  50.885  1.00  0.00     0.033 A 
ENDROOT
BRANCH   5   8
HETATM    8  N   UNL     1      22.728  47.969  48.270  1.00  0.00    -0.333 N 
HETATM    9  H   UNL     1      22.284  47.433  47.523  1.00  0.00     0.168 HD
BRANCH   8  10
HETATM   10  C   UNL     1      22.624  49.333  48.120  1.00  0.00     0.179 C 
HETATM   11  S   UNL     1      23.826  50.446  47.764  1.00  0.00    -0.040 SA
BRANCH  10  12
HETATM   12  N   UNL     1      21.357  49.860  48.257  1.00  0.00    -0.299 N 
HETATM   13  C   UNL     1      20.839  50.684  49.245  1.00  0.00     0.257 C 
HETATM   14  O   UNL     1      21.424  50.962  50.287  1.00  0.00    -0.267 OA
HETATM   15  H   UNL     1      20.792  49.687  47.437  1.00  0.00     0.171 HD
BRANCH  13  16
HETATM   16  C   UNL     1      19.496  51.254  48.947  1.00  0.00     0.035 A 
HETATM   17  C   UNL     1      18.955  51.226  47.653  1.00  0.00     0.053 A 
HETATM   18  C   UNL     1      17.739  51.858  47.379  1.00  0.00     0.069 A 
HETATM   19  C   UNL     1      17.045  52.489  48.411  1.00  0.00     0.037 A 
HETATM   20  C   UNL     1      17.562  52.486  49.710  1.00  0.00     0.004 A 
HETATM   21  C   UNL     1      18.785  51.869  49.979  1.00  0.00     0.017 A 
BRANCH  18  22
HETATM   22  O   UNL     1      17.348  51.784  46.071  1.00  0.00    -0.356 OA
HETATM   23  C   UNL     1      16.198  52.535  45.699  1.00  0.00     0.210 C 
ENDBRANCH  18  22
ENDBRANCH  13  16
ENDBRANCH  10  12
ENDBRANCH   8  10
ENDBRANCH   5   8
BRANCH   1  24
HETATM   24  N   UNL     1      26.175  44.969  51.618  1.00  0.00    -0.376 N 
HETATM   25  C   UNL     1      26.582  45.556  52.912  1.00  0.00     0.143 C 
HETATM   26  C   UNL     1      27.295  44.488  53.774  1.00  0.00     0.145 C 
HETATM   27  N   UNL     1      28.389  43.809  53.057  1.00  0.00    -0.349 N 
HETATM   28  C   UNL     1      29.486  43.208  53.665  1.00  0.00     0.219 C 
HETATM   29  C   UNL     1      28.052  43.357  51.701  1.00  0.00     0.145 C 
HETATM   30  O   UNL     1      30.315  42.571  53.016  1.00  0.00    -0.273 OA
HETATM   31  C   UNL     1      27.335  44.428  50.872  1.00  0.00     0.143 C 
BRANCH  28  32
HETATM   32  C   UNL     1      29.626  43.387  55.170  1.00  0.00     0.103 C 
BRANCH  32  33
HETATM   33  C   UNL     1      31.036  43.791  55.609  1.00  0.00     0.005 C 
HETATM   34  C   UNL     1      31.415  43.241  56.979  1.00  0.00     0.005 C 
ENDBRANCH  32  33
ENDBRANCH  28  32
ENDBRANCH   1  24
TORSDOF 8
ENDMDL
MODEL 4
REMARK VINA RESULT:      -8.5      2.831     11.324
REMARK  8 active torsions:
REMARK  status: ('A' for Active; 'I' for Inactive)
REMARK    1  A    between atoms: C_2  and  C_3 
REMARK    2  A    between atoms: C_3  and  C_4 
REMARK       I    between atoms: C_4  and  N_5 
REMARK    3  A    between atoms: N_8  and  C_9 
REMARK    4  A    between atoms: C_13  and  N_14 
REMARK    5  A    between atoms: N_14  and  C_15 
REMARK    6  A    between atoms: C_15  and  N_16 
REMARK       I    between atoms: N_16  and  C_17 
REMARK    7  A    between atoms: C_17  and  C_18 
REMARK    8  A    between atoms: C_20  and  O_21 
ROOT
HETATM    1  C   UNL     1      25.152  45.705  50.873  1.00  0.00     0.052 A 
HETATM    2  C   UNL     1      24.154  45.054  50.107  1.00  0.00     0.062 A 
HETATM    3 CL   UNL     1      24.046  43.323  50.025  1.00  0.00    -0.082 Cl
HETATM    4  C   UNL     1      23.260  45.775  49.292  1.00  0.00     0.055 A 
HETATM    5  C   UNL     1      23.377  47.159  49.173  1.00  0.00     0.036 A 
HETATM    6  C   UNL     1      24.298  47.821  49.978  1.00  0.00     0.032 A 
HETATM    7  C   UNL     1      25.164  47.107  50.813  1.00  0.00     0.033 A 
ENDROOT
BRANCH   5   8
HETATM    8  N   UNL     1      22.538  47.839  48.265  1.00  0.00    -0.333 N 
HETATM    9  H   UNL     1      22.209  47.307  47.458  1.00  0.00     0.168 HD
BRANCH   8  10
HETATM   10  C   UNL     1      22.263  49.186  48.199  1.00  0.00     0.179 C 
HETATM   11  S   UNL     1      23.308  50.458  47.883  1.00  0.00    -0.040 SA
BRANCH  10  12
HETATM   12  N   UNL     1      20.946  49.543  48.396  1.00  0.00    -0.299 N 
HETATM   13  C   UNL     1      20.390  50.420  49.315  1.00  0.00     0.257 C 
HETATM   14  O   UNL     1      21.009  50.927  50.245  1.00  0.00    -0.267 OA
HETATM   15  H   UNL     1      20.349  49.174  47.668  1.00  0.00     0.171 HD
BRANCH  13  16
HETATM   16  C   UNL     1      18.955  50.745  49.084  1.00  0.00     0.035 A 
HETATM   17  C   UNL     1      18.328  51.814  49.740  1.00  0.00     0.053 A 
HETATM   18  C   UNL     1      16.956  52.033  49.586  1.00  0.00     0.069 A 
HETATM   19  C   UNL     1      16.217  51.203  48.744  1.00  0.00     0.037 A 
HETATM   20  C   UNL     1      16.847  50.159  48.058  1.00  0.00     0.004 A 
HETATM   21  C   UNL     1      18.213  49.930  48.227  1.00  0.00     0.017 A 
BRANCH  18  22
HETATM   22  O   UNL     1      16.469  53.086  50.311  1.00  0.00    -0.356 OA
HETATM   23  C   UNL     1      15.058  53.272  50.309  1.00  0.00     0.210 C 
ENDBRANCH  18  22
ENDBRANCH  13  16
ENDBRANCH  10  12
ENDBRANCH   8  10
ENDBRANCH   5   8
BRANCH   1  24
HETATM   24  N   UNL     1      26.128  45.002  51.603  1.00  0.00    -0.376 N 
HETATM   25  C   UNL     1      26.562  45.633  52.868  1.00  0.00     0.143 C 
HETATM   26  C   UNL     1      27.315  44.601  53.741  1.00  0.00     0.145 C 
HETATM   27  N   UNL     1      28.400  43.917  53.013  1.00  0.00    -0.349 N 
HETATM   28  C   UNL     1      29.523  43.352  53.607  1.00  0.00     0.219 C 
HETATM   29  C   UNL     1      28.033  43.422  51.680  1.00  0.00     0.145 C 
HETATM   30  O   UNL     1      30.343  42.708  52.953  1.00  0.00    -0.273 OA
HETATM   31  C   UNL     1      27.276  44.457  50.842  1.00  0.00     0.143 C 
BRANCH  28  32
HETATM   32  C   UNL     1      29.701  43.576  55.101  1.00  0.00     0.103 C 
BRANCH  32  33
HETATM   33  C   UNL     1      31.157  43.476  55.565  1.00  0.00     0.005 C 
HETATM   34  C   UNL     1      31.295  43.338  57.076  1.00  0.00     0.005 C 
ENDBRANCH  32  33
ENDBRANCH  28  32
ENDBRANCH   1  24
TORSDOF 8
ENDMDL
MODEL 5
REMARK VINA RESULT:      -8.4      1.910      2.704
REMARK  8 active torsions:
REMARK  status: ('A' for Active; 'I' for Inactive)
REMARK    1  A    between atoms: C_2  and  C_3 
REMARK    2  A    between atoms: C_3  and  C_4 
REMARK       I    between atoms: C_4  and  N_5 
REMARK    3  A    between atoms: N_8  and  C_9 
REMARK    4  A    between atoms: C_13  and  N_14 
REMARK    5  A    between atoms: N_14  and  C_15 
REMARK    6  A    between atoms: C_15  and  N_16 
REMARK       I    between atoms: N_16  and  C_17 
REMARK    7  A    between atoms: C_17  and  C_18 
REMARK    8  A    between atoms: C_20  and  O_21 
ROOT
HETATM    1  C   UNL     1      23.281  47.777  49.078  1.00  0.00     0.052 A 
HETATM    2  C   UNL     1      23.210  46.366  48.979  1.00  0.00     0.062 A 
HETATM    3 CL   UNL     1      21.725  45.549  48.604  1.00  0.00    -0.082 Cl
HETATM    4  C   UNL     1      24.315  45.547  49.276  1.00  0.00     0.055 A 
HETATM    5  C   UNL     1      25.503  46.110  49.739  1.00  0.00     0.036 A 
HETATM    6  C   UNL     1      25.616  47.496  49.767  1.00  0.00     0.032 A 
HETATM    7  C   UNL     1      24.528  48.311  49.439  1.00  0.00     0.033 A 
ENDROOT
BRANCH   5   8
HETATM    8  N   UNL     1      26.556  45.256  50.133  1.00  0.00    -0.333 N 
HETATM    9  H   UNL     1      27.400  45.276  49.560  1.00  0.00     0.168 HD
BRANCH   8  10
HETATM   10  C   UNL     1      26.531  44.242  51.063  1.00  0.00     0.179 C 
HETATM   11  S   UNL     1      25.566  42.872  51.099  1.00  0.00    -0.040 SA
BRANCH  10  12
HETATM   12  N   UNL     1      27.438  44.350  52.096  1.00  0.00    -0.299 N 
HETATM   13  C   UNL     1      27.223  44.565  53.449  1.00  0.00     0.257 C 
HETATM   14  O   UNL     1      26.136  44.861  53.936  1.00  0.00    -0.267 OA
HETATM   15  H   UNL     1      28.374  44.117  51.794  1.00  0.00     0.171 HD
BRANCH  13  16
HETATM   16  C   UNL     1      28.423  44.387  54.313  1.00  0.00     0.035 A 
HETATM   17  C   UNL     1      28.712  45.269  55.364  1.00  0.00     0.053 A 
HETATM   18  C   UNL     1      29.897  45.139  56.092  1.00  0.00     0.069 A 
HETATM   19  C   UNL     1      30.780  44.102  55.791  1.00  0.00     0.037 A 
HETATM   20  C   UNL     1      30.476  43.197  54.769  1.00  0.00     0.004 A 
HETATM   21  C   UNL     1      29.300  43.338  54.030  1.00  0.00     0.017 A 
BRANCH  18  22
HETATM   22  O   UNL     1      30.068  46.087  57.063  1.00  0.00    -0.356 OA
HETATM   23  C   UNL     1      30.551  45.638  58.325  1.00  0.00     0.210 C 
ENDBRANCH  18  22
ENDBRANCH  13  16
ENDBRANCH  10  12
ENDBRANCH   8  10
ENDBRANCH   5   8
BRANCH   1  24
HETATM   24  N   UNL     1      22.160  48.609  48.898  1.00  0.00    -0.376 N 
HETATM   25  C   UNL     1      21.594  48.636  47.532  1.00  0.00     0.143 C 
HETATM   26  C   UNL     1      20.176  49.254  47.561  1.00  0.00     0.145 C 
HETATM   27  N   UNL     1      20.132  50.556  48.251  1.00  0.00    -0.349 N 
HETATM   28  C   UNL     1      19.187  51.548  48.017  1.00  0.00     0.219 C 
HETATM   29  C   UNL     1      20.831  50.596  49.542  1.00  0.00     0.145 C 
HETATM   30  O   UNL     1      19.145  52.574  48.696  1.00  0.00    -0.273 OA
HETATM   31  C   UNL     1      22.226  49.965  49.490  1.00  0.00     0.143 C 
BRANCH  28  32
HETATM   32  C   UNL     1      18.211  51.317  46.872  1.00  0.00     0.103 C 
BRANCH  32  33
HETATM   33  C   UNL     1      16.750  51.226  47.322  1.00  0.00     0.005 C 
HETATM   34  C   UNL     1      16.494  50.078  48.290  1.00  0.00     0.005 C 
ENDBRANCH  32  33
ENDBRANCH  28  32
ENDBRANCH   1  24
TORSDOF 8
ENDMDL
MODEL 6
REMARK VINA RESULT:      -8.4      2.101      2.715
REMARK  8 active torsions:
REMARK  status: ('A' for Active; 'I' for Inactive)
REMARK    1  A    between atoms: C_2  and  C_3 
REMARK    2  A    between atoms: C_3  and  C_4 
REMARK       I    between atoms: C_4  and  N_5 
REMARK    3  A    between atoms: N_8  and  C_9 
REMARK    4  A    between atoms: C_13  and  N_14 
REMARK    5  A    between atoms: N_14  and  C_15 
REMARK    6  A    between atoms: C_15  and  N_16 
REMARK       I    between atoms: N_16  and  C_17 
REMARK    7  A    between atoms: C_17  and  C_18 
REMARK    8  A    between atoms: C_20  and  O_21 
ROOT
HETATM    1  C   UNL     1      23.438  44.710  49.130  1.00  0.00     0.052 A 
HETATM    2  C   UNL     1      23.878  43.609  48.355  1.00  0.00     0.062 A 
HETATM    3 CL   UNL     1      23.458  43.442  46.679  1.00  0.00    -0.082 Cl
HETATM    4  C   UNL     1      24.595  42.541  48.928  1.00  0.00     0.055 A 
HETATM    5  C   UNL     1      24.839  42.515  50.300  1.00  0.00     0.036 A 
HETATM    6  C   UNL     1      24.484  43.623  51.061  1.00  0.00     0.032 A 
HETATM    7  C   UNL     1      23.801  44.700  50.485  1.00  0.00     0.033 A 
ENDROOT
BRANCH   5   8
HETATM    8  N   UNL     1      25.464  41.380  50.861  1.00  0.00    -0.333 N 
HETATM    9  H   UNL     1      24.848  40.647  51.215  1.00  0.00     0.168 HD
BRANCH   8  10
HETATM   10  C   UNL     1      26.789  41.208  51.190  1.00  0.00     0.179 C 
HETATM   11  S   UNL     1      27.913  40.164  50.515  1.00  0.00    -0.040 SA
BRANCH  10  12
HETATM   12  N   UNL     1      27.270  42.019  52.196  1.00  0.00    -0.299 N 
HETATM   13  C   UNL     1      28.159  41.732  53.221  1.00  0.00     0.257 C 
HETATM   14  O   UNL     1      28.558  40.603  53.491  1.00  0.00    -0.267 OA
HETATM   15  H   UNL     1      26.997  42.982  52.060  1.00  0.00     0.171 HD
BRANCH  13  16
HETATM   16  C   UNL     1      28.638  42.916  53.987  1.00  0.00     0.035 A 
HETATM   17  C   UNL     1      29.889  42.925  54.621  1.00  0.00     0.053 A 
HETATM   18  C   UNL     1      30.272  44.008  55.418  1.00  0.00     0.069 A 
HETATM   19  C   UNL     1      29.415  45.099  55.552  1.00  0.00     0.037 A 
HETATM   20  C   UNL     1      28.182  45.110  54.891  1.00  0.00     0.004 A 
HETATM   21  C   UNL     1      27.794  44.021  54.109  1.00  0.00     0.017 A 
BRANCH  18  22
HETATM   22  O   UNL     1      31.500  43.869  56.005  1.00  0.00    -0.356 OA
HETATM   23  C   UNL     1      31.519  43.563  57.394  1.00  0.00     0.210 C 
ENDBRANCH  18  22
ENDBRANCH  13  16
ENDBRANCH  10  12
ENDBRANCH   8  10
ENDBRANCH   5   8
BRANCH   1  24
HETATM   24  N   UNL     1      22.622  45.730  48.605  1.00  0.00    -0.376 N 
HETATM   25  C   UNL     1      23.006  47.111  48.971  1.00  0.00     0.143 C 
HETATM   26  C   UNL     1      22.295  48.120  48.038  1.00  0.00     0.145 C 
HETATM   27  N   UNL     1      20.839  47.906  47.964  1.00  0.00    -0.349 N 
HETATM   28  C   UNL     1      19.906  48.887  47.648  1.00  0.00     0.219 C 
HETATM   29  C   UNL     1      20.429  46.510  47.761  1.00  0.00     0.145 C 
HETATM   30  O   UNL     1      18.713  48.621  47.506  1.00  0.00    -0.273 OA
HETATM   31  C   UNL     1      21.157  45.529  48.687  1.00  0.00     0.143 C 
BRANCH  28  32
HETATM   32  C   UNL     1      20.423  50.311  47.501  1.00  0.00     0.103 C 
BRANCH  32  33
HETATM   33  C   UNL     1      20.170  51.184  48.733  1.00  0.00     0.005 C 
HETATM   34  C   UNL     1      19.281  52.386  48.440  1.00  0.00     0.005 C 
ENDBRANCH  32  33
ENDBRANCH  28  32
ENDBRANCH   1  24
TORSDOF 8
ENDMDL
MODEL 7
REMARK VINA RESULT:      -8.3      2.391     10.028
REMARK  8 active torsions:
REMARK  status: ('A' for Active; 'I' for Inactive)
REMARK    1  A    between atoms: C_2  and  C_3 
REMARK    2  A    between atoms: C_3  and  C_4 
REMARK       I    between atoms: C_4  and  N_5 
REMARK    3  A    between atoms: N_8  and  C_9 
REMARK    4  A    between atoms: C_13  and  N_14 
REMARK    5  A    between atoms: N_14  and  C_15 
REMARK    6  A    between atoms: C_15  and  N_16 
REMARK       I    between atoms: N_16  and  C_17 
REMARK    7  A    between atoms: C_17  and  C_18 
REMARK    8  A    between atoms: C_20  and  O_21 
ROOT
HETATM    1  C   UNL     1      25.557  44.482  51.031  1.00  0.00     0.052 A 
HETATM    2  C   UNL     1      25.415  45.356  49.926  1.00  0.00     0.062 A 
HETATM    3 CL   UNL     1      26.490  46.696  49.673  1.00  0.00    -0.082 Cl
HETATM    4  C   UNL     1      24.335  45.246  49.030  1.00  0.00     0.055 A 
HETATM    5  C   UNL     1      23.336  44.298  49.247  1.00  0.00     0.036 A 
HETATM    6  C   UNL     1      23.501  43.382  50.279  1.00  0.00     0.032 A 
HETATM    7  C   UNL     1      24.592  43.471  51.150  1.00  0.00     0.033 A 
ENDROOT
BRANCH   5   8
HETATM    8  N   UNL     1      22.211  44.284  48.394  1.00  0.00    -0.333 N 
HETATM    9  H   UNL     1      21.504  43.571  48.580  1.00  0.00     0.168 HD
BRANCH   8  10
HETATM   10  C   UNL     1      22.026  44.964  47.212  1.00  0.00     0.179 C 
HETATM   11  S   UNL     1      21.846  44.350  45.663  1.00  0.00    -0.040 SA
BRANCH  10  12
HETATM   12  N   UNL     1      21.956  46.338  47.311  1.00  0.00    -0.299 N 
HETATM   13  C   UNL     1      20.850  47.166  47.428  1.00  0.00     0.257 C 
HETATM   14  O   UNL     1      19.689  46.787  47.300  1.00  0.00    -0.267 OA
HETATM   15  H   UNL     1      22.872  46.749  47.427  1.00  0.00     0.171 HD
BRANCH  13  16
HETATM   16  C   UNL     1      21.160  48.586  47.753  1.00  0.00     0.035 A 
HETATM   17  C   UNL     1      22.421  48.974  48.226  1.00  0.00     0.053 A 
HETATM   18  C   UNL     1      22.655  50.294  48.621  1.00  0.00     0.069 A 
HETATM   19  C   UNL     1      21.633  51.236  48.510  1.00  0.00     0.037 A 
HETATM   20  C   UNL     1      20.385  50.861  48.002  1.00  0.00     0.004 A 
HETATM   21  C   UNL     1      20.147  49.539  47.624  1.00  0.00     0.017 A 
BRANCH  18  22
HETATM   22  O   UNL     1      23.917  50.525  49.096  1.00  0.00    -0.356 OA
HETATM   23  C   UNL     1      24.980  49.815  48.472  1.00  0.00     0.210 C 
ENDBRANCH  18  22
ENDBRANCH  13  16
ENDBRANCH  10  12
ENDBRANCH   8  10
ENDBRANCH   5   8
BRANCH   1  24
HETATM   24  N   UNL     1      26.562  44.644  52.003  1.00  0.00    -0.376 N 
HETATM   25  C   UNL     1      27.404  43.456  52.262  1.00  0.00     0.143 C 
HETATM   26  C   UNL     1      28.679  43.871  53.033  1.00  0.00     0.145 C 
HETATM   27  N   UNL     1      28.387  44.668  54.238  1.00  0.00    -0.349 N 
HETATM   28  C   UNL     1      29.211  44.753  55.354  1.00  0.00     0.219 C 
HETATM   29  C   UNL     1      27.425  45.759  54.039  1.00  0.00     0.145 C 
HETATM   30  O   UNL     1      28.958  45.514  56.287  1.00  0.00    -0.273 OA
HETATM   31  C   UNL     1      26.178  45.326  53.260  1.00  0.00     0.143 C 
BRANCH  28  32
HETATM   32  C   UNL     1      30.436  43.850  55.379  1.00  0.00     0.103 C 
BRANCH  32  33
HETATM   33  C   UNL     1      31.391  44.147  56.538  1.00  0.00     0.005 C 
HETATM   34  C   UNL     1      31.831  42.894  57.286  1.00  0.00     0.005 C 
ENDBRANCH  32  33
ENDBRANCH  28  32
ENDBRANCH   1  24
TORSDOF 8
ENDMDL
MODEL 8
REMARK VINA RESULT:      -8.2      5.032     12.919
REMARK  8 active torsions:
REMARK  status: ('A' for Active; 'I' for Inactive)
REMARK    1  A    between atoms: C_2  and  C_3 
REMARK    2  A    between atoms: C_3  and  C_4 
REMARK       I    between atoms: C_4  and  N_5 
REMARK    3  A    between atoms: N_8  and  C_9 
REMARK    4  A    between atoms: C_13  and  N_14 
REMARK    5  A    between atoms: N_14  and  C_15 
REMARK    6  A    between atoms: C_15  and  N_16 
REMARK       I    between atoms: N_16  and  C_17 
REMARK    7  A    between atoms: C_17  and  C_18 
REMARK    8  A    between atoms: C_20  and  O_21 
ROOT
HETATM    1  C   UNL     1      21.028  50.304  48.167  1.00  0.00     0.052 A 
HETATM    2  C   UNL     1      20.002  49.666  47.428  1.00  0.00     0.062 A 
HETATM    3 CL   UNL     1      20.220  48.093  46.727  1.00  0.00    -0.082 Cl
HETATM    4  C   UNL     1      18.787  50.316  47.138  1.00  0.00     0.055 A 
HETATM    5  C   UNL     1      18.588  51.640  47.526  1.00  0.00     0.036 A 
HETATM    6  C   UNL     1      19.551  52.253  48.319  1.00  0.00     0.032 A 
HETATM    7  C   UNL     1      20.745  51.596  48.636  1.00  0.00     0.033 A 
ENDROOT
BRANCH   5   8
HETATM    8  N   UNL     1      17.406  52.298  47.125  1.00  0.00    -0.333 N 
HETATM    9  H   UNL     1      17.495  53.281  46.864  1.00  0.00     0.168 HD
BRANCH   8  10
HETATM   10  C   UNL     1      16.105  51.862  47.234  1.00  0.00     0.179 C 
HETATM   11  S   UNL     1      15.354  50.588  46.445  1.00  0.00    -0.040 SA
BRANCH  10  12
HETATM   12  N   UNL     1      15.312  52.548  48.130  1.00  0.00    -0.299 N 
HETATM   13  C   UNL     1      15.499  52.785  49.483  1.00  0.00     0.257 C 
HETATM   14  O   UNL     1      16.377  52.260  50.160  1.00  0.00    -0.267 OA
HETATM   15  H   UNL     1      14.554  53.026  47.663  1.00  0.00     0.171 HD
BRANCH  13  16
HETATM   16  C   UNL     1      14.556  53.769  50.084  1.00  0.00     0.035 A 
HETATM   17  C   UNL     1      14.777  54.317  51.356  1.00  0.00     0.053 A 
HETATM   18  C   UNL     1      13.826  55.159  51.940  1.00  0.00     0.069 A 
HETATM   19  C   UNL     1      12.667  55.481  51.234  1.00  0.00     0.037 A 
HETATM   20  C   UNL     1      12.462  54.966  49.950  1.00  0.00     0.004 A 
HETATM   21  C   UNL     1      13.404  54.113  49.375  1.00  0.00     0.017 A 
BRANCH  18  22
HETATM   22  O   UNL     1      14.152  55.592  53.196  1.00  0.00    -0.356 OA
HETATM   23  C   UNL     1      15.300  56.424  53.313  1.00  0.00     0.210 C 
ENDBRANCH  18  22
ENDBRANCH  13  16
ENDBRANCH  10  12
ENDBRANCH   8  10
ENDBRANCH   5   8
BRANCH   1  24
HETATM   24  N   UNL     1      22.293  49.719  48.371  1.00  0.00    -0.376 N 
HETATM   25  C   UNL     1      22.427  48.888  49.587  1.00  0.00     0.143 C 
HETATM   26  C   UNL     1      23.697  48.011  49.487  1.00  0.00     0.145 C 
HETATM   27  N   UNL     1      24.906  48.787  49.159  1.00  0.00    -0.349 N 
HETATM   28  C   UNL     1      26.205  48.411  49.483  1.00  0.00     0.219 C 
HETATM   29  C   UNL     1      24.748  49.740  48.053  1.00  0.00     0.145 C 
HETATM   30  O   UNL     1      27.180  49.054  49.094  1.00  0.00    -0.273 OA
HETATM   31  C   UNL     1      23.475  50.586  48.167  1.00  0.00     0.143 C 
BRANCH  28  32
HETATM   32  C   UNL     1      26.369  47.174  50.356  1.00  0.00     0.103 C 
BRANCH  32  33
HETATM   33  C   UNL     1      26.656  45.898  49.560  1.00  0.00     0.005 C 
HETATM   34  C   UNL     1      27.193  44.764  50.423  1.00  0.00     0.005 C 
ENDBRANCH  32  33
ENDBRANCH  28  32
ENDBRANCH   1  24
TORSDOF 8
ENDMDL
MODEL 9
REMARK VINA RESULT:      -8.1      2.749      4.197
REMARK  8 active torsions:
REMARK  status: ('A' for Active; 'I' for Inactive)
REMARK    1  A    between atoms: C_2  and  C_3 
REMARK    2  A    between atoms: C_3  and  C_4 
REMARK       I    between atoms: C_4  and  N_5 
REMARK    3  A    between atoms: N_8  and  C_9 
REMARK    4  A    between atoms: C_13  and  N_14 
REMARK    5  A    between atoms: N_14  and  C_15 
REMARK    6  A    between atoms: C_15  and  N_16 
REMARK       I    between atoms: N_16  and  C_17 
REMARK    7  A    between atoms: C_17  and  C_18 
REMARK    8  A    between atoms: C_20  and  O_21 
ROOT
HETATM    1  C   UNL     1      20.778  48.065  48.823  1.00  0.00     0.052 A 
HETATM    2  C   UNL     1      22.144  48.361  49.056  1.00  0.00     0.062 A 
HETATM    3 CL   UNL     1      22.694  49.983  49.343  1.00  0.00    -0.082 Cl
HETATM    4  C   UNL     1      23.140  47.370  48.970  1.00  0.00     0.055 A 
HETATM    5  C   UNL     1      22.808  46.071  48.589  1.00  0.00     0.036 A 
HETATM    6  C   UNL     1      21.465  45.746  48.433  1.00  0.00     0.032 A 
HETATM    7  C   UNL     1      20.472  46.723  48.552  1.00  0.00     0.033 A 
ENDROOT
BRANCH   5   8
HETATM    8  N   UNL     1      23.842  45.128  48.404  1.00  0.00    -0.333 N 
HETATM    9  H   UNL     1      24.294  45.117  47.489  1.00  0.00     0.168 HD
BRANCH   8  10
HETATM   10  C   UNL     1      24.193  44.074  49.216  1.00  0.00     0.179 C 
HETATM   11  S   UNL     1      23.911  42.437  48.995  1.00  0.00    -0.040 SA
BRANCH  10  12
HETATM   12  N   UNL     1      24.893  44.401  50.359  1.00  0.00    -0.299 N 
HETATM   13  C   UNL     1      25.901  45.334  50.549  1.00  0.00     0.257 C 
HETATM   14  O   UNL     1      26.459  45.940  49.639  1.00  0.00    -0.267 OA
HETATM   15  H   UNL     1      24.501  43.951  51.175  1.00  0.00     0.171 HD
BRANCH  13  16
HETATM   16  C   UNL     1      26.263  45.588  51.971  1.00  0.00     0.035 A 
HETATM   17  C   UNL     1      25.784  46.710  52.663  1.00  0.00     0.053 A 
HETATM   18  C   UNL     1      26.220  46.979  53.963  1.00  0.00     0.069 A 
HETATM   19  C   UNL     1      27.110  46.104  54.585  1.00  0.00     0.037 A 
HETATM   20  C   UNL     1      27.559  44.964  53.912  1.00  0.00     0.004 A 
HETATM   21  C   UNL     1      27.136  44.704  52.607  1.00  0.00     0.017 A 
BRANCH  18  22
HETATM   22  O   UNL     1      25.703  48.124  54.505  1.00  0.00    -0.356 OA
HETATM   23  C   UNL     1      26.350  48.638  55.664  1.00  0.00     0.210 C 
ENDBRANCH  18  22
ENDBRANCH  13  16
ENDBRANCH  10  12
ENDBRANCH   8  10
ENDBRANCH   5   8
BRANCH   1  24
HETATM   24  N   UNL     1      19.781  49.059  48.791  1.00  0.00    -0.376 N 
HETATM   25  C   UNL     1      19.239  49.467  50.105  1.00  0.00     0.143 C 
HETATM   26  C   UNL     1      18.467  50.799  49.965  1.00  0.00     0.145 C 
HETATM   27  N   UNL     1      17.461  50.769  48.888  1.00  0.00    -0.349 N 
HETATM   28  C   UNL     1      16.322  51.565  48.842  1.00  0.00     0.219 C 
HETATM   29  C   UNL     1      17.935  50.215  47.614  1.00  0.00     0.145 C 
HETATM   30  O   UNL     1      15.572  51.563  47.866  1.00  0.00    -0.273 OA
HETATM   31  C   UNL     1      18.709  48.903  47.781  1.00  0.00     0.143 C 
BRANCH  28  32
HETATM   32  C   UNL     1      16.033  52.431  50.060  1.00  0.00     0.103 C 
BRANCH  32  33
HETATM   33  C   UNL     1      14.546  52.741  50.252  1.00  0.00     0.005 C 
HETATM   34  C   UNL     1      14.286  54.179  50.681  1.00  0.00     0.005 C 
ENDBRANCH  32  33
ENDBRANCH  28  32
ENDBRANCH   1  24
TORSDOF 8
ENDMDL
MODEL 10
REMARK VINA RESULT:      -7.8      2.311      3.529
REMARK  8 active torsions:
REMARK  status: ('A' for Active; 'I' for Inactive)
REMARK    1  A    between atoms: C_2  and  C_3 
REMARK    2  A    between atoms: C_3  and  C_4 
REMARK       I    between atoms: C_4  and  N_5 
REMARK    3  A    between atoms: N_8  and  C_9 
REMARK    4  A    between atoms: C_13  and  N_14 
REMARK    5  A    between atoms: N_14  and  C_15 
REMARK    6  A    between atoms: C_15  and  N_16 
REMARK       I    between atoms: N_16  and  C_17 
REMARK    7  A    between atoms: C_17  and  C_18 
REMARK    8  A    between atoms: C_20  and  O_21 
ROOT
HETATM    1  C   UNL     1      21.558  47.363  48.689  1.00  0.00     0.052 A 
HETATM    2  C   UNL     1      22.827  47.809  49.131  1.00  0.00     0.062 A 
HETATM    3 CL   UNL     1      23.156  49.488  49.426  1.00  0.00    -0.082 Cl
HETATM    4  C   UNL     1      23.918  46.927  49.260  1.00  0.00     0.055 A 
HETATM    5  C   UNL     1      23.787  45.589  48.892  1.00  0.00     0.036 A 
HETATM    6  C   UNL     1      22.529  45.118  48.531  1.00  0.00     0.032 A 
HETATM    7  C   UNL     1      21.438  45.987  48.436  1.00  0.00     0.033 A 
ENDROOT
BRANCH   5   8
HETATM    8  N   UNL     1      24.926  44.757  48.928  1.00  0.00    -0.333 N 
HETATM    9  H   UNL     1      25.381  44.565  48.035  1.00  0.00     0.168 HD
BRANCH   8  10
HETATM   10  C   UNL     1      25.393  43.992  49.972  1.00  0.00     0.179 C 
HETATM   11  S   UNL     1      25.368  42.326  50.149  1.00  0.00    -0.040 SA
BRANCH  10  12
HETATM   12  N   UNL     1      25.985  44.684  51.008  1.00  0.00    -0.299 N 
HETATM   13  C   UNL     1      25.551  44.878  52.311  1.00  0.00     0.257 C 
HETATM   14  O   UNL     1      24.435  44.572  52.718  1.00  0.00    -0.267 OA
HETATM   15  H   UNL     1      26.923  44.978  50.770  1.00  0.00     0.171 HD
BRANCH  13  16
HETATM   16  C   UNL     1      26.561  45.478  53.227  1.00  0.00     0.035 A 
HETATM   17  C   UNL     1      27.624  44.725  53.743  1.00  0.00     0.053 A 
HETATM   18  C   UNL     1      28.498  45.283  54.680  1.00  0.00     0.069 A 
HETATM   19  C   UNL     1      28.328  46.609  55.075  1.00  0.00     0.037 A 
HETATM   20  C   UNL     1      27.291  47.375  54.532  1.00  0.00     0.004 A 
HETATM   21  C   UNL     1      26.409  46.812  53.609  1.00  0.00     0.017 A 
BRANCH  18  22
HETATM   22  O   UNL     1      29.466  44.426  55.128  1.00  0.00    -0.356 OA
HETATM   23  C   UNL     1      29.595  43.184  54.445  1.00  0.00     0.210 C 
ENDBRANCH  18  22
ENDBRANCH  13  16
ENDBRANCH  10  12
ENDBRANCH   8  10
ENDBRANCH   5   8
BRANCH   1  24
HETATM   24  N   UNL     1      20.487  48.243  48.443  1.00  0.00    -0.376 N 
HETATM   25  C   UNL     1      19.350  48.148  49.384  1.00  0.00     0.143 C 
HETATM   26  C   UNL     1      18.448  49.397  49.248  1.00  0.00     0.145 C 
HETATM   27  N   UNL     1      18.049  49.668  47.855  1.00  0.00    -0.349 N 
HETATM   28  C   UNL     1      16.903  50.358  47.476  1.00  0.00     0.219 C 
HETATM   29  C   UNL     1      19.141  49.607  46.876  1.00  0.00     0.145 C 
HETATM   30  O   UNL     1      16.677  50.637  46.299  1.00  0.00    -0.273 OA
HETATM   31  C   UNL     1      20.028  48.368  47.040  1.00  0.00     0.143 C 
BRANCH  28  32
HETATM   32  C   UNL     1      15.930  50.742  48.582  1.00  0.00     0.103 C 
BRANCH  32  33
HETATM   33  C   UNL     1      15.980  52.227  48.952  1.00  0.00     0.005 C 
HETATM   34  C   UNL     1      14.871  52.641  49.911  1.00  0.00     0.005 C 
ENDBRANCH  32  33
ENDBRANCH  28  32
ENDBRANCH   1  24
TORSDOF 8
ENDMDL
