MODEL 1
REMARK VINA RESULT:     -10.0      0.000      0.000
REMARK  6 active torsions:
REMARK  status: ('A' for Active; 'I' for Inactive)
REMARK    1  A    between atoms: N_2  and  C_4 
REMARK    2  A    between atoms: N_2  and  C_23 
REMARK    3  A    between atoms: C_4  and  C_5 
REMARK       I    between atoms: C_5  and  N_6 
REMARK    4  A    between atoms: N_6  and  C_7 
REMARK    5  A    between atoms: C_8  and  O_9 
REMARK    6  A    between atoms: C_23  and  C_24 
ROOT
HETATM    1  C   UNL     1      25.442  43.817  51.331  1.00  0.00     0.248 C 
HETATM    2  N   UNL     1      26.810  43.972  51.347  1.00  0.00    -0.323 N 
HETATM    3  O   UNL     1      24.768  43.356  52.251  1.00  0.00    -0.271 OA
HETATM    4  H   UNL     1      27.335  44.005  50.475  1.00  0.00     0.169 HD
ENDROOT
BRANCH   2   5
HETATM    5  C   UNL     1      27.635  43.894  52.494  1.00  0.00     0.071 A 
HETATM    6  C   UNL     1      28.544  42.822  52.563  1.00  0.00     0.096 A 
HETATM    7  C   UNL     1      29.475  42.706  53.607  1.00  0.00     0.054 A 
HETATM    8  C   UNL     1      29.465  43.684  54.620  1.00  0.00     0.014 A 
HETATM    9  C   UNL     1      28.534  44.712  54.535  1.00  0.00     0.089 A 
HETATM   10  C   UNL     1      30.217  43.937  55.805  1.00  0.00     0.011 A 
HETATM   11  O   UNL     1      28.671  45.572  55.581  1.00  0.00    -0.309 OA
HETATM   12  C   UNL     1      27.603  44.857  53.508  1.00  0.00     0.070 A 
HETATM   13  C   UNL     1      29.692  45.104  56.349  1.00  0.00     0.087 A 
HETATM   14  C   UNL     1      30.156  45.705  57.517  1.00  0.00     0.038 A 
HETATM   15  C   UNL     1      31.219  45.070  58.164  1.00  0.00     0.003 A 
HETATM   16  C   UNL     1      31.776  43.894  57.655  1.00  0.00     0.001 A 
HETATM   17  C   UNL     1      31.288  43.313  56.474  1.00  0.00     0.015 A 
BRANCH   6  18
HETATM   18  O   UNL     1      28.500  41.899  51.538  1.00  0.00    -0.354 OA
HETATM   19  C   UNL     1      28.851  40.591  52.000  1.00  0.00     0.210 C 
ENDBRANCH   6  18
ENDBRANCH   2   5
BRANCH   1  20
HETATM   20  C   UNL     1      24.770  44.251  50.025  1.00  0.00     0.337 C 
BRANCH  20  21
HETATM   21  N   UNL     1      23.889  45.501  50.165  1.00  0.00    -0.063 N 
HETATM   22  C   UNL     1      23.264  45.878  48.858  1.00  0.00     0.270 C 
HETATM   23  H   UNL     1      23.135  45.217  50.803  1.00  0.00     0.280 HD
BRANCH  21  24
HETATM   24  C   UNL     1      24.521  46.686  50.880  1.00  0.00     0.273 C 
BRANCH  24  25
HETATM   25  C   UNL     1      25.138  47.745  50.006  1.00  0.00    -0.032 A 
HETATM   26  C   UNL     1      24.328  48.684  49.342  1.00  0.00     0.012 A 
HETATM   27  C   UNL     1      24.904  49.685  48.558  1.00  0.00     0.043 A 
HETATM   28  C   UNL     1      26.285  49.750  48.431  1.00  0.00     0.116 A 
HETATM   29  F   UNL     1      26.834  50.715  47.683  1.00  0.00    -0.206 F 
HETATM   30  C   UNL     1      27.105  48.836  49.080  1.00  0.00     0.043 A 
HETATM   31  C   UNL     1      26.534  47.837  49.872  1.00  0.00     0.012 A 
ENDBRANCH  24  25
ENDBRANCH  21  24
ENDBRANCH  20  21
ENDBRANCH   1  20
TORSDOF 6
ENDMDL
MODEL 2
REMARK VINA RESULT:      -9.8      3.568      4.670
REMARK  6 active torsions:
REMARK  status: ('A' for Active; 'I' for Inactive)
REMARK    1  A    between atoms: N_2  and  C_4 
REMARK    2  A    between atoms: N_2  and  C_23 
REMARK    3  A    between atoms: C_4  and  C_5 
REMARK       I    between atoms: C_5  and  N_6 
REMARK    4  A    between atoms: N_6  and  C_7 
REMARK    5  A    between atoms: C_8  and  O_9 
REMARK    6  A    between atoms: C_23  and  C_24 
ROOT
HETATM    1  C   UNL     1      24.381  47.477  49.934  1.00  0.00     0.248 C 
HETATM    2  N   UNL     1      24.239  46.384  50.759  1.00  0.00    -0.323 N 
HETATM    3  O   UNL     1      25.303  48.290  49.983  1.00  0.00    -0.271 OA
HETATM    4  H   UNL     1      23.321  45.976  50.920  1.00  0.00     0.169 HD
ENDROOT
BRANCH   2   5
HETATM    5  C   UNL     1      25.243  45.854  51.604  1.00  0.00     0.071 A 
HETATM    6  C   UNL     1      25.750  44.581  51.283  1.00  0.00     0.096 A 
HETATM    7  C   UNL     1      26.815  44.007  51.996  1.00  0.00     0.054 A 
HETATM    8  C   UNL     1      27.359  44.728  53.076  1.00  0.00     0.014 A 
HETATM    9  C   UNL     1      26.815  45.969  53.382  1.00  0.00     0.089 A 
HETATM   10  C   UNL     1      28.412  44.522  54.017  1.00  0.00     0.011 A 
HETATM   11  O   UNL     1      27.463  46.532  54.437  1.00  0.00    -0.309 OA
HETATM   12  C   UNL     1      25.763  46.567  52.689  1.00  0.00     0.070 A 
HETATM   13  C   UNL     1      28.433  45.657  54.821  1.00  0.00     0.087 A 
HETATM   14  C   UNL     1      29.328  45.861  55.868  1.00  0.00     0.038 A 
HETATM   15  C   UNL     1      30.253  44.841  56.105  1.00  0.00     0.003 A 
HETATM   16  C   UNL     1      30.267  43.683  55.324  1.00  0.00     0.001 A 
HETATM   17  C   UNL     1      29.352  43.507  54.273  1.00  0.00     0.015 A 
BRANCH   6  18
HETATM   18  O   UNL     1      25.171  43.930  50.215  1.00  0.00    -0.354 OA
HETATM   19  C   UNL     1      24.669  42.645  50.597  1.00  0.00     0.210 C 
ENDBRANCH   6  18
ENDBRANCH   2   5
BRANCH   1  20
HETATM   20  C   UNL     1      23.255  47.650  48.911  1.00  0.00     0.337 C 
BRANCH  20  21
HETATM   21  N   UNL     1      22.020  48.376  49.463  1.00  0.00    -0.063 N 
HETATM   22  C   UNL     1      20.767  47.918  48.783  1.00  0.00     0.270 C 
HETATM   23  H   UNL     1      21.966  48.085  50.448  1.00  0.00     0.280 HD
BRANCH  21  24
HETATM   24  C   UNL     1      22.122  49.891  49.554  1.00  0.00     0.273 C 
BRANCH  24  25
HETATM   25  C   UNL     1      20.835  50.659  49.414  1.00  0.00    -0.032 A 
HETATM   26  C   UNL     1      19.769  50.433  50.303  1.00  0.00     0.012 A 
HETATM   27  C   UNL     1      18.588  51.169  50.192  1.00  0.00     0.043 A 
HETATM   28  C   UNL     1      18.466  52.127  49.194  1.00  0.00     0.116 A 
HETATM   29  F   UNL     1      17.334  52.834  49.093  1.00  0.00    -0.206 F 
HETATM   30  C   UNL     1      19.506  52.369  48.306  1.00  0.00     0.043 A 
HETATM   31  C   UNL     1      20.692  51.641  48.418  1.00  0.00     0.012 A 
ENDBRANCH  24  25
ENDBRANCH  21  24
ENDBRANCH  20  21
ENDBRANCH   1  20
TORSDOF 6
ENDMDL
MODEL 3
REMARK VINA RESULT:      -9.5      3.421      9.183
REMARK  6 active torsions:
REMARK  status: ('A' for Active; 'I' for Inactive)
REMARK    1  A    between atoms: N_2  and  C_4 
REMARK    2  A    between atoms: N_2  and  C_23 
REMARK    3  A    between atoms: C_4  and  C_5 
REMARK       I    between atoms: C_5  and  N_6 
REMARK    4  A    between atoms: N_6  and  C_7 
REMARK    5  A    between atoms: C_8  and  O_9 
REMARK    6  A    between atoms: C_23  and  C_24 
ROOT
HETATM    1  C   UNL     1      25.514  44.463  52.010  1.00  0.00     0.248 C 
HETATM    2  N   UNL     1      25.713  45.057  50.784  1.00  0.00    -0.323 N 
HETATM    3  O   UNL     1      24.641  44.775  52.817  1.00  0.00    -0.271 OA
HETATM    4  H   UNL     1      26.626  45.021  50.335  1.00  0.00     0.169 HD
ENDROOT
BRANCH   2   5
HETATM    5  C   UNL     1      24.802  45.921  50.129  1.00  0.00     0.071 A 
HETATM    6  C   UNL     1      23.861  45.331  49.266  1.00  0.00     0.096 A 
HETATM    7  C   UNL     1      22.851  46.084  48.646  1.00  0.00     0.054 A 
HETATM    8  C   UNL     1      22.813  47.472  48.884  1.00  0.00     0.014 A 
HETATM    9  C   UNL     1      23.776  48.024  49.719  1.00  0.00     0.089 A 
HETATM   10  C   UNL     1      21.981  48.557  48.478  1.00  0.00     0.011 A 
HETATM   11  O   UNL     1      23.586  49.365  49.851  1.00  0.00    -0.309 OA
HETATM   12  C   UNL     1      24.785  47.301  50.354  1.00  0.00     0.070 A 
HETATM   13  C   UNL     1      22.498  49.688  49.102  1.00  0.00     0.087 A 
HETATM   14  C   UNL     1      21.965  50.969  48.972  1.00  0.00     0.038 A 
HETATM   15  C   UNL     1      20.839  51.095  48.155  1.00  0.00     0.003 A 
HETATM   16  C   UNL     1      20.288  49.987  47.507  1.00  0.00     0.001 A 
HETATM   17  C   UNL     1      20.847  48.708  47.658  1.00  0.00     0.015 A 
BRANCH   6  18
HETATM   18  O   UNL     1      23.955  43.968  49.076  1.00  0.00    -0.354 OA
HETATM   19  C   UNL     1      22.845  43.283  49.664  1.00  0.00     0.210 C 
ENDBRANCH   6  18
ENDBRANCH   2   5
BRANCH   1  20
HETATM   20  C   UNL     1      26.508  43.347  52.341  1.00  0.00     0.337 C 
BRANCH  20  21
HETATM   21  N   UNL     1      27.182  43.502  53.713  1.00  0.00    -0.063 N 
HETATM   22  C   UNL     1      26.183  43.426  54.824  1.00  0.00     0.270 C 
HETATM   23  H   UNL     1      27.801  42.684  53.791  1.00  0.00     0.280 HD
BRANCH  21  24
HETATM   24  C   UNL     1      28.139  44.676  53.858  1.00  0.00     0.273 C 
BRANCH  24  25
HETATM   25  C   UNL     1      29.205  44.544  54.912  1.00  0.00    -0.032 A 
HETATM   26  C   UNL     1      29.391  45.558  55.868  1.00  0.00     0.012 A 
HETATM   27  C   UNL     1      30.359  45.420  56.865  1.00  0.00     0.043 A 
HETATM   28  C   UNL     1      31.144  44.276  56.908  1.00  0.00     0.116 A 
HETATM   29  F   UNL     1      32.067  44.145  57.868  1.00  0.00    -0.206 F 
HETATM   30  C   UNL     1      30.976  43.260  55.975  1.00  0.00     0.043 A 
HETATM   31  C   UNL     1      30.004  43.390  54.981  1.00  0.00     0.012 A 
ENDBRANCH  24  25
ENDBRANCH  21  24
ENDBRANCH  20  21
ENDBRANCH   1  20
TORSDOF 6
ENDMDL
MODEL 4
REMARK VINA RESULT:      -9.4      3.227      4.776
REMARK  6 active torsions:
REMARK  status: ('A' for Active; 'I' for Inactive)
REMARK    1  A    between atoms: N_2  and  C_4 
REMARK    2  A    between atoms: N_2  and  C_23 
REMARK    3  A    between atoms: C_4  and  C_5 
REMARK       I    between atoms: C_5  and  N_6 
REMARK    4  A    between atoms: N_6  and  C_7 
REMARK    5  A    between atoms: C_8  and  O_9 
REMARK    6  A    between atoms: C_23  and  C_24 
ROOT
HETATM    1  C   UNL     1      25.517  44.061  51.415  1.00  0.00     0.248 C 
HETATM    2  N   UNL     1      26.894  44.057  51.425  1.00  0.00    -0.323 N 
HETATM    3  O   UNL     1      24.799  43.759  52.367  1.00  0.00    -0.271 OA
HETATM    4  H   UNL     1      27.415  43.956  50.556  1.00  0.00     0.169 HD
ENDROOT
BRANCH   2   5
HETATM    5  C   UNL     1      27.710  43.977  52.579  1.00  0.00     0.071 A 
HETATM    6  C   UNL     1      28.595  42.887  52.670  1.00  0.00     0.096 A 
HETATM    7  C   UNL     1      29.516  42.768  53.721  1.00  0.00     0.054 A 
HETATM    8  C   UNL     1      29.521  43.760  54.720  1.00  0.00     0.014 A 
HETATM    9  C   UNL     1      28.613  44.807  54.614  1.00  0.00     0.089 A 
HETATM   10  C   UNL     1      30.271  44.016  55.907  1.00  0.00     0.011 A 
HETATM   11  O   UNL     1      28.761  45.679  55.647  1.00  0.00    -0.309 OA
HETATM   12  C   UNL     1      27.692  44.956  53.578  1.00  0.00     0.070 A 
HETATM   13  C   UNL     1      29.767  45.202  56.429  1.00  0.00     0.087 A 
HETATM   14  C   UNL     1      30.236  45.810  57.592  1.00  0.00     0.038 A 
HETATM   15  C   UNL     1      31.281  45.162  58.255  1.00  0.00     0.003 A 
HETATM   16  C   UNL     1      31.816  43.967  57.767  1.00  0.00     0.001 A 
HETATM   17  C   UNL     1      31.323  43.379  56.592  1.00  0.00     0.015 A 
BRANCH   6  18
HETATM   18  O   UNL     1      28.537  41.951  51.659  1.00  0.00    -0.354 OA
HETATM   19  C   UNL     1      28.852  40.642  52.144  1.00  0.00     0.210 C 
ENDBRANCH   6  18
ENDBRANCH   2   5
BRANCH   1  20
HETATM   20  C   UNL     1      24.894  44.461  50.075  1.00  0.00     0.337 C 
BRANCH  20  21
HETATM   21  N   UNL     1      24.889  43.335  49.031  1.00  0.00    -0.063 N 
HETATM   22  C   UNL     1      23.846  43.566  47.983  1.00  0.00     0.270 C 
HETATM   23  H   UNL     1      25.810  43.399  48.576  1.00  0.00     0.280 HD
BRANCH  21  24
HETATM   24  C   UNL     1      24.871  41.916  49.579  1.00  0.00     0.273 C 
BRANCH  24  25
HETATM   25  C   UNL     1      26.065  41.057  49.255  1.00  0.00    -0.032 A 
HETATM   26  C   UNL     1      26.144  39.737  49.732  1.00  0.00     0.012 A 
HETATM   27  C   UNL     1      27.236  38.931  49.404  1.00  0.00     0.043 A 
HETATM   28  C   UNL     1      28.251  39.440  48.604  1.00  0.00     0.116 A 
HETATM   29  F   UNL     1      29.293  38.663  48.288  1.00  0.00    -0.206 F 
HETATM   30  C   UNL     1      28.192  40.741  48.119  1.00  0.00     0.043 A 
HETATM   31  C   UNL     1      27.098  41.548  48.438  1.00  0.00     0.012 A 
ENDBRANCH  24  25
ENDBRANCH  21  24
ENDBRANCH  20  21
ENDBRANCH   1  20
TORSDOF 6
ENDMDL
MODEL 5
REMARK VINA RESULT:      -9.4      2.046      2.573
REMARK  6 active torsions:
REMARK  status: ('A' for Active; 'I' for Inactive)
REMARK    1  A    between atoms: N_2  and  C_4 
REMARK    2  A    between atoms: N_2  and  C_23 
REMARK    3  A    between atoms: C_4  and  C_5 
REMARK       I    between atoms: C_5  and  N_6 
REMARK    4  A    between atoms: N_6  and  C_7 
REMARK    5  A    between atoms: C_8  and  O_9 
REMARK    6  A    between atoms: C_23  and  C_24 
ROOT
HETATM    1  C   UNL     1      25.612  46.416  51.481  1.00  0.00     0.248 C 
HETATM    2  N   UNL     1      26.433  45.312  51.515  1.00  0.00    -0.323 N 
HETATM    3  O   UNL     1      25.325  47.117  52.450  1.00  0.00    -0.271 OA
HETATM    4  H   UNL     1      26.348  44.584  50.807  1.00  0.00     0.169 HD
ENDROOT
BRANCH   2   5
HETATM    5  C   UNL     1      27.295  44.958  52.581  1.00  0.00     0.071 A 
HETATM    6  C   UNL     1      28.073  43.796  52.422  1.00  0.00     0.096 A 
HETATM    7  C   UNL     1      29.031  43.412  53.373  1.00  0.00     0.054 A 
HETATM    8  C   UNL     1      29.182  44.206  54.526  1.00  0.00     0.014 A 
HETATM    9  C   UNL     1      28.377  45.329  54.663  1.00  0.00     0.089 A 
HETATM   10  C   UNL     1      30.013  44.180  55.686  1.00  0.00     0.011 A 
HETATM   11  O   UNL     1      28.661  45.987  55.819  1.00  0.00    -0.309 OA
HETATM   12  C   UNL     1      27.423  45.740  53.732  1.00  0.00     0.070 A 
HETATM   13  C   UNL     1      29.654  45.293  56.438  1.00  0.00     0.087 A 
HETATM   14  C   UNL     1      30.238  45.641  57.654  1.00  0.00     0.038 A 
HETATM   15  C   UNL     1      31.247  44.797  58.124  1.00  0.00     0.003 A 
HETATM   16  C   UNL     1      31.638  43.666  57.403  1.00  0.00     0.001 A 
HETATM   17  C   UNL     1      31.031  43.342  56.179  1.00  0.00     0.015 A 
BRANCH   6  18
HETATM   18  O   UNL     1      27.874  43.064  51.271  1.00  0.00    -0.354 OA
HETATM   19  C   UNL     1      28.110  41.670  51.493  1.00  0.00     0.210 C 
ENDBRANCH   6  18
ENDBRANCH   2   5
BRANCH   1  20
HETATM   20  C   UNL     1      25.024  46.726  50.102  1.00  0.00     0.337 C 
BRANCH  20  21
HETATM   21  N   UNL     1      23.580  46.236  49.917  1.00  0.00    -0.063 N 
HETATM   22  C   UNL     1      23.461  44.770  50.193  1.00  0.00     0.270 C 
HETATM   23  H   UNL     1      23.042  46.735  50.638  1.00  0.00     0.280 HD
BRANCH  21  24
HETATM   24  C   UNL     1      22.895  46.651  48.624  1.00  0.00     0.273 C 
BRANCH  24  25
HETATM   25  C   UNL     1      22.352  48.054  48.574  1.00  0.00    -0.032 A 
HETATM   26  C   UNL     1      21.001  48.307  48.871  1.00  0.00     0.012 A 
HETATM   27  C   UNL     1      20.507  49.613  48.856  1.00  0.00     0.043 A 
HETATM   28  C   UNL     1      21.356  50.666  48.542  1.00  0.00     0.116 A 
HETATM   29  F   UNL     1      20.880  51.917  48.534  1.00  0.00    -0.206 F 
HETATM   30  C   UNL     1      22.695  50.440  48.248  1.00  0.00     0.043 A 
HETATM   31  C   UNL     1      23.195  49.137  48.269  1.00  0.00     0.012 A 
ENDBRANCH  24  25
ENDBRANCH  21  24
ENDBRANCH  20  21
ENDBRANCH   1  20
TORSDOF 6
ENDMDL
MODEL 6
REMARK VINA RESULT:      -9.4      3.117      8.355
REMARK  6 active torsions:
REMARK  status: ('A' for Active; 'I' for Inactive)
REMARK    1  A    between atoms: N_2  and  C_4 
REMARK    2  A    between atoms: N_2  and  C_23 
REMARK    3  A    between atoms: C_4  and  C_5 
REMARK       I    between atoms: C_5  and  N_6 
REMARK    4  A    between atoms: N_6  and  C_7 
REMARK    5  A    between atoms: C_8  and  O_9 
REMARK    6  A    between atoms: C_23  and  C_24 
ROOT
HETATM    1  C   UNL     1      26.729  44.180  50.347  1.00  0.00     0.248 C 
HETATM    2  N   UNL     1      25.360  44.302  50.435  1.00  0.00    -0.323 N 
HETATM    3  O   UNL     1      27.451  44.818  49.581  1.00  0.00    -0.271 OA
HETATM    4  H   UNL     1      24.797  43.534  50.794  1.00  0.00     0.169 HD
ENDROOT
BRANCH   2   5
HETATM    5  C   UNL     1      24.588  45.349  49.878  1.00  0.00     0.071 A 
HETATM    6  C   UNL     1      23.595  44.993  48.947  1.00  0.00     0.096 A 
HETATM    7  C   UNL     1      22.710  45.941  48.411  1.00  0.00     0.054 A 
HETATM    8  C   UNL     1      22.852  47.285  48.805  1.00  0.00     0.014 A 
HETATM    9  C   UNL     1      23.862  47.605  49.704  1.00  0.00     0.089 A 
HETATM   10  C   UNL     1      22.183  48.512  48.520  1.00  0.00     0.011 A 
HETATM   11  O   UNL     1      23.851  48.935  49.987  1.00  0.00    -0.309 OA
HETATM   12  C   UNL     1      24.752  46.685  50.258  1.00  0.00     0.070 A 
HETATM   13  C   UNL     1      22.832  49.485  49.272  1.00  0.00     0.087 A 
HETATM   14  C   UNL     1      22.479  50.833  49.286  1.00  0.00     0.038 A 
HETATM   15  C   UNL     1      21.398  51.202  48.482  1.00  0.00     0.003 A 
HETATM   16  C   UNL     1      20.718  50.258  47.708  1.00  0.00     0.001 A 
HETATM   17  C   UNL     1      21.097  48.906  47.715  1.00  0.00     0.015 A 
BRANCH   6  18
HETATM   18  O   UNL     1      23.510  43.660  48.603  1.00  0.00    -0.354 OA
HETATM   19  C   UNL     1      22.405  43.417  47.728  1.00  0.00     0.210 C 
ENDBRANCH   6  18
ENDBRANCH   2   5
BRANCH   1  20
HETATM   20  C   UNL     1      27.334  43.135  51.287  1.00  0.00     0.337 C 
BRANCH  20  21
HETATM   21  N   UNL     1      28.151  43.735  52.441  1.00  0.00    -0.063 N 
HETATM   22  C   UNL     1      29.469  43.042  52.596  1.00  0.00     0.270 C 
HETATM   23  H   UNL     1      28.339  44.704  52.149  1.00  0.00     0.280 HD
BRANCH  21  24
HETATM   24  C   UNL     1      27.415  43.906  53.761  1.00  0.00     0.273 C 
BRANCH  24  25
HETATM   25  C   UNL     1      27.218  45.320  54.239  1.00  0.00    -0.032 A 
HETATM   26  C   UNL     1      26.219  46.132  53.672  1.00  0.00     0.012 A 
HETATM   27  C   UNL     1      26.015  47.432  54.139  1.00  0.00     0.043 A 
HETATM   28  C   UNL     1      26.807  47.925  55.167  1.00  0.00     0.116 A 
HETATM   29  F   UNL     1      26.605  49.169  55.616  1.00  0.00    -0.206 F 
HETATM   30  C   UNL     1      27.797  47.140  55.745  1.00  0.00     0.043 A 
HETATM   31  C   UNL     1      27.999  45.837  55.287  1.00  0.00     0.012 A 
ENDBRANCH  24  25
ENDBRANCH  21  24
ENDBRANCH  20  21
ENDBRANCH   1  20
TORSDOF 6
ENDMDL
MODEL 7
REMARK VINA RESULT:      -9.3      3.726      5.986
REMARK  6 active torsions:
REMARK  status: ('A' for Active; 'I' for Inactive)
REMARK    1  A    between atoms: N_2  and  C_4 
REMARK    2  A    between atoms: N_2  and  C_23 
REMARK    3  A    between atoms: C_4  and  C_5 
REMARK       I    between atoms: C_5  and  N_6 
REMARK    4  A    between atoms: N_6  and  C_7 
REMARK    5  A    between atoms: C_8  and  O_9 
REMARK    6  A    between atoms: C_23  and  C_24 
ROOT
HETATM    1  C   UNL     1      26.479  44.142  50.231  1.00  0.00     0.248 C 
HETATM    2  N   UNL     1      26.180  44.030  51.570  1.00  0.00    -0.323 N 
HETATM    3  O   UNL     1      27.462  44.719  49.768  1.00  0.00    -0.271 OA
HETATM    4  H   UNL     1      25.220  43.879  51.874  1.00  0.00     0.169 HD
ENDROOT
BRANCH   2   5
HETATM    5  C   UNL     1      27.067  44.306  52.639  1.00  0.00     0.071 A 
HETATM    6  C   UNL     1      26.815  45.460  53.403  1.00  0.00     0.096 A 
HETATM    7  C   UNL     1      27.572  45.771  54.543  1.00  0.00     0.054 A 
HETATM    8  C   UNL     1      28.627  44.909  54.900  1.00  0.00     0.014 A 
HETATM    9  C   UNL     1      28.865  43.795  54.105  1.00  0.00     0.089 A 
HETATM   10  C   UNL     1      29.595  44.853  55.947  1.00  0.00     0.011 A 
HETATM   11  O   UNL     1      29.904  43.066  54.596  1.00  0.00    -0.309 OA
HETATM   12  C   UNL     1      28.126  43.456  52.972  1.00  0.00     0.070 A 
HETATM   13  C   UNL     1      30.345  43.706  55.713  1.00  0.00     0.087 A 
HETATM   14  C   UNL     1      31.397  43.278  56.519  1.00  0.00     0.038 A 
HETATM   15  C   UNL     1      31.698  44.074  57.627  1.00  0.00     0.003 A 
HETATM   16  C   UNL     1      30.972  45.237  57.898  1.00  0.00     0.001 A 
HETATM   17  C   UNL     1      29.915  45.642  57.068  1.00  0.00     0.015 A 
BRANCH   6  18
HETATM   18  O   UNL     1      25.769  46.261  52.999  1.00  0.00    -0.354 OA
HETATM   19  C   UNL     1      25.768  47.510  53.698  1.00  0.00     0.210 C 
ENDBRANCH   6  18
ENDBRANCH   2   5
BRANCH   1  20
HETATM   20  C   UNL     1      25.453  43.495  49.297  1.00  0.00     0.337 C 
BRANCH  20  21
HETATM   21  N   UNL     1      25.789  42.048  48.910  1.00  0.00    -0.063 N 
HETATM   22  C   UNL     1      25.024  41.613  47.699  1.00  0.00     0.270 C 
HETATM   23  H   UNL     1      26.787  42.071  48.659  1.00  0.00     0.280 HD
BRANCH  21  24
HETATM   24  C   UNL     1      25.740  41.027  50.037  1.00  0.00     0.273 C 
BRANCH  24  25
HETATM   25  C   UNL     1      26.922  40.102  50.155  1.00  0.00    -0.032 A 
HETATM   26  C   UNL     1      26.943  38.880  49.460  1.00  0.00     0.012 A 
HETATM   27  C   UNL     1      28.054  38.038  49.545  1.00  0.00     0.043 A 
HETATM   28  C   UNL     1      29.141  38.411  50.324  1.00  0.00     0.116 A 
HETATM   29  F   UNL     1      30.206  37.604  50.399  1.00  0.00    -0.206 F 
HETATM   30  C   UNL     1      29.143  39.615  51.017  1.00  0.00     0.043 A 
HETATM   31  C   UNL     1      28.038  40.463  50.929  1.00  0.00     0.012 A 
ENDBRANCH  24  25
ENDBRANCH  21  24
ENDBRANCH  20  21
ENDBRANCH   1  20
TORSDOF 6
ENDMDL
MODEL 8
REMARK VINA RESULT:      -9.1      1.180      2.470
REMARK  6 active torsions:
REMARK  status: ('A' for Active; 'I' for Inactive)
REMARK    1  A    between atoms: N_2  and  C_4 
REMARK    2  A    between atoms: N_2  and  C_23 
REMARK    3  A    between atoms: C_4  and  C_5 
REMARK       I    between atoms: C_5  and  N_6 
REMARK    4  A    between atoms: N_6  and  C_7 
REMARK    5  A    between atoms: C_8  and  O_9 
REMARK    6  A    between atoms: C_23  and  C_24 
ROOT
HETATM    1  C   UNL     1      25.335  43.933  51.569  1.00  0.00     0.248 C 
HETATM    2  N   UNL     1      26.656  44.320  51.540  1.00  0.00    -0.323 N 
HETATM    3  O   UNL     1      24.748  43.484  52.552  1.00  0.00    -0.271 OA
HETATM    4  H   UNL     1      27.170  44.332  50.661  1.00  0.00     0.169 HD
ENDROOT
BRANCH   2   5
HETATM    5  C   UNL     1      27.479  44.529  52.672  1.00  0.00     0.071 A 
HETATM    6  C   UNL     1      27.168  45.622  53.502  1.00  0.00     0.096 A 
HETATM    7  C   UNL     1      27.857  45.859  54.702  1.00  0.00     0.054 A 
HETATM    8  C   UNL     1      28.905  44.986  55.053  1.00  0.00     0.014 A 
HETATM    9  C   UNL     1      29.202  43.935  54.195  1.00  0.00     0.089 A 
HETATM   10  C   UNL     1      29.815  44.867  56.145  1.00  0.00     0.011 A 
HETATM   11  O   UNL     1      30.225  43.186  54.689  1.00  0.00    -0.309 OA
HETATM   12  C   UNL     1      28.532  43.670  53.002  1.00  0.00     0.070 A 
HETATM   13  C   UNL     1      30.594  43.748  55.872  1.00  0.00     0.087 A 
HETATM   14  C   UNL     1      31.608  43.275  56.702  1.00  0.00     0.038 A 
HETATM   15  C   UNL     1      31.835  43.994  57.879  1.00  0.00     0.003 A 
HETATM   16  C   UNL     1      31.078  45.125  58.192  1.00  0.00     0.001 A 
HETATM   17  C   UNL     1      30.062  45.577  57.336  1.00  0.00     0.015 A 
BRANCH   6  18
HETATM   18  O   UNL     1      26.132  46.438  53.099  1.00  0.00    -0.354 OA
HETATM   19  C   UNL     1      25.895  47.485  54.045  1.00  0.00     0.210 C 
ENDBRANCH   6  18
ENDBRANCH   2   5
BRANCH   1  20
HETATM   20  C   UNL     1      24.602  44.078  50.233  1.00  0.00     0.337 C 
BRANCH  20  21
HETATM   21  N   UNL     1      23.808  45.385  50.096  1.00  0.00    -0.063 N 
HETATM   22  C   UNL     1      23.519  45.702  48.662  1.00  0.00     0.270 C 
HETATM   23  H   UNL     1      22.911  45.193  50.562  1.00  0.00     0.280 HD
BRANCH  21  24
HETATM   24  C   UNL     1      24.351  46.579  50.867  1.00  0.00     0.273 C 
BRANCH  24  25
HETATM   25  C   UNL     1      24.996  47.666  50.050  1.00  0.00    -0.032 A 
HETATM   26  C   UNL     1      26.396  47.741  49.942  1.00  0.00     0.012 A 
HETATM   27  C   UNL     1      26.993  48.730  49.157  1.00  0.00     0.043 A 
HETATM   28  C   UNL     1      26.196  49.647  48.483  1.00  0.00     0.116 A 
HETATM   29  F   UNL     1      26.771  50.590  47.728  1.00  0.00    -0.206 F 
HETATM   30  C   UNL     1      24.811  49.590  48.573  1.00  0.00     0.043 A 
HETATM   31  C   UNL     1      24.210  48.598  49.350  1.00  0.00     0.012 A 
ENDBRANCH  24  25
ENDBRANCH  21  24
ENDBRANCH  20  21
ENDBRANCH   1  20
TORSDOF 6
ENDMDL
MODEL 9
REMARK VINA RESULT:      -9.1      4.326     10.193
REMARK  6 active torsions:
REMARK  status: ('A' for Active; 'I' for Inactive)
REMARK    1  A    between atoms: N_2  and  C_4 
REMARK    2  A    between atoms: N_2  and  C_23 
REMARK    3  A    between atoms: C_4  and  C_5 
REMARK       I    between atoms: C_5  and  N_6 
REMARK    4  A    between atoms: N_6  and  C_7 
REMARK    5  A    between atoms: C_8  and  O_9 
REMARK    6  A    between atoms: C_23  and  C_24 
ROOT
HETATM    1  C   UNL     1      25.208  47.020  50.420  1.00  0.00     0.248 C 
HETATM    2  N   UNL     1      24.634  47.467  49.252  1.00  0.00    -0.323 N 
HETATM    3  O   UNL     1      25.024  47.509  51.534  1.00  0.00    -0.271 OA
HETATM    4  H   UNL     1      25.079  47.283  48.355  1.00  0.00     0.169 HD
ENDROOT
BRANCH   2   5
HETATM    5  C   UNL     1      23.543  48.365  49.160  1.00  0.00     0.071 A 
HETATM    6  C   UNL     1      23.843  49.733  49.029  1.00  0.00     0.096 A 
HETATM    7  C   UNL     1      22.841  50.695  48.830  1.00  0.00     0.054 A 
HETATM    8  C   UNL     1      21.501  50.264  48.793  1.00  0.00     0.014 A 
HETATM    9  C   UNL     1      21.240  48.909  48.955  1.00  0.00     0.089 A 
HETATM   10  C   UNL     1      20.230  50.886  48.609  1.00  0.00     0.011 A 
HETATM   11  O   UNL     1      19.904  48.664  48.879  1.00  0.00    -0.309 OA
HETATM   12  C   UNL     1      22.214  47.930  49.147  1.00  0.00     0.070 A 
HETATM   13  C   UNL     1      19.292  49.861  48.667  1.00  0.00     0.087 A 
HETATM   14  C   UNL     1      17.918  50.044  48.523  1.00  0.00     0.038 A 
HETATM   15  C   UNL     1      17.484  51.355  48.310  1.00  0.00     0.003 A 
HETATM   16  C   UNL     1      18.391  52.415  48.247  1.00  0.00     0.001 A 
HETATM   17  C   UNL     1      19.770  52.199  48.394  1.00  0.00     0.015 A 
BRANCH   6  18
HETATM   18  O   UNL     1      25.175  50.088  49.075  1.00  0.00    -0.354 OA
HETATM   19  C   UNL     1      25.744  50.148  47.763  1.00  0.00     0.210 C 
ENDBRANCH   6  18
ENDBRANCH   2   5
BRANCH   1  20
HETATM   20  C   UNL     1      26.159  45.833  50.245  1.00  0.00     0.337 C 
BRANCH  20  21
HETATM   21  N   UNL     1      25.767  44.596  51.067  1.00  0.00    -0.063 N 
HETATM   22  C   UNL     1      24.386  44.129  50.725  1.00  0.00     0.270 C 
HETATM   23  H   UNL     1      26.427  43.867  50.768  1.00  0.00     0.280 HD
BRANCH  21  24
HETATM   24  C   UNL     1      26.005  44.687  52.566  1.00  0.00     0.273 C 
BRANCH  24  25
HETATM   25  C   UNL     1      27.336  44.192  53.064  1.00  0.00    -0.032 A 
HETATM   26  C   UNL     1      28.138  43.367  52.254  1.00  0.00     0.012 A 
HETATM   27  C   UNL     1      29.388  42.935  52.704  1.00  0.00     0.043 A 
HETATM   28  C   UNL     1      29.837  43.320  53.961  1.00  0.00     0.116 A 
HETATM   29  F   UNL     1      31.037  42.908  54.386  1.00  0.00    -0.206 F 
HETATM   30  C   UNL     1      29.063  44.136  54.776  1.00  0.00     0.043 A 
HETATM   31  C   UNL     1      27.817  44.577  54.327  1.00  0.00     0.012 A 
ENDBRANCH  24  25
ENDBRANCH  21  24
ENDBRANCH  20  21
ENDBRANCH   1  20
TORSDOF 6
ENDMDL
MODEL 10
REMARK VINA RESULT:      -9.1      3.023      8.883
REMARK  6 active torsions:
REMARK  status: ('A' for Active; 'I' for Inactive)
REMARK    1  A    between atoms: N_2  and  C_4 
REMARK    2  A    between atoms: N_2  and  C_23 
REMARK    3  A    between atoms: C_4  and  C_5 
REMARK       I    between atoms: C_5  and  N_6 
REMARK    4  A    between atoms: N_6  and  C_7 
REMARK    5  A    between atoms: C_8  and  O_9 
REMARK    6  A    between atoms: C_23  and  C_24 
ROOT
HETATM    1  C   UNL     1      25.168  43.484  51.120  1.00  0.00     0.248 C 
HETATM    2  N   UNL     1      25.325  44.342  50.056  1.00  0.00    -0.323 N 
HETATM    3  O   UNL     1      24.564  43.745  52.160  1.00  0.00    -0.271 OA
HETATM    4  H   UNL     1      26.104  44.226  49.411  1.00  0.00     0.169 HD
ENDROOT
BRANCH   2   5
HETATM    5  C   UNL     1      24.605  45.544  49.852  1.00  0.00     0.071 A 
HETATM    6  C   UNL     1      25.142  46.720  50.406  1.00  0.00     0.096 A 
HETATM    7  C   UNL     1      24.562  47.977  50.180  1.00  0.00     0.054 A 
HETATM    8  C   UNL     1      23.393  48.041  49.397  1.00  0.00     0.014 A 
HETATM    9  C   UNL     1      22.874  46.856  48.890  1.00  0.00     0.089 A 
HETATM   10  C   UNL     1      22.526  49.075  48.933  1.00  0.00     0.011 A 
HETATM   11  O   UNL     1      21.758  47.098  48.150  1.00  0.00    -0.309 OA
HETATM   12  C   UNL     1      23.431  45.594  49.092  1.00  0.00     0.070 A 
HETATM   13  C   UNL     1      21.549  48.442  48.174  1.00  0.00     0.087 A 
HETATM   14  C   UNL     1      20.505  49.102  47.528  1.00  0.00     0.038 A 
HETATM   15  C   UNL     1      20.464  50.491  47.673  1.00  0.00     0.003 A 
HETATM   16  C   UNL     1      21.424  51.168  48.428  1.00  0.00     0.001 A 
HETATM   17  C   UNL     1      22.465  50.475  49.066  1.00  0.00     0.015 A 
BRANCH   6  18
HETATM   18  O   UNL     1      26.288  46.586  51.163  1.00  0.00    -0.354 OA
HETATM   19  C   UNL     1      26.068  46.993  52.517  1.00  0.00     0.210 C 
ENDBRANCH   6  18
ENDBRANCH   2   5
BRANCH   1  20
HETATM   20  C   UNL     1      25.843  42.121  50.941  1.00  0.00     0.337 C 
BRANCH  20  21
HETATM   21  N   UNL     1      27.289  42.071  51.456  1.00  0.00    -0.063 N 
HETATM   22  C   UNL     1      28.155  41.231  50.570  1.00  0.00     0.270 C 
HETATM   23  H   UNL     1      27.621  43.042  51.391  1.00  0.00     0.280 HD
BRANCH  21  24
HETATM   24  C   UNL     1      27.460  41.743  52.932  1.00  0.00     0.273 C 
BRANCH  24  25
HETATM   25  C   UNL     1      28.191  42.763  53.764  1.00  0.00    -0.032 A 
HETATM   26  C   UNL     1      29.526  42.544  54.149  1.00  0.00     0.012 A 
HETATM   27  C   UNL     1      30.214  43.506  54.892  1.00  0.00     0.043 A 
HETATM   28  C   UNL     1      29.572  44.682  55.256  1.00  0.00     0.116 A 
HETATM   29  F   UNL     1      30.236  45.603  55.964  1.00  0.00    -0.206 F 
HETATM   30  C   UNL     1      28.255  44.921  54.884  1.00  0.00     0.043 A 
HETATM   31  C   UNL     1      27.566  43.966  54.134  1.00  0.00     0.012 A 
ENDBRANCH  24  25
ENDBRANCH  21  24
ENDBRANCH  20  21
ENDBRANCH   1  20
TORSDOF 6
ENDMDL
