MODEL 1
REMARK VINA RESULT:      -8.8      0.000      0.000
REMARK  4 active torsions:
REMARK  status: ('A' for Active; 'I' for Inactive)
REMARK    1  A    between atoms: C_9  and  C_10 
REMARK       I    between atoms: C_10  and  N_11 
REMARK    2  A    between atoms: N_11  and  C_12 
REMARK    3  A    between atoms: C_12  and  C_13 
REMARK    4  A    between atoms: C_14  and  O_15 
ROOT
HETATM    1  C   UNL     1      25.386  46.194  51.022  1.00  0.00     0.273 C 
HETATM    2  N   UNL     1      26.474  45.854  51.795  1.00  0.00    -0.347 N 
HETATM    3  O   UNL     1      24.322  45.585  51.032  1.00  0.00    -0.266 OA
HETATM    4  H   UNL     1      27.212  46.554  51.804  1.00  0.00     0.163 HD
ENDROOT
BRANCH   1   5
HETATM    5  C   UNL     1      25.635  47.375  50.177  1.00  0.00     0.157 A 
HETATM    6  C   UNL     1      24.666  48.163  49.487  1.00  0.00     0.029 A 
HETATM    7  C   UNL     1      23.264  48.149  49.336  1.00  0.00     0.023 A 
HETATM    8  C   UNL     1      25.398  49.145  48.832  1.00  0.00     0.063 A 
HETATM    9  C   UNL     1      22.644  49.119  48.531  1.00  0.00    -0.061 A 
HETATM   10  C   UNL     1      21.154  49.113  48.344  1.00  0.00     0.048 C 
HETATM   11  C   UNL     1      23.422  50.091  47.888  1.00  0.00     0.009 A 
HETATM   12  C   UNL     1      24.814  50.126  48.027  1.00  0.00     0.032 A 
HETATM   13  N   UNL     1      26.703  48.900  49.160  1.00  0.00    -0.277 N 
HETATM   14  H   UNL     1      27.517  49.424  48.862  1.00  0.00     0.189 HD
HETATM   15  N   UNL     1      26.887  47.836  49.961  1.00  0.00    -0.168 NA
ENDBRANCH   1   5
BRANCH   2  16
HETATM   16  C   UNL     1      26.449  44.822  52.820  1.00  0.00     0.116 C 
HETATM   17  C   UNL     1      26.653  43.421  52.234  1.00  0.00     0.037 C 
BRANCH  16  18
HETATM   18  C   UNL     1      27.516  45.083  53.879  1.00  0.00    -0.002 A 
HETATM   19  C   UNL     1      27.452  46.214  54.715  1.00  0.00     0.076 A 
HETATM   20  C   UNL     1      28.437  46.408  55.690  1.00  0.00     0.038 A 
HETATM   21  C   UNL     1      29.473  45.483  55.852  1.00  0.00     0.009 A 
HETATM   22  C   UNL     1      29.538  44.344  55.052  1.00  0.00    -0.061 A 
HETATM   23  C   UNL     1      30.639  43.339  55.218  1.00  0.00     0.048 C 
HETATM   24  C   UNL     1      28.558  44.151  54.073  1.00  0.00     0.018 A 
BRANCH  19  25
HETATM   25  O   UNL     1      26.393  47.060  54.509  1.00  0.00    -0.355 OA
HETATM   26  C   UNL     1      26.342  48.252  55.282  1.00  0.00     0.210 C 
ENDBRANCH  19  25
ENDBRANCH  16  18
ENDBRANCH   2  16
TORSDOF 4
ENDMDL
MODEL 2
REMARK VINA RESULT:      -8.6      2.364      3.363
REMARK  4 active torsions:
REMARK  status: ('A' for Active; 'I' for Inactive)
REMARK    1  A    between atoms: C_9  and  C_10 
REMARK       I    between atoms: C_10  and  N_11 
REMARK    2  A    between atoms: N_11  and  C_12 
REMARK    3  A    between atoms: C_12  and  C_13 
REMARK    4  A    between atoms: C_14  and  O_15 
ROOT
HETATM    1  C   UNL     1      26.652  43.286  51.741  1.00  0.00     0.273 C 
HETATM    2  N   UNL     1      27.470  43.823  52.710  1.00  0.00    -0.347 N 
HETATM    3  O   UNL     1      26.791  42.160  51.275  1.00  0.00    -0.266 OA
HETATM    4  H   UNL     1      27.122  44.689  53.113  1.00  0.00     0.163 HD
ENDROOT
BRANCH   1   5
HETATM    5  C   UNL     1      25.586  44.209  51.319  1.00  0.00     0.157 A 
HETATM    6  C   UNL     1      25.741  45.476  50.680  1.00  0.00     0.029 A 
HETATM    7  C   UNL     1      26.822  46.271  50.249  1.00  0.00     0.023 A 
HETATM    8  C   UNL     1      24.448  45.951  50.499  1.00  0.00     0.063 A 
HETATM    9  C   UNL     1      26.571  47.518  49.653  1.00  0.00    -0.061 A 
HETATM   10  C   UNL     1      27.708  48.388  49.200  1.00  0.00     0.048 C 
HETATM   11  C   UNL     1      25.251  47.959  49.490  1.00  0.00     0.009 A 
HETATM   12  C   UNL     1      24.163  47.184  49.907  1.00  0.00     0.032 A 
HETATM   13  N   UNL     1      23.633  44.980  51.012  1.00  0.00    -0.277 N 
HETATM   14  H   UNL     1      22.620  44.987  51.046  1.00  0.00     0.189 HD
HETATM   15  N   UNL     1      24.281  43.919  51.523  1.00  0.00    -0.168 NA
ENDBRANCH   1   5
BRANCH   2  16
HETATM   16  C   UNL     1      28.507  43.075  53.402  1.00  0.00     0.116 C 
HETATM   17  C   UNL     1      29.618  42.613  52.452  1.00  0.00     0.037 C 
BRANCH  16  18
HETATM   18  C   UNL     1      29.120  43.907  54.524  1.00  0.00    -0.002 A 
HETATM   19  C   UNL     1      28.586  45.160  54.879  1.00  0.00     0.076 A 
HETATM   20  C   UNL     1      29.163  45.884  55.928  1.00  0.00     0.038 A 
HETATM   21  C   UNL     1      30.251  45.369  56.639  1.00  0.00     0.009 A 
HETATM   22  C   UNL     1      30.777  44.117  56.320  1.00  0.00    -0.061 A 
HETATM   23  C   UNL     1      31.939  43.547  57.077  1.00  0.00     0.048 C 
HETATM   24  C   UNL     1      30.206  43.394  55.267  1.00  0.00     0.018 A 
BRANCH  19  25
HETATM   25  O   UNL     1      27.505  45.585  54.151  1.00  0.00    -0.355 OA
HETATM   26  C   UNL     1      26.892  46.808  54.535  1.00  0.00     0.210 C 
ENDBRANCH  19  25
ENDBRANCH  16  18
ENDBRANCH   2  16
TORSDOF 4
ENDMDL
MODEL 3
REMARK VINA RESULT:      -8.6      1.923      7.970
REMARK  4 active torsions:
REMARK  status: ('A' for Active; 'I' for Inactive)
REMARK    1  A    between atoms: C_9  and  C_10 
REMARK       I    between atoms: C_10  and  N_11 
REMARK    2  A    between atoms: N_11  and  C_12 
REMARK    3  A    between atoms: C_12  and  C_13 
REMARK    4  A    between atoms: C_14  and  O_15 
ROOT
HETATM    1  C   UNL     1      25.310  46.341  50.590  1.00  0.00     0.273 C 
HETATM    2  N   UNL     1      24.149  47.034  50.334  1.00  0.00    -0.347 N 
HETATM    3  O   UNL     1      25.904  45.666  49.756  1.00  0.00    -0.266 OA
HETATM    4  H   UNL     1      23.879  47.680  51.072  1.00  0.00     0.163 HD
ENDROOT
BRANCH   1   5
HETATM    5  C   UNL     1      25.772  46.496  51.980  1.00  0.00     0.157 A 
HETATM    6  C   UNL     1      26.666  45.644  52.695  1.00  0.00     0.029 A 
HETATM    7  C   UNL     1      27.381  44.461  52.419  1.00  0.00     0.023 A 
HETATM    8  C   UNL     1      26.775  46.211  53.958  1.00  0.00     0.063 A 
HETATM    9  C   UNL     1      28.179  43.884  53.421  1.00  0.00    -0.061 A 
HETATM   10  C   UNL     1      28.937  42.615  53.153  1.00  0.00     0.048 C 
HETATM   11  C   UNL     1      28.260  44.489  54.682  1.00  0.00     0.009 A 
HETATM   12  C   UNL     1      27.562  45.666  54.976  1.00  0.00     0.032 A 
HETATM   13  N   UNL     1      25.979  47.323  53.923  1.00  0.00    -0.277 N 
HETATM   14  H   UNL     1      25.820  47.984  54.674  1.00  0.00     0.189 HD
HETATM   15  N   UNL     1      25.351  47.523  52.752  1.00  0.00    -0.168 NA
ENDBRANCH   1   5
BRANCH   2  16
HETATM   16  C   UNL     1      23.559  47.168  49.011  1.00  0.00     0.116 C 
HETATM   17  C   UNL     1      22.502  46.093  48.738  1.00  0.00     0.037 C 
BRANCH  16  18
HETATM   18  C   UNL     1      22.931  48.547  48.833  1.00  0.00    -0.002 A 
HETATM   19  C   UNL     1      23.715  49.716  48.873  1.00  0.00     0.076 A 
HETATM   20  C   UNL     1      23.105  50.961  48.684  1.00  0.00     0.038 A 
HETATM   21  C   UNL     1      21.732  51.055  48.440  1.00  0.00     0.009 A 
HETATM   22  C   UNL     1      20.944  49.907  48.370  1.00  0.00    -0.061 A 
HETATM   23  C   UNL     1      19.472  49.990  48.101  1.00  0.00     0.048 C 
HETATM   24  C   UNL     1      21.550  48.661  48.564  1.00  0.00     0.018 A 
BRANCH  19  25
HETATM   25  O   UNL     1      25.056  49.538  49.094  1.00  0.00    -0.355 OA
HETATM   26  C   UNL     1      25.949  49.908  48.052  1.00  0.00     0.210 C 
ENDBRANCH  19  25
ENDBRANCH  16  18
ENDBRANCH   2  16
TORSDOF 4
ENDMDL
MODEL 4
REMARK VINA RESULT:      -8.4      4.822      6.551
REMARK  4 active torsions:
REMARK  status: ('A' for Active; 'I' for Inactive)
REMARK    1  A    between atoms: C_9  and  C_10 
REMARK       I    between atoms: C_10  and  N_11 
REMARK    2  A    between atoms: N_11  and  C_12 
REMARK    3  A    between atoms: C_12  and  C_13 
REMARK    4  A    between atoms: C_14  and  O_15 
ROOT
HETATM    1  C   UNL     1      27.694  42.647  51.814  1.00  0.00     0.273 C 
HETATM    2  N   UNL     1      27.280  42.666  53.127  1.00  0.00    -0.347 N 
HETATM    3  O   UNL     1      27.642  43.617  51.064  1.00  0.00    -0.266 OA
HETATM    4  H   UNL     1      27.548  41.842  53.659  1.00  0.00     0.163 HD
ENDROOT
BRANCH   1   5
HETATM    5  C   UNL     1      28.212  41.332  51.399  1.00  0.00     0.157 A 
HETATM    6  C   UNL     1      28.154  40.752  50.096  1.00  0.00     0.029 A 
HETATM    7  C   UNL     1      27.647  41.130  48.837  1.00  0.00     0.023 A 
HETATM    8  C   UNL     1      28.766  39.511  50.225  1.00  0.00     0.063 A 
HETATM    9  C   UNL     1      27.768  40.250  47.748  1.00  0.00    -0.061 A 
HETATM   10  C   UNL     1      27.221  40.626  46.401  1.00  0.00     0.048 C 
HETATM   11  C   UNL     1      28.393  39.008  47.923  1.00  0.00     0.009 A 
HETATM   12  C   UNL     1      28.907  38.614  49.163  1.00  0.00     0.032 A 
HETATM   13  N   UNL     1      29.143  39.430  51.537  1.00  0.00    -0.277 N 
HETATM   14  H   UNL     1      29.623  38.661  51.989  1.00  0.00     0.189 HD
HETATM   15  N   UNL     1      28.818  40.503  52.279  1.00  0.00    -0.168 NA
ENDBRANCH   1   5
BRANCH   2  16
HETATM   16  C   UNL     1      26.863  43.870  53.827  1.00  0.00     0.116 C 
HETATM   17  C   UNL     1      25.738  43.596  54.831  1.00  0.00     0.037 C 
BRANCH  16  18
HETATM   18  C   UNL     1      28.041  44.510  54.555  1.00  0.00    -0.002 A 
HETATM   19  C   UNL     1      28.038  45.878  54.887  1.00  0.00     0.076 A 
HETATM   20  C   UNL     1      29.129  46.424  55.574  1.00  0.00     0.038 A 
HETATM   21  C   UNL     1      30.211  45.622  55.949  1.00  0.00     0.009 A 
HETATM   22  C   UNL     1      30.219  44.260  55.653  1.00  0.00    -0.061 A 
HETATM   23  C   UNL     1      31.369  43.385  56.054  1.00  0.00     0.048 C 
HETATM   24  C   UNL     1      29.133  43.713  54.961  1.00  0.00     0.018 A 
BRANCH  19  25
HETATM   25  O   UNL     1      26.931  46.591  54.506  1.00  0.00    -0.355 OA
HETATM   26  C   UNL     1      26.756  47.885  55.067  1.00  0.00     0.210 C 
ENDBRANCH  19  25
ENDBRANCH  16  18
ENDBRANCH   2  16
TORSDOF 4
ENDMDL
MODEL 5
REMARK VINA RESULT:      -8.3      3.242      8.068
REMARK  4 active torsions:
REMARK  status: ('A' for Active; 'I' for Inactive)
REMARK    1  A    between atoms: C_9  and  C_10 
REMARK       I    between atoms: C_10  and  N_11 
REMARK    2  A    between atoms: N_11  and  C_12 
REMARK    3  A    between atoms: C_12  and  C_13 
REMARK    4  A    between atoms: C_14  and  O_15 
ROOT
HETATM    1  C   UNL     1      28.557  43.587  52.671  1.00  0.00     0.273 C 
HETATM    2  N   UNL     1      27.370  43.397  51.999  1.00  0.00    -0.347 N 
HETATM    3  O   UNL     1      29.614  43.046  52.362  1.00  0.00    -0.266 OA
HETATM    4  H   UNL     1      26.633  44.044  52.267  1.00  0.00     0.163 HD
ENDROOT
BRANCH   1   5
HETATM    5  C   UNL     1      28.426  44.514  53.808  1.00  0.00     0.157 A 
HETATM    6  C   UNL     1      29.242  44.568  54.978  1.00  0.00     0.029 A 
HETATM    7  C   UNL     1      30.353  43.859  55.476  1.00  0.00     0.023 A 
HETATM    8  C   UNL     1      28.711  45.600  55.742  1.00  0.00     0.063 A 
HETATM    9  C   UNL     1      30.894  44.206  56.725  1.00  0.00    -0.061 A 
HETATM   10  C   UNL     1      32.068  43.453  57.282  1.00  0.00     0.048 C 
HETATM   11  C   UNL     1      30.327  45.253  57.463  1.00  0.00     0.009 A 
HETATM   12  C   UNL     1      29.225  45.973  56.986  1.00  0.00     0.032 A 
HETATM   13  N   UNL     1      27.660  46.084  55.012  1.00  0.00    -0.277 N 
HETATM   14  H   UNL     1      27.041  46.846  55.263  1.00  0.00     0.189 HD
HETATM   15  N   UNL     1      27.451  45.450  53.846  1.00  0.00    -0.168 NA
ENDBRANCH   1   5
BRANCH   2  16
HETATM   16  C   UNL     1      27.252  42.647  50.759  1.00  0.00     0.116 C 
HETATM   17  C   UNL     1      27.199  41.134  51.000  1.00  0.00     0.037 C 
BRANCH  16  18
HETATM   18  C   UNL     1      26.011  43.075  49.982  1.00  0.00    -0.002 A 
HETATM   19  C   UNL     1      25.824  44.413  49.585  1.00  0.00     0.076 A 
HETATM   20  C   UNL     1      24.682  44.763  48.855  1.00  0.00     0.038 A 
HETATM   21  C   UNL     1      23.736  43.796  48.501  1.00  0.00     0.009 A 
HETATM   22  C   UNL     1      23.918  42.462  48.862  1.00  0.00    -0.061 A 
HETATM   23  C   UNL     1      22.916  41.412  48.483  1.00  0.00     0.048 C 
HETATM   24  C   UNL     1      25.055  42.110  49.597  1.00  0.00     0.018 A 
BRANCH  19  25
HETATM   25  O   UNL     1      26.807  45.295  49.950  1.00  0.00    -0.355 OA
HETATM   26  C   UNL     1      26.417  46.628  50.251  1.00  0.00     0.210 C 
ENDBRANCH  19  25
ENDBRANCH  16  18
ENDBRANCH   2  16
TORSDOF 4
ENDMDL
MODEL 6
REMARK VINA RESULT:      -8.1      2.433      8.655
REMARK  4 active torsions:
REMARK  status: ('A' for Active; 'I' for Inactive)
REMARK    1  A    between atoms: C_9  and  C_10 
REMARK       I    between atoms: C_10  and  N_11 
REMARK    2  A    between atoms: N_11  and  C_12 
REMARK    3  A    between atoms: C_12  and  C_13 
REMARK    4  A    between atoms: C_14  and  O_15 
ROOT
HETATM    1  C   UNL     1      24.817  48.074  49.940  1.00  0.00     0.273 C 
HETATM    2  N   UNL     1      23.588  48.558  49.551  1.00  0.00    -0.347 N 
HETATM    3  O   UNL     1      25.882  48.633  49.697  1.00  0.00    -0.266 OA
HETATM    4  H   UNL     1      22.799  48.077  49.976  1.00  0.00     0.163 HD
ENDROOT
BRANCH   1   5
HETATM    5  C   UNL     1      24.721  46.807  50.685  1.00  0.00     0.157 A 
HETATM    6  C   UNL     1      25.334  46.490  51.934  1.00  0.00     0.029 A 
HETATM    7  C   UNL     1      26.174  47.153  52.852  1.00  0.00     0.023 A 
HETATM    8  C   UNL     1      24.948  45.184  52.205  1.00  0.00     0.063 A 
HETATM    9  C   UNL     1      26.600  46.483  54.010  1.00  0.00    -0.061 A 
HETATM   10  C   UNL     1      27.508  47.166  54.993  1.00  0.00     0.048 C 
HETATM   11  C   UNL     1      26.187  45.166  54.244  1.00  0.00     0.009 A 
HETATM   12  C   UNL     1      25.350  44.490  53.349  1.00  0.00     0.032 A 
HETATM   13  N   UNL     1      24.157  44.817  51.152  1.00  0.00    -0.277 N 
HETATM   14  H   UNL     1      23.695  43.925  51.016  1.00  0.00     0.189 HD
HETATM   15  N   UNL     1      24.004  45.764  50.211  1.00  0.00    -0.168 NA
ENDBRANCH   1   5
BRANCH   2  16
HETATM   16  C   UNL     1      23.388  49.858  48.930  1.00  0.00     0.116 C 
HETATM   17  C   UNL     1      24.397  50.125  47.808  1.00  0.00     0.037 C 
BRANCH  16  18
HETATM   18  C   UNL     1      21.973  49.981  48.372  1.00  0.00    -0.002 A 
HETATM   19  C   UNL     1      21.397  48.948  47.610  1.00  0.00     0.076 A 
HETATM   20  C   UNL     1      20.088  49.089  47.134  1.00  0.00     0.038 A 
HETATM   21  C   UNL     1      19.343  50.236  47.421  1.00  0.00     0.009 A 
HETATM   22  C   UNL     1      19.888  51.259  48.197  1.00  0.00    -0.061 A 
HETATM   23  C   UNL     1      19.099  52.493  48.520  1.00  0.00     0.048 C 
HETATM   24  C   UNL     1      21.198  51.123  48.669  1.00  0.00     0.018 A 
BRANCH  19  25
HETATM   25  O   UNL     1      22.182  47.846  47.392  1.00  0.00    -0.355 OA
HETATM   26  C   UNL     1      21.540  46.580  47.334  1.00  0.00     0.210 C 
ENDBRANCH  19  25
ENDBRANCH  16  18
ENDBRANCH   2  16
TORSDOF 4
ENDMDL
MODEL 7
REMARK VINA RESULT:      -7.8      3.883      9.564
REMARK  4 active torsions:
REMARK  status: ('A' for Active; 'I' for Inactive)
REMARK    1  A    between atoms: C_9  and  C_10 
REMARK       I    between atoms: C_10  and  N_11 
REMARK    2  A    between atoms: N_11  and  C_12 
REMARK    3  A    between atoms: C_12  and  C_13 
REMARK    4  A    between atoms: C_14  and  O_15 
ROOT
HETATM    1  C   UNL     1      21.291  48.278  48.931  1.00  0.00     0.273 C 
HETATM    2  N   UNL     1      20.476  49.123  49.651  1.00  0.00    -0.347 N 
HETATM    3  O   UNL     1      20.955  47.161  48.551  1.00  0.00    -0.266 OA
HETATM    4  H   UNL     1      20.834  50.071  49.738  1.00  0.00     0.163 HD
ENDROOT
BRANCH   1   5
HETATM    5  C   UNL     1      22.617  48.859  48.661  1.00  0.00     0.157 A 
HETATM    6  C   UNL     1      23.872  48.434  49.193  1.00  0.00     0.029 A 
HETATM    7  C   UNL     1      24.313  47.430  50.078  1.00  0.00     0.023 A 
HETATM    8  C   UNL     1      24.809  49.300  48.645  1.00  0.00     0.063 A 
HETATM    9  C   UNL     1      25.680  47.328  50.386  1.00  0.00    -0.061 A 
HETATM   10  C   UNL     1      26.169  46.275  51.338  1.00  0.00     0.048 C 
HETATM   11  C   UNL     1      26.591  48.223  49.810  1.00  0.00     0.009 A 
HETATM   12  C   UNL     1      26.175  49.225  48.926  1.00  0.00     0.032 A 
HETATM   13  N   UNL     1      24.092  50.149  47.848  1.00  0.00    -0.277 N 
HETATM   14  H   UNL     1      24.453  50.912  47.286  1.00  0.00     0.189 HD
HETATM   15  N   UNL     1      22.767  49.922  47.839  1.00  0.00    -0.168 NA
ENDBRANCH   1   5
BRANCH   2  16
HETATM   16  C   UNL     1      19.073  48.855  49.927  1.00  0.00     0.116 C 
HETATM   17  C   UNL     1      18.765  48.873  51.428  1.00  0.00     0.037 C 
BRANCH  16  18
HETATM   18  C   UNL     1      18.178  49.867  49.219  1.00  0.00    -0.002 A 
HETATM   19  C   UNL     1      17.730  49.649  47.902  1.00  0.00     0.076 A 
HETATM   20  C   UNL     1      16.893  50.591  47.293  1.00  0.00     0.038 A 
HETATM   21  C   UNL     1      16.483  51.735  47.984  1.00  0.00     0.009 A 
HETATM   22  C   UNL     1      16.895  51.955  49.298  1.00  0.00    -0.061 A 
HETATM   23  C   UNL     1      16.459  53.174  50.055  1.00  0.00     0.048 C 
HETATM   24  C   UNL     1      17.737  51.019  49.906  1.00  0.00     0.018 A 
BRANCH  19  25
HETATM   25  O   UNL     1      18.156  48.493  47.301  1.00  0.00    -0.355 OA
HETATM   26  C   UNL     1      18.866  48.610  46.076  1.00  0.00     0.210 C 
ENDBRANCH  19  25
ENDBRANCH  16  18
ENDBRANCH   2  16
TORSDOF 4
ENDMDL
MODEL 8
REMARK VINA RESULT:      -7.7      2.586      4.119
REMARK  4 active torsions:
REMARK  status: ('A' for Active; 'I' for Inactive)
REMARK    1  A    between atoms: C_9  and  C_10 
REMARK       I    between atoms: C_10  and  N_11 
REMARK    2  A    between atoms: N_11  and  C_12 
REMARK    3  A    between atoms: C_12  and  C_13 
REMARK    4  A    between atoms: C_14  and  O_15 
ROOT
HETATM    1  C   UNL     1      23.637  47.564  49.298  1.00  0.00     0.273 C 
HETATM    2  N   UNL     1      24.946  47.562  49.724  1.00  0.00    -0.347 N 
HETATM    3  O   UNL     1      23.014  46.552  48.993  1.00  0.00    -0.266 OA
HETATM    4  H   UNL     1      25.261  48.452  50.102  1.00  0.00     0.163 HD
ENDROOT
BRANCH   1   5
HETATM    5  C   UNL     1      23.057  48.917  49.245  1.00  0.00     0.157 A 
HETATM    6  C   UNL     1      21.673  49.264  49.225  1.00  0.00     0.029 A 
HETATM    7  C   UNL     1      20.449  48.565  49.239  1.00  0.00     0.023 A 
HETATM    8  C   UNL     1      21.649  50.652  49.166  1.00  0.00     0.063 A 
HETATM    9  C   UNL     1      19.241  49.281  49.190  1.00  0.00    -0.061 A 
HETATM   10  C   UNL     1      17.926  48.555  49.188  1.00  0.00     0.048 C 
HETATM   11  C   UNL     1      19.263  50.681  49.132  1.00  0.00     0.009 A 
HETATM   12  C   UNL     1      20.467  51.395  49.120  1.00  0.00     0.032 A 
HETATM   13  N   UNL     1      22.962  51.035  49.161  1.00  0.00    -0.277 N 
HETATM   14  H   UNL     1      23.323  51.981  49.128  1.00  0.00     0.189 HD
HETATM   15  N   UNL     1      23.840  50.018  49.199  1.00  0.00    -0.168 NA
ENDBRANCH   1   5
BRANCH   2  16
HETATM   16  C   UNL     1      25.706  46.353  50.002  1.00  0.00     0.116 C 
HETATM   17  C   UNL     1      27.159  46.462  49.530  1.00  0.00     0.037 C 
BRANCH  16  18
HETATM   18  C   UNL     1      25.685  46.030  51.493  1.00  0.00    -0.002 A 
HETATM   19  C   UNL     1      25.493  44.713  51.953  1.00  0.00     0.076 A 
HETATM   20  C   UNL     1      25.502  44.454  53.328  1.00  0.00     0.038 A 
HETATM   21  C   UNL     1      25.716  45.484  54.248  1.00  0.00     0.009 A 
HETATM   22  C   UNL     1      25.936  46.790  53.811  1.00  0.00    -0.061 A 
HETATM   23  C   UNL     1      26.174  47.905  54.785  1.00  0.00     0.048 C 
HETATM   24  C   UNL     1      25.921  47.053  52.437  1.00  0.00     0.018 A 
BRANCH  19  25
HETATM   25  O   UNL     1      25.313  43.756  50.988  1.00  0.00    -0.355 OA
HETATM   26  C   UNL     1      24.014  43.197  50.849  1.00  0.00     0.210 C 
ENDBRANCH  19  25
ENDBRANCH  16  18
ENDBRANCH   2  16
TORSDOF 4
ENDMDL
MODEL 9
REMARK VINA RESULT:      -7.5      3.943      9.376
REMARK  4 active torsions:
REMARK  status: ('A' for Active; 'I' for Inactive)
REMARK    1  A    between atoms: C_9  and  C_10 
REMARK       I    between atoms: C_10  and  N_11 
REMARK    2  A    between atoms: N_11  and  C_12 
REMARK    3  A    between atoms: C_12  and  C_13 
REMARK    4  A    between atoms: C_14  and  O_15 
ROOT
HETATM    1  C   UNL     1      21.180  47.972  48.764  1.00  0.00     0.273 C 
HETATM    2  N   UNL     1      20.393  48.659  49.661  1.00  0.00    -0.347 N 
HETATM    3  O   UNL     1      20.839  46.933  48.209  1.00  0.00    -0.266 OA
HETATM    4  H   UNL     1      20.744  49.584  49.897  1.00  0.00     0.163 HD
ENDROOT
BRANCH   1   5
HETATM    5  C   UNL     1      22.484  48.618  48.538  1.00  0.00     0.157 A 
HETATM    6  C   UNL     1      23.738  48.263  49.120  1.00  0.00     0.029 A 
HETATM    7  C   UNL     1      24.197  47.289  50.029  1.00  0.00     0.023 A 
HETATM    8  C   UNL     1      24.650  49.172  48.598  1.00  0.00     0.063 A 
HETATM    9  C   UNL     1      25.555  47.261  50.388  1.00  0.00    -0.061 A 
HETATM   10  C   UNL     1      26.062  46.241  51.367  1.00  0.00     0.048 C 
HETATM   11  C   UNL     1      26.440  48.197  49.838  1.00  0.00     0.009 A 
HETATM   12  C   UNL     1      26.006  49.170  48.930  1.00  0.00     0.032 A 
HETATM   13  N   UNL     1      23.920  49.977  47.767  1.00  0.00    -0.277 N 
HETATM   14  H   UNL     1      24.262  50.753  47.213  1.00  0.00     0.189 HD
HETATM   15  N   UNL     1      22.610  49.681  47.712  1.00  0.00    -0.168 NA
ENDBRANCH   1   5
BRANCH   2  16
HETATM   16  C   UNL     1      19.010  48.318  49.953  1.00  0.00     0.116 C 
HETATM   17  C   UNL     1      18.632  48.625  51.406  1.00  0.00     0.037 C 
BRANCH  16  18
HETATM   18  C   UNL     1      18.059  49.061  49.019  1.00  0.00    -0.002 A 
HETATM   19  C   UNL     1      18.209  50.439  48.772  1.00  0.00     0.076 A 
HETATM   20  C   UNL     1      17.330  51.081  47.892  1.00  0.00     0.038 A 
HETATM   21  C   UNL     1      16.317  50.367  47.245  1.00  0.00     0.009 A 
HETATM   22  C   UNL     1      16.171  48.996  47.457  1.00  0.00    -0.061 A 
HETATM   23  C   UNL     1      15.095  48.215  46.765  1.00  0.00     0.048 C 
HETATM   24  C   UNL     1      17.044  48.353  48.340  1.00  0.00     0.018 A 
BRANCH  19  25
HETATM   25  O   UNL     1      19.239  51.063  49.425  1.00  0.00    -0.355 OA
HETATM   26  C   UNL     1      20.035  51.975  48.681  1.00  0.00     0.210 C 
ENDBRANCH  19  25
ENDBRANCH  16  18
ENDBRANCH   2  16
TORSDOF 4
ENDMDL
MODEL 10
REMARK VINA RESULT:      -7.5      3.055      4.079
REMARK  4 active torsions:
REMARK  status: ('A' for Active; 'I' for Inactive)
REMARK    1  A    between atoms: C_9  and  C_10 
REMARK       I    between atoms: C_10  and  N_11 
REMARK    2  A    between atoms: N_11  and  C_12 
REMARK    3  A    between atoms: C_12  and  C_13 
REMARK    4  A    between atoms: C_14  and  O_15 
ROOT
HETATM    1  C   UNL     1      27.203  42.805  51.420  1.00  0.00     0.273 C 
HETATM    2  N   UNL     1      27.886  43.420  52.444  1.00  0.00    -0.347 N 
HETATM    3  O   UNL     1      27.237  41.598  51.201  1.00  0.00    -0.266 OA
HETATM    4  H   UNL     1      27.618  44.389  52.599  1.00  0.00     0.163 HD
ENDROOT
BRANCH   1   5
HETATM    5  C   UNL     1      26.419  43.751  50.608  1.00  0.00     0.157 A 
HETATM    6  C   UNL     1      25.307  43.452  49.764  1.00  0.00     0.029 A 
HETATM    7  C   UNL     1      24.592  42.295  49.397  1.00  0.00     0.023 A 
HETATM    8  C   UNL     1      24.929  44.673  49.219  1.00  0.00     0.063 A 
HETATM    9  C   UNL     1      23.523  42.398  48.491  1.00  0.00    -0.061 A 
HETATM   10  C   UNL     1      22.758  41.175  48.074  1.00  0.00     0.048 C 
HETATM   11  C   UNL     1      23.175  43.650  47.965  1.00  0.00     0.009 A 
HETATM   12  C   UNL     1      23.869  44.812  48.320  1.00  0.00     0.032 A 
HETATM   13  N   UNL     1      25.794  45.588  49.751  1.00  0.00    -0.277 N 
HETATM   14  H   UNL     1      25.811  46.587  49.576  1.00  0.00     0.189 HD
HETATM   15  N   UNL     1      26.713  45.071  50.585  1.00  0.00    -0.168 NA
ENDBRANCH   1   5
BRANCH   2  16
HETATM   16  C   UNL     1      28.617  42.703  53.477  1.00  0.00     0.116 C 
HETATM   17  C   UNL     1      29.744  41.842  52.896  1.00  0.00     0.037 C 
BRANCH  16  18
HETATM   18  C   UNL     1      29.202  43.672  54.501  1.00  0.00    -0.002 A 
HETATM   19  C   UNL     1      28.645  44.950  54.697  1.00  0.00     0.076 A 
HETATM   20  C   UNL     1      29.196  45.802  55.660  1.00  0.00     0.038 A 
HETATM   21  C   UNL     1      30.281  45.392  56.441  1.00  0.00     0.009 A 
HETATM   22  C   UNL     1      30.829  44.120  56.279  1.00  0.00    -0.061 A 
HETATM   23  C   UNL     1      31.988  43.662  57.113  1.00  0.00     0.048 C 
HETATM   24  C   UNL     1      30.284  43.268  55.312  1.00  0.00     0.018 A 
BRANCH  19  25
HETATM   25  O   UNL     1      27.568  45.268  53.910  1.00  0.00    -0.355 OA
HETATM   26  C   UNL     1      26.904  46.497  54.169  1.00  0.00     0.210 C 
ENDBRANCH  19  25
ENDBRANCH  16  18
ENDBRANCH   2  16
TORSDOF 4
ENDMDL
