MODEL 1
REMARK VINA RESULT:     -10.6      0.000      0.000
REMARK  4 active torsions:
REMARK  status: ('A' for Active; 'I' for Inactive)
REMARK    1  A    between atoms: C_8  and  C_9 
REMARK    2  A    between atoms: C_12  and  N_13 
REMARK       I    between atoms: N_13  and  C_14 
REMARK    3  A    between atoms: C_14  and  C_15 
REMARK    4  A    between atoms: C_18  and  N_19 
ROOT
HETATM    1  C   UNL     1      26.910  45.804  53.170  1.00  0.00     0.010 A 
HETATM    2  C   UNL     1      26.622  45.056  52.023  1.00  0.00     0.017 A 
HETATM    3  C   UNL     1      25.635  45.475  51.117  1.00  0.00     0.030 A 
HETATM    4  C   UNL     1      24.921  46.653  51.338  1.00  0.00     0.035 A 
HETATM    5  C   UNL     1      25.167  47.376  52.508  1.00  0.00     0.030 A 
HETATM    6  C   UNL     1      26.149  46.955  53.414  1.00  0.00     0.017 A 
ENDROOT
BRANCH   4   7
HETATM    7  N   UNL     1      23.994  47.201  50.426  1.00  0.00    -0.323 N 
HETATM    8  C   UNL     1      24.187  48.287  49.589  1.00  0.00     0.256 C 
HETATM    9  O   UNL     1      25.237  48.891  49.405  1.00  0.00    -0.267 OA
HETATM   10  H   UNL     1      23.057  46.829  50.495  1.00  0.00     0.169 HD
BRANCH   8  11
HETATM   11  C   UNL     1      22.956  48.794  48.915  1.00  0.00     0.032 A 
HETATM   12  C   UNL     1      21.724  48.148  48.996  1.00  0.00     0.019 A 
HETATM   13  C   UNL     1      20.588  48.718  48.397  1.00  0.00     0.031 A 
HETATM   14  C   UNL     1      20.646  49.938  47.697  1.00  0.00     0.045 A 
HETATM   15  C   UNL     1      21.908  50.545  47.594  1.00  0.00     0.031 A 
HETATM   16  C   UNL     1      23.046  49.982  48.190  1.00  0.00     0.019 A 
BRANCH  14  17
HETATM   17  N   UNL     1      19.475  50.538  47.129  1.00  0.00    -0.252 N 
HETATM   18  C   UNL     1      18.916  51.724  47.558  1.00  0.00     0.231 C 
HETATM   19  O   UNL     1      19.310  52.508  48.410  1.00  0.00    -0.273 OA
HETATM   20  C   UNL     1      17.647  51.972  46.800  1.00  0.00     0.113 C 
HETATM   21  C   UNL     1      17.719  51.012  45.646  1.00  0.00     0.113 C 
HETATM   22  C   UNL     1      18.769  50.026  46.060  1.00  0.00     0.231 C 
HETATM   23  O   UNL     1      18.908  48.963  45.468  1.00  0.00    -0.273 OA
ENDBRANCH  14  17
ENDBRANCH   8  11
ENDBRANCH   4   7
BRANCH   1  24
HETATM   24  C   UNL     1      27.999  45.462  54.093  1.00  0.00     0.139 A 
HETATM   25  N   UNL     1      28.303  46.167  55.237  1.00  0.00    -0.338 N 
HETATM   26  C   UNL     1      29.290  45.505  55.920  1.00  0.00     0.063 A 
HETATM   27  H   UNL     1      27.838  47.003  55.554  1.00  0.00     0.167 HD
HETATM   28  C   UNL     1      29.579  44.410  55.120  1.00  0.00     0.086 A 
HETATM   29  C   UNL     1      29.924  45.754  57.137  1.00  0.00     0.032 A 
HETATM   30  C   UNL     1      30.558  43.496  55.533  1.00  0.00     0.040 A 
HETATM   31  N   UNL     1      28.789  44.405  53.997  1.00  0.00    -0.228 NA
HETATM   32  C   UNL     1      31.222  43.711  56.754  1.00  0.00    -0.060 A 
HETATM   33  C   UNL     1      32.245  42.727  57.244  1.00  0.00     0.048 C 
HETATM   34  C   UNL     1      30.894  44.827  57.540  1.00  0.00     0.009 A 
ENDBRANCH   1  24
TORSDOF 4
ENDMDL
MODEL 2
REMARK VINA RESULT:     -10.6      1.706      2.833
REMARK  4 active torsions:
REMARK  status: ('A' for Active; 'I' for Inactive)
REMARK    1  A    between atoms: C_8  and  C_9 
REMARK    2  A    between atoms: C_12  and  N_13 
REMARK       I    between atoms: N_13  and  C_14 
REMARK    3  A    between atoms: C_14  and  C_15 
REMARK    4  A    between atoms: C_18  and  N_19 
ROOT
HETATM    1  C   UNL     1      26.022  45.764  51.354  1.00  0.00     0.010 A 
HETATM    2  C   UNL     1      26.126  47.132  51.080  1.00  0.00     0.017 A 
HETATM    3  C   UNL     1      25.101  47.811  50.402  1.00  0.00     0.030 A 
HETATM    4  C   UNL     1      23.952  47.137  49.990  1.00  0.00     0.035 A 
HETATM    5  C   UNL     1      23.867  45.761  50.214  1.00  0.00     0.030 A 
HETATM    6  C   UNL     1      24.891  45.082  50.886  1.00  0.00     0.017 A 
ENDROOT
BRANCH   4   7
HETATM    7  N   UNL     1      22.832  47.765  49.404  1.00  0.00    -0.323 N 
HETATM    8  C   UNL     1      22.840  48.777  48.460  1.00  0.00     0.256 C 
HETATM    9  O   UNL     1      23.819  49.224  47.875  1.00  0.00    -0.267 OA
HETATM   10  H   UNL     1      21.943  47.526  49.822  1.00  0.00     0.169 HD
BRANCH   8  11
HETATM   11  C   UNL     1      21.516  49.415  48.204  1.00  0.00     0.032 A 
HETATM   12  C   UNL     1      20.409  48.710  47.734  1.00  0.00     0.019 A 
HETATM   13  C   UNL     1      19.171  49.358  47.585  1.00  0.00     0.031 A 
HETATM   14  C   UNL     1      19.001  50.721  47.891  1.00  0.00     0.045 A 
HETATM   15  C   UNL     1      20.142  51.417  48.321  1.00  0.00     0.031 A 
HETATM   16  C   UNL     1      21.381  50.778  48.473  1.00  0.00     0.019 A 
BRANCH  14  17
HETATM   17  N   UNL     1      17.724  51.365  47.781  1.00  0.00    -0.252 N 
HETATM   18  C   UNL     1      17.137  51.741  46.590  1.00  0.00     0.231 C 
HETATM   19  O   UNL     1      17.516  51.557  45.442  1.00  0.00    -0.273 OA
HETATM   20  C   UNL     1      15.865  52.479  46.881  1.00  0.00     0.113 C 
HETATM   21  C   UNL     1      15.590  52.172  48.328  1.00  0.00     0.113 C 
HETATM   22  C   UNL     1      16.901  51.665  48.846  1.00  0.00     0.231 C 
HETATM   23  O   UNL     1      17.108  51.558  50.048  1.00  0.00    -0.273 OA
ENDBRANCH  14  17
ENDBRANCH   8  11
ENDBRANCH   4   7
BRANCH   1  24
HETATM   24  C   UNL     1      27.018  45.031  52.145  1.00  0.00     0.139 A 
HETATM   25  N   UNL     1      27.807  44.012  51.658  1.00  0.00    -0.338 N 
HETATM   26  C   UNL     1      28.703  43.639  52.625  1.00  0.00     0.063 A 
HETATM   27  H   UNL     1      27.772  43.638  50.722  1.00  0.00     0.167 HD
HETATM   28  C   UNL     1      28.388  44.447  53.707  1.00  0.00     0.086 A 
HETATM   29  C   UNL     1      29.738  42.704  52.642  1.00  0.00     0.032 A 
HETATM   30  C   UNL     1      29.131  44.332  54.890  1.00  0.00     0.040 A 
HETATM   31  N   UNL     1      27.345  45.285  53.402  1.00  0.00    -0.228 NA
HETATM   32  C   UNL     1      30.184  43.401  54.948  1.00  0.00    -0.060 A 
HETATM   33  C   UNL     1      31.025  43.285  56.186  1.00  0.00     0.048 C 
HETATM   34  C   UNL     1      30.477  42.607  53.828  1.00  0.00     0.009 A 
ENDBRANCH   1  24
TORSDOF 4
ENDMDL
MODEL 3
REMARK VINA RESULT:      -9.8      1.806      2.777
REMARK  4 active torsions:
REMARK  status: ('A' for Active; 'I' for Inactive)
REMARK    1  A    between atoms: C_8  and  C_9 
REMARK    2  A    between atoms: C_12  and  N_13 
REMARK       I    between atoms: N_13  and  C_14 
REMARK    3  A    between atoms: C_14  and  C_15 
REMARK    4  A    between atoms: C_18  and  N_19 
ROOT
HETATM    1  C   UNL     1      26.120  45.618  51.360  1.00  0.00     0.010 A 
HETATM    2  C   UNL     1      26.145  46.994  51.108  1.00  0.00     0.017 A 
HETATM    3  C   UNL     1      25.122  47.611  50.372  1.00  0.00     0.030 A 
HETATM    4  C   UNL     1      24.052  46.865  49.877  1.00  0.00     0.035 A 
HETATM    5  C   UNL     1      24.049  45.482  50.079  1.00  0.00     0.030 A 
HETATM    6  C   UNL     1      25.073  44.867  50.810  1.00  0.00     0.017 A 
ENDROOT
BRANCH   4   7
HETATM    7  N   UNL     1      22.931  47.422  49.225  1.00  0.00    -0.323 N 
HETATM    8  C   UNL     1      22.536  48.749  49.230  1.00  0.00     0.256 C 
HETATM    9  O   UNL     1      23.156  49.696  49.700  1.00  0.00    -0.267 OA
HETATM   10  H   UNL     1      22.293  46.749  48.824  1.00  0.00     0.169 HD
BRANCH   8  11
HETATM   11  C   UNL     1      21.181  49.008  48.661  1.00  0.00     0.032 A 
HETATM   12  C   UNL     1      20.899  50.091  47.831  1.00  0.00     0.019 A 
HETATM   13  C   UNL     1      19.618  50.236  47.270  1.00  0.00     0.031 A 
HETATM   14  C   UNL     1      18.585  49.315  47.524  1.00  0.00     0.045 A 
HETATM   15  C   UNL     1      18.884  48.257  48.399  1.00  0.00     0.031 A 
HETATM   16  C   UNL     1      20.160  48.106  48.961  1.00  0.00     0.019 A 
BRANCH  14  17
HETATM   17  N   UNL     1      17.294  49.442  46.913  1.00  0.00    -0.252 N 
HETATM   18  C   UNL     1      16.192  50.009  47.519  1.00  0.00     0.231 C 
HETATM   19  O   UNL     1      16.098  50.555  48.609  1.00  0.00    -0.273 OA
HETATM   20  C   UNL     1      15.005  49.863  46.617  1.00  0.00     0.113 C 
HETATM   21  C   UNL     1      15.602  49.491  45.288  1.00  0.00     0.113 C 
HETATM   22  C   UNL     1      16.991  49.042  45.628  1.00  0.00     0.231 C 
HETATM   23  O   UNL     1      17.675  48.432  44.816  1.00  0.00    -0.273 OA
ENDBRANCH  14  17
ENDBRANCH   8  11
ENDBRANCH   4   7
BRANCH   1  24
HETATM   24  C   UNL     1      27.111  44.944  52.207  1.00  0.00     0.139 A 
HETATM   25  N   UNL     1      27.930  43.918  51.787  1.00  0.00    -0.338 N 
HETATM   26  C   UNL     1      28.811  43.610  52.791  1.00  0.00     0.063 A 
HETATM   27  H   UNL     1      27.924  43.500  50.870  1.00  0.00     0.167 HD
HETATM   28  C   UNL     1      28.456  44.462  53.825  1.00  0.00     0.086 A 
HETATM   29  C   UNL     1      29.862  42.698  52.875  1.00  0.00     0.032 A 
HETATM   30  C   UNL     1      29.174  44.419  55.029  1.00  0.00     0.040 A 
HETATM   31  N   UNL     1      27.404  45.264  53.457  1.00  0.00    -0.228 NA
HETATM   32  C   UNL     1      30.242  43.513  55.155  1.00  0.00    -0.060 A 
HETATM   33  C   UNL     1      31.057  43.473  56.415  1.00  0.00     0.048 C 
HETATM   34  C   UNL     1      30.576  42.673  54.081  1.00  0.00     0.009 A 
ENDBRANCH   1  24
TORSDOF 4
ENDMDL
MODEL 4
REMARK VINA RESULT:      -9.3      1.768      2.516
REMARK  4 active torsions:
REMARK  status: ('A' for Active; 'I' for Inactive)
REMARK    1  A    between atoms: C_8  and  C_9 
REMARK    2  A    between atoms: C_12  and  N_13 
REMARK       I    between atoms: N_13  and  C_14 
REMARK    3  A    between atoms: C_14  and  C_15 
REMARK    4  A    between atoms: C_18  and  N_19 
ROOT
HETATM    1  C   UNL     1      26.652  45.063  52.165  1.00  0.00     0.010 A 
HETATM    2  C   UNL     1      27.021  45.657  50.953  1.00  0.00     0.017 A 
HETATM    3  C   UNL     1      26.050  46.054  50.020  1.00  0.00     0.030 A 
HETATM    4  C   UNL     1      24.693  45.869  50.282  1.00  0.00     0.035 A 
HETATM    5  C   UNL     1      24.321  45.229  51.467  1.00  0.00     0.030 A 
HETATM    6  C   UNL     1      25.290  44.829  52.396  1.00  0.00     0.017 A 
ENDROOT
BRANCH   4   7
HETATM    7  N   UNL     1      23.654  46.338  49.450  1.00  0.00    -0.323 N 
HETATM    8  C   UNL     1      23.232  47.648  49.298  1.00  0.00     0.256 C 
HETATM    9  O   UNL     1      23.764  48.647  49.767  1.00  0.00    -0.267 OA
HETATM   10  H   UNL     1      23.088  45.615  49.027  1.00  0.00     0.169 HD
BRANCH   8  11
HETATM   11  C   UNL     1      21.956  47.818  48.543  1.00  0.00     0.032 A 
HETATM   12  C   UNL     1      21.608  47.027  47.450  1.00  0.00     0.019 A 
HETATM   13  C   UNL     1      20.358  47.192  46.829  1.00  0.00     0.031 A 
HETATM   14  C   UNL     1      19.426  48.150  47.271  1.00  0.00     0.045 A 
HETATM   15  C   UNL     1      19.820  48.962  48.347  1.00  0.00     0.031 A 
HETATM   16  C   UNL     1      21.065  48.803  48.972  1.00  0.00     0.019 A 
BRANCH  14  17
HETATM   17  N   UNL     1      18.135  48.281  46.663  1.00  0.00    -0.252 N 
HETATM   18  C   UNL     1      17.034  47.516  46.990  1.00  0.00     0.231 C 
HETATM   19  O   UNL     1      16.907  46.665  47.859  1.00  0.00    -0.273 OA
HETATM   20  C   UNL     1      15.902  47.866  46.073  1.00  0.00     0.113 C 
HETATM   21  C   UNL     1      16.338  49.156  45.433  1.00  0.00     0.113 C 
HETATM   22  C   UNL     1      17.812  49.209  45.695  1.00  0.00     0.231 C 
HETATM   23  O   UNL     1      18.532  49.999  45.099  1.00  0.00    -0.273 OA
ENDBRANCH  14  17
ENDBRANCH   8  11
ENDBRANCH   4   7
BRANCH   1  24
HETATM   24  C   UNL     1      27.620  44.723  53.214  1.00  0.00     0.139 A 
HETATM   25  N   UNL     1      28.529  43.690  53.133  1.00  0.00    -0.338 N 
HETATM   26  C   UNL     1      29.354  43.733  54.226  1.00  0.00     0.063 A 
HETATM   27  H   UNL     1      28.613  43.040  52.367  1.00  0.00     0.167 HD
HETATM   28  C   UNL     1      28.875  44.803  54.968  1.00  0.00     0.086 A 
HETATM   29  C   UNL     1      30.451  42.963  54.611  1.00  0.00     0.032 A 
HETATM   30  C   UNL     1      29.508  45.143  56.172  1.00  0.00     0.040 A 
HETATM   31  N   UNL     1      27.805  45.391  54.341  1.00  0.00    -0.228 NA
HETATM   32  C   UNL     1      30.619  44.391  56.596  1.00  0.00    -0.060 A 
HETATM   33  C   UNL     1      31.344  44.757  57.859  1.00  0.00     0.048 C 
HETATM   34  C   UNL     1      31.078  43.321  55.812  1.00  0.00     0.009 A 
ENDBRANCH   1  24
TORSDOF 4
ENDMDL
MODEL 5
REMARK VINA RESULT:      -9.2      2.876      3.583
REMARK  4 active torsions:
REMARK  status: ('A' for Active; 'I' for Inactive)
REMARK    1  A    between atoms: C_8  and  C_9 
REMARK    2  A    between atoms: C_12  and  N_13 
REMARK       I    between atoms: N_13  and  C_14 
REMARK    3  A    between atoms: C_14  and  C_15 
REMARK    4  A    between atoms: C_18  and  N_19 
ROOT
HETATM    1  C   UNL     1      26.916  44.577  52.158  1.00  0.00     0.010 A 
HETATM    2  C   UNL     1      27.248  44.457  50.804  1.00  0.00     0.017 A 
HETATM    3  C   UNL     1      26.263  44.553  49.809  1.00  0.00     0.030 A 
HETATM    4  C   UNL     1      24.928  44.775  50.148  1.00  0.00     0.035 A 
HETATM    5  C   UNL     1      24.583  44.842  51.500  1.00  0.00     0.030 A 
HETATM    6  C   UNL     1      25.566  44.742  52.492  1.00  0.00     0.017 A 
ENDROOT
BRANCH   4   7
HETATM    7  N   UNL     1      23.898  44.994  49.208  1.00  0.00    -0.323 N 
HETATM    8  C   UNL     1      23.269  46.194  48.921  1.00  0.00     0.256 C 
HETATM    9  O   UNL     1      23.578  47.301  49.344  1.00  0.00    -0.267 OA
HETATM   10  H   UNL     1      23.505  44.155  48.805  1.00  0.00     0.169 HD
BRANCH   8  11
HETATM   11  C   UNL     1      22.052  46.082  48.065  1.00  0.00     0.032 A 
HETATM   12  C   UNL     1      21.081  47.078  47.990  1.00  0.00     0.019 A 
HETATM   13  C   UNL     1      19.996  46.940  47.108  1.00  0.00     0.031 A 
HETATM   14  C   UNL     1      19.843  45.810  46.284  1.00  0.00     0.045 A 
HETATM   15  C   UNL     1      20.813  44.802  46.411  1.00  0.00     0.031 A 
HETATM   16  C   UNL     1      21.899  44.933  47.289  1.00  0.00     0.019 A 
BRANCH  14  17
HETATM   17  N   UNL     1      18.760  45.696  45.352  1.00  0.00    -0.252 N 
HETATM   18  C   UNL     1      17.571  45.044  45.608  1.00  0.00     0.231 C 
HETATM   19  O   UNL     1      17.178  44.517  46.640  1.00  0.00    -0.273 OA
HETATM   20  C   UNL     1      16.734  45.041  44.365  1.00  0.00     0.113 C 
HETATM   21  C   UNL     1      17.390  46.067  43.483  1.00  0.00     0.113 C 
HETATM   22  C   UNL     1      18.749  46.249  44.088  1.00  0.00     0.231 C 
HETATM   23  O   UNL     1      19.640  46.826  43.479  1.00  0.00    -0.273 OA
ENDBRANCH  14  17
ENDBRANCH   8  11
ENDBRANCH   4   7
BRANCH   1  24
HETATM   24  C   UNL     1      27.921  44.584  53.228  1.00  0.00     0.139 A 
HETATM   25  N   UNL     1      27.993  45.533  54.225  1.00  0.00    -0.338 N 
HETATM   26  C   UNL     1      28.967  45.169  55.118  1.00  0.00     0.063 A 
HETATM   27  H   UNL     1      27.391  46.336  54.318  1.00  0.00     0.167 HD
HETATM   28  C   UNL     1      29.487  43.996  54.591  1.00  0.00     0.086 A 
HETATM   29  C   UNL     1      29.414  45.738  56.311  1.00  0.00     0.032 A 
HETATM   30  C   UNL     1      30.518  43.334  55.273  1.00  0.00     0.040 A 
HETATM   31  N   UNL     1      28.844  43.658  53.426  1.00  0.00    -0.228 NA
HETATM   32  C   UNL     1      30.997  43.876  56.479  1.00  0.00    -0.060 A 
HETATM   33  C   UNL     1      32.071  43.167  57.254  1.00  0.00     0.048 C 
HETATM   34  C   UNL     1      30.438  45.060  56.984  1.00  0.00     0.009 A 
ENDBRANCH   1  24
TORSDOF 4
ENDMDL
MODEL 6
REMARK VINA RESULT:      -8.8     12.961     13.659
REMARK  4 active torsions:
REMARK  status: ('A' for Active; 'I' for Inactive)
REMARK    1  A    between atoms: C_8  and  C_9 
REMARK    2  A    between atoms: C_12  and  N_13 
REMARK       I    between atoms: N_13  and  C_14 
REMARK    3  A    between atoms: C_14  and  C_15 
REMARK    4  A    between atoms: C_18  and  N_19 
ROOT
HETATM    1  C   UNL     1      35.551  51.969  43.791  1.00  0.00     0.010 A 
HETATM    2  C   UNL     1      35.698  51.208  42.625  1.00  0.00     0.017 A 
HETATM    3  C   UNL     1      34.581  50.649  41.985  1.00  0.00     0.030 A 
HETATM    4  C   UNL     1      33.297  50.844  42.494  1.00  0.00     0.035 A 
HETATM    5  C   UNL     1      33.150  51.557  43.686  1.00  0.00     0.030 A 
HETATM    6  C   UNL     1      34.265  52.111  44.327  1.00  0.00     0.017 A 
ENDROOT
BRANCH   4   7
HETATM    7  N   UNL     1      32.116  50.411  41.852  1.00  0.00    -0.323 N 
HETATM    8  C   UNL     1      31.282  49.378  42.245  1.00  0.00     0.256 C 
HETATM    9  O   UNL     1      31.355  48.734  43.284  1.00  0.00    -0.267 OA
HETATM   10  H   UNL     1      31.947  50.827  40.947  1.00  0.00     0.169 HD
BRANCH   8  11
HETATM   11  C   UNL     1      30.246  48.987  41.245  1.00  0.00     0.032 A 
HETATM   12  C   UNL     1      28.932  48.679  41.592  1.00  0.00     0.019 A 
HETATM   13  C   UNL     1      27.988  48.389  40.592  1.00  0.00     0.031 A 
HETATM   14  C   UNL     1      28.323  48.391  39.226  1.00  0.00     0.045 A 
HETATM   15  C   UNL     1      29.664  48.663  38.907  1.00  0.00     0.031 A 
HETATM   16  C   UNL     1      30.612  48.953  39.899  1.00  0.00     0.019 A 
BRANCH  14  17
HETATM   17  N   UNL     1      27.345  48.141  38.209  1.00  0.00    -0.252 N 
HETATM   18  C   UNL     1      26.972  46.886  37.772  1.00  0.00     0.231 C 
HETATM   19  O   UNL     1      27.317  45.785  38.178  1.00  0.00    -0.273 OA
HETATM   20  C   UNL     1      26.012  47.028  36.630  1.00  0.00     0.113 C 
HETATM   21  C   UNL     1      25.585  48.469  36.691  1.00  0.00     0.113 C 
HETATM   22  C   UNL     1      26.625  49.118  37.553  1.00  0.00     0.231 C 
HETATM   23  O   UNL     1      26.729  50.336  37.609  1.00  0.00    -0.273 OA
ENDBRANCH  14  17
ENDBRANCH   8  11
ENDBRANCH   4   7
BRANCH   1  24
HETATM   24  C   UNL     1      36.674  52.657  44.441  1.00  0.00     0.139 A 
HETATM   25  N   UNL     1      36.978  53.990  44.269  1.00  0.00    -0.338 N 
HETATM   26  C   UNL     1      38.005  54.326  45.112  1.00  0.00     0.063 A 
HETATM   27  H   UNL     1      36.489  54.631  43.664  1.00  0.00     0.167 HD
HETATM   28  C   UNL     1      38.316  53.137  45.755  1.00  0.00     0.086 A 
HETATM   29  C   UNL     1      38.658  55.531  45.370  1.00  0.00     0.032 A 
HETATM   30  C   UNL     1      39.339  53.122  46.714  1.00  0.00     0.040 A 
HETATM   31  N   UNL     1      37.500  52.121  45.324  1.00  0.00    -0.228 NA
HETATM   32  C   UNL     1      40.022  54.317  47.003  1.00  0.00    -0.060 A 
HETATM   33  C   UNL     1      41.093  54.342  48.055  1.00  0.00     0.048 C 
HETATM   34  C   UNL     1      39.671  55.501  46.336  1.00  0.00     0.009 A 
ENDBRANCH   1  24
TORSDOF 4
ENDMDL
MODEL 7
REMARK VINA RESULT:      -8.7     13.089     13.926
REMARK  4 active torsions:
REMARK  status: ('A' for Active; 'I' for Inactive)
REMARK    1  A    between atoms: C_8  and  C_9 
REMARK    2  A    between atoms: C_12  and  N_13 
REMARK       I    between atoms: N_13  and  C_14 
REMARK    3  A    between atoms: C_14  and  C_15 
REMARK    4  A    between atoms: C_18  and  N_19 
ROOT
HETATM    1  C   UNL     1      35.607  51.993  43.672  1.00  0.00     0.010 A 
HETATM    2  C   UNL     1      34.264  52.075  44.054  1.00  0.00     0.017 A 
HETATM    3  C   UNL     1      33.274  51.355  43.368  1.00  0.00     0.030 A 
HETATM    4  C   UNL     1      33.608  50.535  42.290  1.00  0.00     0.035 A 
HETATM    5  C   UNL     1      34.940  50.491  41.871  1.00  0.00     0.030 A 
HETATM    6  C   UNL     1      35.927  51.213  42.553  1.00  0.00     0.017 A 
ENDROOT
BRANCH   4   7
HETATM    7  N   UNL     1      32.694  49.695  41.619  1.00  0.00    -0.323 N 
HETATM    8  C   UNL     1      31.957  49.997  40.487  1.00  0.00     0.256 C 
HETATM    9  O   UNL     1      32.058  51.003  39.795  1.00  0.00    -0.267 OA
HETATM   10  H   UNL     1      32.472  48.835  42.103  1.00  0.00     0.169 HD
BRANCH   8  11
HETATM   11  C   UNL     1      30.892  49.010  40.143  1.00  0.00     0.032 A 
HETATM   12  C   UNL     1      30.757  48.446  38.876  1.00  0.00     0.019 A 
HETATM   13  C   UNL     1      29.777  47.468  38.639  1.00  0.00     0.031 A 
HETATM   14  C   UNL     1      28.901  47.030  39.650  1.00  0.00     0.045 A 
HETATM   15  C   UNL     1      29.030  47.645  40.906  1.00  0.00     0.031 A 
HETATM   16  C   UNL     1      30.007  48.622  41.149  1.00  0.00     0.019 A 
BRANCH  14  17
HETATM   17  N   UNL     1      27.934  45.997  39.415  1.00  0.00    -0.252 N 
HETATM   18  C   UNL     1      26.577  46.211  39.287  1.00  0.00     0.231 C 
HETATM   19  O   UNL     1      25.951  47.261  39.274  1.00  0.00    -0.273 OA
HETATM   20  C   UNL     1      25.882  44.889  39.160  1.00  0.00     0.113 C 
HETATM   21  C   UNL     1      26.993  43.922  38.859  1.00  0.00     0.113 C 
HETATM   22  C   UNL     1      28.234  44.660  39.256  1.00  0.00     0.231 C 
HETATM   23  O   UNL     1      29.304  44.079  39.380  1.00  0.00    -0.273 OA
ENDBRANCH  14  17
ENDBRANCH   8  11
ENDBRANCH   4   7
BRANCH   1  24
HETATM   24  C   UNL     1      36.690  52.647  44.417  1.00  0.00     0.139 A 
HETATM   25  N   UNL     1      37.017  53.981  44.310  1.00  0.00    -0.338 N 
HETATM   26  C   UNL     1      37.988  54.278  45.230  1.00  0.00     0.063 A 
HETATM   27  H   UNL     1      36.575  54.648  43.697  1.00  0.00     0.167 HD
HETATM   28  C   UNL     1      38.245  53.066  45.853  1.00  0.00     0.086 A 
HETATM   29  C   UNL     1      38.633  55.467  45.571  1.00  0.00     0.032 A 
HETATM   30  C   UNL     1      39.202  53.008  46.876  1.00  0.00     0.040 A 
HETATM   31  N   UNL     1      37.451  52.074  45.335  1.00  0.00    -0.228 NA
HETATM   32  C   UNL     1      39.875  54.186  47.250  1.00  0.00    -0.060 A 
HETATM   33  C   UNL     1      40.874  54.164  48.371  1.00  0.00     0.048 C 
HETATM   34  C   UNL     1      39.580  55.395  46.601  1.00  0.00     0.009 A 
ENDBRANCH   1  24
TORSDOF 4
ENDMDL
MODEL 8
REMARK VINA RESULT:      -8.7     12.750     13.398
REMARK  4 active torsions:
REMARK  status: ('A' for Active; 'I' for Inactive)
REMARK    1  A    between atoms: C_8  and  C_9 
REMARK    2  A    between atoms: C_12  and  N_13 
REMARK       I    between atoms: N_13  and  C_14 
REMARK    3  A    between atoms: C_14  and  C_15 
REMARK    4  A    between atoms: C_18  and  N_19 
ROOT
HETATM    1  C   UNL     1      35.833  52.205  43.893  1.00  0.00     0.010 A 
HETATM    2  C   UNL     1      35.956  51.615  42.630  1.00  0.00     0.017 A 
HETATM    3  C   UNL     1      34.827  51.144  41.942  1.00  0.00     0.030 A 
HETATM    4  C   UNL     1      33.554  51.258  42.501  1.00  0.00     0.035 A 
HETATM    5  C   UNL     1      33.432  51.797  43.784  1.00  0.00     0.030 A 
HETATM    6  C   UNL     1      34.559  52.263  44.472  1.00  0.00     0.017 A 
ENDROOT
BRANCH   4   7
HETATM    7  N   UNL     1      32.360  50.912  41.831  1.00  0.00    -0.323 N 
HETATM    8  C   UNL     1      31.366  51.772  41.397  1.00  0.00     0.256 C 
HETATM    9  O   UNL     1      31.402  52.997  41.409  1.00  0.00    -0.267 OA
HETATM   10  H   UNL     1      32.170  49.921  41.786  1.00  0.00     0.169 HD
BRANCH   8  11
HETATM   11  C   UNL     1      30.110  51.109  40.942  1.00  0.00     0.032 A 
HETATM   12  C   UNL     1      28.869  51.744  40.950  1.00  0.00     0.019 A 
HETATM   13  C   UNL     1      27.737  51.086  40.439  1.00  0.00     0.031 A 
HETATM   14  C   UNL     1      27.805  49.782  39.915  1.00  0.00     0.045 A 
HETATM   15  C   UNL     1      29.058  49.150  39.959  1.00  0.00     0.031 A 
HETATM   16  C   UNL     1      30.193  49.800  40.466  1.00  0.00     0.019 A 
BRANCH  14  17
HETATM   17  N   UNL     1      26.656  49.134  39.352  1.00  0.00    -0.252 N 
HETATM   18  C   UNL     1      25.861  48.228  40.024  1.00  0.00     0.231 C 
HETATM   19  O   UNL     1      25.914  47.858  41.188  1.00  0.00    -0.273 OA
HETATM   20  C   UNL     1      24.830  47.686  39.081  1.00  0.00     0.113 C 
HETATM   21  C   UNL     1      24.873  48.632  37.913  1.00  0.00     0.113 C 
HETATM   22  C   UNL     1      26.176  49.352  38.077  1.00  0.00     0.231 C 
HETATM   23  O   UNL     1      26.652  50.017  37.166  1.00  0.00    -0.273 OA
ENDBRANCH  14  17
ENDBRANCH   8  11
ENDBRANCH   4   7
BRANCH   1  24
HETATM   24  C   UNL     1      36.968  52.802  44.608  1.00  0.00     0.139 A 
HETATM   25  N   UNL     1      37.356  54.120  44.494  1.00  0.00    -0.338 N 
HETATM   26  C   UNL     1      38.367  54.365  45.387  1.00  0.00     0.063 A 
HETATM   27  H   UNL     1      36.930  54.809  43.895  1.00  0.00     0.167 HD
HETATM   28  C   UNL     1      38.583  53.140  45.999  1.00  0.00     0.086 A 
HETATM   29  C   UNL     1      39.079  55.520  45.710  1.00  0.00     0.032 A 
HETATM   30  C   UNL     1      39.565  53.032  46.994  1.00  0.00     0.040 A 
HETATM   31  N   UNL     1      37.726  52.189  45.501  1.00  0.00    -0.228 NA
HETATM   32  C   UNL     1      40.305  54.173  47.350  1.00  0.00    -0.060 A 
HETATM   33  C   UNL     1      41.334  54.099  48.441  1.00  0.00     0.048 C 
HETATM   34  C   UNL     1      40.051  55.398  46.712  1.00  0.00     0.009 A 
ENDBRANCH   1  24
TORSDOF 4
ENDMDL
MODEL 9
REMARK VINA RESULT:      -8.5     14.146     18.451
REMARK  4 active torsions:
REMARK  status: ('A' for Active; 'I' for Inactive)
REMARK    1  A    between atoms: C_8  and  C_9 
REMARK    2  A    between atoms: C_12  and  N_13 
REMARK       I    between atoms: N_13  and  C_14 
REMARK    3  A    between atoms: C_14  and  C_15 
REMARK    4  A    between atoms: C_18  and  N_19 
ROOT
HETATM    1  C   UNL     1      32.256  51.331  42.307  1.00  0.00     0.010 A 
HETATM    2  C   UNL     1      32.171  51.714  43.650  1.00  0.00     0.017 A 
HETATM    3  C   UNL     1      33.327  52.010  44.389  1.00  0.00     0.030 A 
HETATM    4  C   UNL     1      34.589  51.933  43.799  1.00  0.00     0.035 A 
HETATM    5  C   UNL     1      34.683  51.500  42.474  1.00  0.00     0.030 A 
HETATM    6  C   UNL     1      33.530  51.201  41.738  1.00  0.00     0.017 A 
ENDROOT
BRANCH   4   7
HETATM    7  N   UNL     1      35.787  52.319  44.437  1.00  0.00    -0.323 N 
HETATM    8  C   UNL     1      36.769  53.157  43.936  1.00  0.00     0.256 C 
HETATM    9  O   UNL     1      36.715  53.809  42.900  1.00  0.00    -0.267 OA
HETATM   10  H   UNL     1      35.992  51.823  45.293  1.00  0.00     0.169 HD
BRANCH   8  11
HETATM   11  C   UNL     1      38.035  53.191  44.724  1.00  0.00     0.032 A 
HETATM   12  C   UNL     1      38.116  52.777  46.052  1.00  0.00     0.019 A 
HETATM   13  C   UNL     1      39.356  52.766  46.714  1.00  0.00     0.031 A 
HETATM   14  C   UNL     1      40.544  53.172  46.078  1.00  0.00     0.045 A 
HETATM   15  C   UNL     1      40.427  53.626  44.754  1.00  0.00     0.031 A 
HETATM   16  C   UNL     1      39.193  53.639  44.087  1.00  0.00     0.019 A 
BRANCH  14  17
HETATM   17  N   UNL     1      41.813  53.114  46.743  1.00  0.00    -0.252 N 
HETATM   18  C   UNL     1      42.740  52.107  46.574  1.00  0.00     0.231 C 
HETATM   19  O   UNL     1      42.718  51.147  45.817  1.00  0.00    -0.273 OA
HETATM   20  C   UNL     1      43.888  52.333  47.511  1.00  0.00     0.113 C 
HETATM   21  C   UNL     1      43.708  53.753  47.971  1.00  0.00     0.113 C 
HETATM   22  C   UNL     1      42.287  54.071  47.617  1.00  0.00     0.231 C 
HETATM   23  O   UNL     1      41.727  55.059  48.074  1.00  0.00    -0.273 OA
ENDBRANCH  14  17
ENDBRANCH   8  11
ENDBRANCH   4   7
BRANCH   1  24
HETATM   24  C   UNL     1      31.075  51.109  41.465  1.00  0.00     0.139 A 
HETATM   25  N   UNL     1      30.373  52.108  40.823  1.00  0.00    -0.338 N 
HETATM   26  C   UNL     1      29.410  51.539  40.032  1.00  0.00     0.063 A 
HETATM   27  H   UNL     1      30.572  53.094  40.880  1.00  0.00     0.167 HD
HETATM   28  C   UNL     1      29.546  50.178  40.259  1.00  0.00     0.086 A 
HETATM   29  C   UNL     1      28.471  52.080  39.153  1.00  0.00     0.032 A 
HETATM   30  C   UNL     1      28.704  49.281  39.586  1.00  0.00     0.040 A 
HETATM   31  N   UNL     1      30.561  49.931  41.150  1.00  0.00    -0.228 NA
HETATM   32  C   UNL     1      27.743  49.786  38.692  1.00  0.00    -0.060 A 
HETATM   33  C   UNL     1      26.856  48.849  37.924  1.00  0.00     0.048 C 
HETATM   34  C   UNL     1      27.643  51.171  38.482  1.00  0.00     0.009 A 
ENDBRANCH   1  24
TORSDOF 4
ENDMDL
MODEL 10
REMARK VINA RESULT:      -8.4     19.864     22.710
REMARK  4 active torsions:
REMARK  status: ('A' for Active; 'I' for Inactive)
REMARK    1  A    between atoms: C_8  and  C_9 
REMARK    2  A    between atoms: C_12  and  N_13 
REMARK       I    between atoms: N_13  and  C_14 
REMARK    3  A    between atoms: C_14  and  C_15 
REMARK    4  A    between atoms: C_18  and  N_19 
ROOT
HETATM    1  C   UNL     1      37.876  50.430  66.333  1.00  0.00     0.010 A 
HETATM    2  C   UNL     1      37.062  49.351  66.697  1.00  0.00     0.017 A 
HETATM    3  C   UNL     1      37.342  48.052  66.245  1.00  0.00     0.030 A 
HETATM    4  C   UNL     1      38.443  47.806  65.423  1.00  0.00     0.035 A 
HETATM    5  C   UNL     1      39.227  48.888  65.013  1.00  0.00     0.030 A 
HETATM    6  C   UNL     1      38.945  50.184  65.462  1.00  0.00     0.017 A 
ENDROOT
BRANCH   4   7
HETATM    7  N   UNL     1      38.857  46.520  65.017  1.00  0.00    -0.323 N 
HETATM    8  C   UNL     1      38.147  45.620  64.240  1.00  0.00     0.256 C 
HETATM    9  O   UNL     1      37.084  45.828  63.666  1.00  0.00    -0.267 OA
HETATM   10  H   UNL     1      39.706  46.189  65.452  1.00  0.00     0.169 HD
BRANCH   8  11
HETATM   11  C   UNL     1      38.725  44.246  64.174  1.00  0.00     0.032 A 
HETATM   12  C   UNL     1      39.494  43.795  63.102  1.00  0.00     0.019 A 
HETATM   13  C   UNL     1      40.070  42.514  63.138  1.00  0.00     0.031 A 
HETATM   14  C   UNL     1      39.892  41.646  64.232  1.00  0.00     0.045 A 
HETATM   15  C   UNL     1      39.078  42.109  65.278  1.00  0.00     0.031 A 
HETATM   16  C   UNL     1      38.501  43.387  65.250  1.00  0.00     0.019 A 
BRANCH  14  17
HETATM   17  N   UNL     1      40.521  40.358  64.283  1.00  0.00    -0.252 N 
HETATM   18  C   UNL     1      41.523  40.011  65.165  1.00  0.00     0.231 C 
HETATM   19  O   UNL     1      42.011  40.655  66.083  1.00  0.00    -0.273 OA
HETATM   20  C   UNL     1      42.001  38.627  64.846  1.00  0.00     0.113 C 
HETATM   21  C   UNL     1      40.937  38.075  63.938  1.00  0.00     0.113 C 
HETATM   22  C   UNL     1      40.189  39.289  63.478  1.00  0.00     0.231 C 
HETATM   23  O   UNL     1      39.414  39.233  62.532  1.00  0.00    -0.273 OA
ENDBRANCH  14  17
ENDBRANCH   8  11
ENDBRANCH   4   7
BRANCH   1  24
HETATM   24  C   UNL     1      37.684  51.786  66.860  1.00  0.00     0.139 A 
HETATM   25  N   UNL     1      37.738  52.934  66.099  1.00  0.00    -0.338 N 
HETATM   26  C   UNL     1      37.395  54.006  66.882  1.00  0.00     0.063 A 
HETATM   27  H   UNL     1      37.939  52.977  65.112  1.00  0.00     0.167 HD
HETATM   28  C   UNL     1      37.175  53.452  68.135  1.00  0.00     0.086 A 
HETATM   29  C   UNL     1      37.249  55.365  66.609  1.00  0.00     0.032 A 
HETATM   30  C   UNL     1      36.791  54.283  69.196  1.00  0.00     0.040 A 
HETATM   31  N   UNL     1      37.369  52.093  68.108  1.00  0.00    -0.228 NA
HETATM   32  C   UNL     1      36.632  55.661  68.962  1.00  0.00    -0.060 A 
HETATM   33  C   UNL     1      36.180  56.570  70.068  1.00  0.00     0.048 C 
HETATM   34  C   UNL     1      36.856  56.182  67.677  1.00  0.00     0.009 A 
ENDBRANCH   1  24
TORSDOF 4
ENDMDL
