MODEL 1
REMARK VINA RESULT:      -9.7      0.000      0.000
REMARK  6 active torsions:
REMARK  status: ('A' for Active; 'I' for Inactive)
REMARK    1  A    between atoms: C_4  and  C_5 
REMARK    2  A    between atoms: C_5  and  N_6 
REMARK    3  A    between atoms: N_10  and  N_11 
REMARK       I    between atoms: N_11  and  C_12 
REMARK    4  A    between atoms: C_12  and  C_13 
REMARK       I    between atoms: C_13  and  N_14 
REMARK    5  A    between atoms: N_14  and  C_15 
REMARK    6  A    between atoms: C_18  and  O_19 
ROOT
HETATM    1  N   UNL     1      26.982  43.360  52.780  1.00  0.00    -0.307 N 
HETATM    2  C   UNL     1      26.474  44.385  52.002  1.00  0.00     0.280 A 
HETATM    3  O   UNL     1      25.994  45.455  52.318  1.00  0.00    -0.265 OA
HETATM    4  C   UNL     1      26.634  43.922  50.555  1.00  0.00     0.157 A 
HETATM    5  N   UNL     1      26.300  44.534  49.464  1.00  0.00    -0.165 NA
HETATM    6  C   UNL     1      27.256  42.607  50.619  1.00  0.00     0.027 A 
HETATM    7  C   UNL     1      27.439  42.305  51.970  1.00  0.00     0.050 A 
HETATM    8  C   UNL     1      27.627  41.754  49.598  1.00  0.00     0.016 A 
HETATM    9  C   UNL     1      28.210  40.542  49.965  1.00  0.00     0.001 A 
HETATM   10  C   UNL     1      28.402  40.220  51.323  1.00  0.00     0.002 A 
HETATM   11  C   UNL     1      28.016  41.105  52.339  1.00  0.00     0.031 A 
ENDROOT
BRANCH   5  12
HETATM   12  N   UNL     1      25.712  45.759  49.596  1.00  0.00    -0.238 N 
HETATM   13  C   UNL     1      24.368  45.920  49.322  1.00  0.00     0.329 C 
HETATM   14  O   UNL     1      23.573  45.079  48.914  1.00  0.00    -0.261 OA
HETATM   15  H   UNL     1      26.247  46.563  49.942  1.00  0.00     0.192 HD
BRANCH  13  16
HETATM   16  C   UNL     1      23.860  47.344  49.606  1.00  0.00     0.315 C 
HETATM   17  N   UNL     1      22.808  47.682  48.780  1.00  0.00    -0.319 N 
HETATM   18  H   UNL     1      22.554  46.953  48.115  1.00  0.00     0.169 HD
HETATM   19  O   UNL     1      24.388  48.001  50.491  1.00  0.00    -0.262 OA
BRANCH  17  20
HETATM   20  C   UNL     1      22.058  48.867  48.770  1.00  0.00     0.035 A 
HETATM   21  C   UNL     1      22.574  50.110  48.394  1.00  0.00     0.032 A 
HETATM   22  C   UNL     1      21.765  51.252  48.423  1.00  0.00     0.039 A 
HETATM   23  C   UNL     1      20.440  51.146  48.829  1.00  0.00     0.065 A 
HETATM   24  C   UNL     1      19.910  49.918  49.202  1.00  0.00     0.039 A 
HETATM   25  C   UNL     1      20.719  48.780  49.172  1.00  0.00     0.032 A 
BRANCH  23  26
HETATM   26  O   UNL     1      19.621  52.233  48.876  1.00  0.00    -0.361 OA
HETATM   27  H   UNL     1      18.841  52.056  48.323  1.00  0.00     0.217 HD
ENDBRANCH  23  26
ENDBRANCH  17  20
ENDBRANCH  13  16
ENDBRANCH   5  12
BRANCH   1  28
HETATM   28  C   UNL     1      27.003  43.386  54.223  1.00  0.00     0.171 C 
BRANCH  28  29
HETATM   29  C   UNL     1      28.286  43.956  54.779  1.00  0.00    -0.040 A 
HETATM   30  C   UNL     1      28.346  45.276  55.251  1.00  0.00     0.009 A 
HETATM   31  C   UNL     1      29.537  45.790  55.768  1.00  0.00     0.001 A 
HETATM   32  C   UNL     1      30.680  44.994  55.818  1.00  0.00     0.000 A 
HETATM   33  C   UNL     1      30.635  43.684  55.350  1.00  0.00     0.001 A 
HETATM   34  C   UNL     1      29.446  43.168  54.832  1.00  0.00     0.009 A 
ENDBRANCH  28  29
ENDBRANCH   1  28
TORSDOF 6
ENDMDL
MODEL 2
REMARK VINA RESULT:      -9.7      2.873      8.779
REMARK  6 active torsions:
REMARK  status: ('A' for Active; 'I' for Inactive)
REMARK    1  A    between atoms: C_4  and  C_5 
REMARK    2  A    between atoms: C_5  and  N_6 
REMARK    3  A    between atoms: N_10  and  N_11 
REMARK       I    between atoms: N_11  and  C_12 
REMARK    4  A    between atoms: C_12  and  C_13 
REMARK       I    between atoms: C_13  and  N_14 
REMARK    5  A    between atoms: N_14  and  C_15 
REMARK    6  A    between atoms: C_18  and  O_19 
ROOT
HETATM    1  N   UNL     1      24.021  45.938  49.889  1.00  0.00    -0.307 N 
HETATM    2  C   UNL     1      24.634  45.243  50.917  1.00  0.00     0.280 A 
HETATM    3  O   UNL     1      25.003  45.614  52.013  1.00  0.00    -0.265 OA
HETATM    4  C   UNL     1      24.777  43.807  50.415  1.00  0.00     0.157 A 
HETATM    5  N   UNL     1      25.295  42.784  51.016  1.00  0.00    -0.165 NA
HETATM    6  C   UNL     1      24.202  43.788  49.078  1.00  0.00     0.027 A 
HETATM    7  C   UNL     1      23.769  45.086  48.799  1.00  0.00     0.050 A 
HETATM    8  C   UNL     1      24.069  42.740  48.187  1.00  0.00     0.016 A 
HETATM    9  C   UNL     1      23.469  43.023  46.961  1.00  0.00     0.001 A 
HETATM   10  C   UNL     1      23.027  44.326  46.662  1.00  0.00     0.002 A 
HETATM   11  C   UNL     1      23.175  45.371  47.584  1.00  0.00     0.031 A 
ENDROOT
BRANCH   5  12
HETATM   12  N   UNL     1      25.801  42.992  52.266  1.00  0.00    -0.238 N 
HETATM   13  C   UNL     1      27.165  43.090  52.459  1.00  0.00     0.329 C 
HETATM   14  O   UNL     1      28.057  42.975  51.624  1.00  0.00    -0.261 OA
HETATM   15  H   UNL     1      25.177  43.121  53.071  1.00  0.00     0.192 HD
BRANCH  13  16
HETATM   16  C   UNL     1      27.549  43.407  53.915  1.00  0.00     0.315 C 
HETATM   17  N   UNL     1      28.901  43.651  54.041  1.00  0.00    -0.319 N 
HETATM   18  H   UNL     1      29.421  43.564  53.169  1.00  0.00     0.169 HD
HETATM   19  O   UNL     1      26.677  43.430  54.771  1.00  0.00    -0.262 OA
BRANCH  17  20
HETATM   20  C   UNL     1      29.613  44.016  55.194  1.00  0.00     0.035 A 
HETATM   21  C   UNL     1      29.431  45.225  55.869  1.00  0.00     0.032 A 
HETATM   22  C   UNL     1      30.190  45.523  57.007  1.00  0.00     0.039 A 
HETATM   23  C   UNL     1      31.130  44.609  57.465  1.00  0.00     0.065 A 
HETATM   24  C   UNL     1      31.322  43.401  56.809  1.00  0.00     0.039 A 
HETATM   25  C   UNL     1      30.563  43.104  55.674  1.00  0.00     0.032 A 
BRANCH  23  26
HETATM   26  O   UNL     1      31.892  44.862  58.566  1.00  0.00    -0.361 OA
HETATM   27  H   UNL     1      32.431  44.076  58.756  1.00  0.00     0.217 HD
ENDBRANCH  23  26
ENDBRANCH  17  20
ENDBRANCH  13  16
ENDBRANCH   5  12
BRANCH   1  28
HETATM   28  C   UNL     1      23.716  47.347  49.947  1.00  0.00     0.171 C 
BRANCH  28  29
HETATM   29  C   UNL     1      24.834  48.209  49.410  1.00  0.00    -0.040 A 
HETATM   30  C   UNL     1      26.170  47.961  49.760  1.00  0.00     0.009 A 
HETATM   31  C   UNL     1      27.195  48.761  49.253  1.00  0.00     0.001 A 
HETATM   32  C   UNL     1      26.900  49.818  48.393  1.00  0.00     0.000 A 
HETATM   33  C   UNL     1      25.578  50.076  48.040  1.00  0.00     0.001 A 
HETATM   34  C   UNL     1      24.551  49.279  48.547  1.00  0.00     0.009 A 
ENDBRANCH  28  29
ENDBRANCH   1  28
TORSDOF 6
ENDMDL
MODEL 3
REMARK VINA RESULT:      -9.5      2.931      8.523
REMARK  6 active torsions:
REMARK  status: ('A' for Active; 'I' for Inactive)
REMARK    1  A    between atoms: C_4  and  C_5 
REMARK    2  A    between atoms: C_5  and  N_6 
REMARK    3  A    between atoms: N_10  and  N_11 
REMARK       I    between atoms: N_11  and  C_12 
REMARK    4  A    between atoms: C_12  and  C_13 
REMARK       I    between atoms: C_13  and  N_14 
REMARK    5  A    between atoms: N_14  and  C_15 
REMARK    6  A    between atoms: C_18  and  O_19 
ROOT
HETATM    1  N   UNL     1      24.514  44.247  50.759  1.00  0.00    -0.307 N 
HETATM    2  C   UNL     1      25.343  44.881  51.668  1.00  0.00     0.280 A 
HETATM    3  O   UNL     1      26.050  44.426  52.544  1.00  0.00    -0.265 OA
HETATM    4  C   UNL     1      25.225  46.373  51.361  1.00  0.00     0.157 A 
HETATM    5  N   UNL     1      25.807  47.371  51.946  1.00  0.00    -0.165 NA
HETATM    6  C   UNL     1      24.298  46.483  50.244  1.00  0.00     0.027 A 
HETATM    7  C   UNL     1      23.890  45.188  49.920  1.00  0.00     0.050 A 
HETATM    8  C   UNL     1      23.852  47.605  49.573  1.00  0.00     0.016 A 
HETATM    9  C   UNL     1      22.953  47.403  48.526  1.00  0.00     0.001 A 
HETATM   10  C   UNL     1      22.530  46.103  48.187  1.00  0.00     0.002 A 
HETATM   11  C   UNL     1      22.999  44.981  48.885  1.00  0.00     0.031 A 
ENDROOT
BRANCH   5  12
HETATM   12  N   UNL     1      26.636  47.079  52.990  1.00  0.00    -0.238 N 
HETATM   13  C   UNL     1      26.360  47.561  54.254  1.00  0.00     0.329 C 
HETATM   14  O   UNL     1      25.439  48.293  54.601  1.00  0.00    -0.261 OA
HETATM   15  H   UNL     1      27.448  46.464  52.860  1.00  0.00     0.192 HD
BRANCH  13  16
HETATM   16  C   UNL     1      27.352  47.063  55.320  1.00  0.00     0.315 C 
HETATM   17  N   UNL     1      28.095  45.994  54.862  1.00  0.00    -0.319 N 
HETATM   18  H   UNL     1      27.858  45.701  53.916  1.00  0.00     0.169 HD
HETATM   19  O   UNL     1      27.403  47.631  56.401  1.00  0.00    -0.262 OA
BRANCH  17  20
HETATM   20  C   UNL     1      29.123  45.305  55.523  1.00  0.00     0.035 A 
HETATM   21  C   UNL     1      29.723  45.751  56.703  1.00  0.00     0.032 A 
HETATM   22  C   UNL     1      30.754  45.012  57.297  1.00  0.00     0.039 A 
HETATM   23  C   UNL     1      31.180  43.829  56.707  1.00  0.00     0.065 A 
HETATM   24  C   UNL     1      30.592  43.370  55.536  1.00  0.00     0.039 A 
HETATM   25  C   UNL     1      29.564  44.107  54.945  1.00  0.00     0.032 A 
BRANCH  23  26
HETATM   26  O   UNL     1      32.183  43.083  57.250  1.00  0.00    -0.361 OA
HETATM   27  H   UNL     1      32.272  43.321  58.188  1.00  0.00     0.217 HD
ENDBRANCH  23  26
ENDBRANCH  17  20
ENDBRANCH  13  16
ENDBRANCH   5  12
BRANCH   1  28
HETATM   28  C   UNL     1      24.317  42.818  50.717  1.00  0.00     0.171 C 
BRANCH  28  29
HETATM   29  C   UNL     1      25.508  42.079  50.157  1.00  0.00    -0.040 A 
HETATM   30  C   UNL     1      26.293  41.249  50.971  1.00  0.00     0.009 A 
HETATM   31  C   UNL     1      27.388  40.566  50.440  1.00  0.00     0.001 A 
HETATM   32  C   UNL     1      27.715  40.705  49.092  1.00  0.00     0.000 A 
HETATM   33  C   UNL     1      26.946  41.528  48.274  1.00  0.00     0.001 A 
HETATM   34  C   UNL     1      25.851  42.213  48.802  1.00  0.00     0.009 A 
ENDBRANCH  28  29
ENDBRANCH   1  28
TORSDOF 6
ENDMDL
MODEL 4
REMARK VINA RESULT:      -9.3      2.376      9.794
REMARK  6 active torsions:
REMARK  status: ('A' for Active; 'I' for Inactive)
REMARK    1  A    between atoms: C_4  and  C_5 
REMARK    2  A    between atoms: C_5  and  N_6 
REMARK    3  A    between atoms: N_10  and  N_11 
REMARK       I    between atoms: N_11  and  C_12 
REMARK    4  A    between atoms: C_12  and  C_13 
REMARK       I    between atoms: C_13  and  N_14 
REMARK    5  A    between atoms: N_14  and  C_15 
REMARK    6  A    between atoms: C_18  and  O_19 
ROOT
HETATM    1  N   UNL     1      22.553  48.466  48.563  1.00  0.00    -0.307 N 
HETATM    2  C   UNL     1      23.460  47.868  49.420  1.00  0.00     0.280 A 
HETATM    3  O   UNL     1      24.263  48.358  50.189  1.00  0.00    -0.265 OA
HETATM    4  C   UNL     1      23.269  46.364  49.236  1.00  0.00     0.157 A 
HETATM    5  N   UNL     1      23.893  45.389  49.817  1.00  0.00    -0.165 NA
HETATM    6  C   UNL     1      22.214  46.209  48.245  1.00  0.00     0.027 A 
HETATM    7  C   UNL     1      21.819  47.492  47.862  1.00  0.00     0.050 A 
HETATM    8  C   UNL     1      21.651  45.060  47.726  1.00  0.00     0.016 A 
HETATM    9  C   UNL     1      20.643  45.221  46.777  1.00  0.00     0.001 A 
HETATM   10  C   UNL     1      20.232  46.508  46.378  1.00  0.00     0.002 A 
HETATM   11  C   UNL     1      20.821  47.658  46.922  1.00  0.00     0.031 A 
ENDROOT
BRANCH   5  12
HETATM   12  N   UNL     1      24.868  45.723  50.712  1.00  0.00    -0.238 N 
HETATM   13  C   UNL     1      25.006  45.014  51.889  1.00  0.00     0.329 C 
HETATM   14  O   UNL     1      24.316  44.087  52.300  1.00  0.00    -0.261 OA
HETATM   15  H   UNL     1      25.536  46.474  50.504  1.00  0.00     0.192 HD
BRANCH  13  16
HETATM   16  C   UNL     1      26.207  45.475  52.734  1.00  0.00     0.315 C 
HETATM   17  N   UNL     1      26.837  44.410  53.343  1.00  0.00    -0.319 N 
HETATM   18  H   UNL     1      26.403  43.508  53.152  1.00  0.00     0.169 HD
HETATM   19  O   UNL     1      26.486  46.664  52.777  1.00  0.00    -0.262 OA
BRANCH  17  20
HETATM   20  C   UNL     1      27.987  44.426  54.148  1.00  0.00     0.035 A 
HETATM   21  C   UNL     1      28.273  45.435  55.071  1.00  0.00     0.032 A 
HETATM   22  C   UNL     1      29.449  45.388  55.830  1.00  0.00     0.039 A 
HETATM   23  C   UNL     1      30.334  44.329  55.662  1.00  0.00     0.065 A 
HETATM   24  C   UNL     1      30.062  43.317  54.752  1.00  0.00     0.039 A 
HETATM   25  C   UNL     1      28.889  43.366  53.995  1.00  0.00     0.032 A 
BRANCH  23  26
HETATM   26  O   UNL     1      31.491  44.248  56.377  1.00  0.00    -0.361 OA
HETATM   27  H   UNL     1      32.114  44.908  56.032  1.00  0.00     0.217 HD
ENDBRANCH  23  26
ENDBRANCH  17  20
ENDBRANCH  13  16
ENDBRANCH   5  12
BRANCH   1  28
HETATM   28  C   UNL     1      22.419  49.895  48.411  1.00  0.00     0.171 C 
BRANCH  28  29
HETATM   29  C   UNL     1      21.096  50.416  48.919  1.00  0.00    -0.040 A 
HETATM   30  C   UNL     1      20.399  49.747  49.937  1.00  0.00     0.009 A 
HETATM   31  C   UNL     1      19.180  50.241  50.404  1.00  0.00     0.001 A 
HETATM   32  C   UNL     1      18.641  51.405  49.859  1.00  0.00     0.000 A 
HETATM   33  C   UNL     1      19.321  52.077  48.847  1.00  0.00     0.001 A 
HETATM   34  C   UNL     1      20.540  51.585  48.378  1.00  0.00     0.009 A 
ENDBRANCH  28  29
ENDBRANCH   1  28
TORSDOF 6
ENDMDL
MODEL 5
REMARK VINA RESULT:      -9.1      3.202      9.306
REMARK  6 active torsions:
REMARK  status: ('A' for Active; 'I' for Inactive)
REMARK    1  A    between atoms: C_4  and  C_5 
REMARK    2  A    between atoms: C_5  and  N_6 
REMARK    3  A    between atoms: N_10  and  N_11 
REMARK       I    between atoms: N_11  and  C_12 
REMARK    4  A    between atoms: C_12  and  C_13 
REMARK       I    between atoms: C_13  and  N_14 
REMARK    5  A    between atoms: N_14  and  C_15 
REMARK    6  A    between atoms: C_18  and  O_19 
ROOT
HETATM    1  N   UNL     1      23.208  45.283  49.699  1.00  0.00    -0.307 N 
HETATM    2  C   UNL     1      24.230  45.355  50.629  1.00  0.00     0.280 A 
HETATM    3  O   UNL     1      24.700  44.503  51.355  1.00  0.00    -0.265 OA
HETATM    4  C   UNL     1      24.722  46.801  50.588  1.00  0.00     0.157 A 
HETATM    5  N   UNL     1      25.663  47.359  51.282  1.00  0.00    -0.165 NA
HETATM    6  C   UNL     1      23.909  47.475  49.586  1.00  0.00     0.027 A 
HETATM    7  C   UNL     1      23.010  46.533  49.084  1.00  0.00     0.050 A 
HETATM    8  C   UNL     1      23.949  48.786  49.152  1.00  0.00     0.016 A 
HETATM    9  C   UNL     1      23.036  49.155  48.165  1.00  0.00     0.001 A 
HETATM   10  C   UNL     1      22.121  48.217  47.648  1.00  0.00     0.002 A 
HETATM   11  C   UNL     1      22.103  46.893  48.107  1.00  0.00     0.031 A 
ENDROOT
BRANCH   5  12
HETATM   12  N   UNL     1      26.312  46.574  52.190  1.00  0.00    -0.238 N 
HETATM   13  C   UNL     1      26.192  46.827  53.542  1.00  0.00     0.329 C 
HETATM   14  O   UNL     1      25.577  47.736  54.090  1.00  0.00    -0.261 OA
HETATM   15  H   UNL     1      26.859  45.761  51.884  1.00  0.00     0.192 HD
BRANCH  13  16
HETATM   16  C   UNL     1      26.921  45.792  54.417  1.00  0.00     0.315 C 
HETATM   17  N   UNL     1      28.195  46.211  54.741  1.00  0.00    -0.319 N 
HETATM   18  H   UNL     1      28.449  47.113  54.341  1.00  0.00     0.169 HD
HETATM   19  O   UNL     1      26.340  44.766  54.739  1.00  0.00    -0.262 OA
BRANCH  17  20
HETATM   20  C   UNL     1      29.140  45.566  55.553  1.00  0.00     0.035 A 
HETATM   21  C   UNL     1      29.496  46.007  56.830  1.00  0.00     0.032 A 
HETATM   22  C   UNL     1      30.459  45.316  57.576  1.00  0.00     0.039 A 
HETATM   23  C   UNL     1      31.062  44.185  57.040  1.00  0.00     0.065 A 
HETATM   24  C   UNL     1      30.718  43.732  55.774  1.00  0.00     0.039 A 
HETATM   25  C   UNL     1      29.757  44.421  55.031  1.00  0.00     0.032 A 
BRANCH  23  26
HETATM   26  O   UNL     1      32.007  43.487  57.731  1.00  0.00    -0.361 OA
HETATM   27  H   UNL     1      32.668  43.155  57.101  1.00  0.00     0.217 HD
ENDBRANCH  23  26
ENDBRANCH  17  20
ENDBRANCH  13  16
ENDBRANCH   5  12
BRANCH   1  28
HETATM   28  C   UNL     1      22.450  44.083  49.435  1.00  0.00     0.171 C 
BRANCH  28  29
HETATM   29  C   UNL     1      23.137  43.161  48.457  1.00  0.00    -0.040 A 
HETATM   30  C   UNL     1      23.888  42.063  48.904  1.00  0.00     0.009 A 
HETATM   31  C   UNL     1      24.515  41.213  47.991  1.00  0.00     0.001 A 
HETATM   32  C   UNL     1      24.401  41.450  46.622  1.00  0.00     0.000 A 
HETATM   33  C   UNL     1      23.661  42.537  46.165  1.00  0.00     0.001 A 
HETATM   34  C   UNL     1      23.035  43.389  47.076  1.00  0.00     0.009 A 
ENDBRANCH  28  29
ENDBRANCH   1  28
TORSDOF 6
ENDMDL
MODEL 6
REMARK VINA RESULT:      -9.0      3.424      8.672
REMARK  6 active torsions:
REMARK  status: ('A' for Active; 'I' for Inactive)
REMARK    1  A    between atoms: C_4  and  C_5 
REMARK    2  A    between atoms: C_5  and  N_6 
REMARK    3  A    between atoms: N_10  and  N_11 
REMARK       I    between atoms: N_11  and  C_12 
REMARK    4  A    between atoms: C_12  and  C_13 
REMARK       I    between atoms: C_13  and  N_14 
REMARK    5  A    between atoms: N_14  and  C_15 
REMARK    6  A    between atoms: C_18  and  O_19 
ROOT
HETATM    1  N   UNL     1      26.081  45.726  51.888  1.00  0.00    -0.307 N 
HETATM    2  C   UNL     1      26.840  44.597  51.637  1.00  0.00     0.280 A 
HETATM    3  O   UNL     1      26.837  43.836  50.690  1.00  0.00    -0.265 OA
HETATM    4  C   UNL     1      27.772  44.451  52.838  1.00  0.00     0.157 A 
HETATM    5  N   UNL     1      28.666  43.543  53.067  1.00  0.00    -0.165 NA
HETATM    6  C   UNL     1      27.463  45.563  53.725  1.00  0.00     0.027 A 
HETATM    7  C   UNL     1      26.440  46.297  53.123  1.00  0.00     0.050 A 
HETATM    8  C   UNL     1      28.021  45.904  54.942  1.00  0.00     0.016 A 
HETATM    9  C   UNL     1      27.518  47.041  55.574  1.00  0.00     0.001 A 
HETATM   10  C   UNL     1      26.485  47.792  54.981  1.00  0.00     0.002 A 
HETATM   11  C   UNL     1      25.937  47.423  53.745  1.00  0.00     0.031 A 
ENDROOT
BRANCH   5  12
HETATM   12  N   UNL     1      28.809  42.563  52.128  1.00  0.00    -0.238 N 
HETATM   13  C   UNL     1      28.573  41.243  52.457  1.00  0.00     0.329 C 
HETATM   14  O   UNL     1      28.268  40.778  53.550  1.00  0.00    -0.261 OA
HETATM   15  H   UNL     1      29.049  42.797  51.158  1.00  0.00     0.192 HD
BRANCH  13  16
HETATM   16  C   UNL     1      28.699  40.289  51.256  1.00  0.00     0.315 C 
HETATM   17  N   UNL     1      28.080  40.801  50.134  1.00  0.00    -0.319 N 
HETATM   18  H   UNL     1      27.631  41.703  50.285  1.00  0.00     0.169 HD
HETATM   19  O   UNL     1      29.311  39.239  51.388  1.00  0.00    -0.262 OA
BRANCH  17  20
HETATM   20  C   UNL     1      28.021  40.248  48.846  1.00  0.00     0.035 A 
HETATM   21  C   UNL     1      28.046  38.875  48.589  1.00  0.00     0.032 A 
HETATM   22  C   UNL     1      27.997  38.400  47.273  1.00  0.00     0.039 A 
HETATM   23  C   UNL     1      27.924  39.302  46.218  1.00  0.00     0.065 A 
HETATM   24  C   UNL     1      27.896  40.669  46.456  1.00  0.00     0.039 A 
HETATM   25  C   UNL     1      27.944  41.142  47.770  1.00  0.00     0.032 A 
BRANCH  23  26
HETATM   26  O   UNL     1      27.880  38.881  44.923  1.00  0.00    -0.361 OA
HETATM   27  H   UNL     1      27.269  38.127  44.864  1.00  0.00     0.217 HD
ENDBRANCH  23  26
ENDBRANCH  17  20
ENDBRANCH  13  16
ENDBRANCH   5  12
BRANCH   1  28
HETATM   28  C   UNL     1      25.052  46.213  51.001  1.00  0.00     0.171 C 
BRANCH  28  29
HETATM   29  C   UNL     1      25.515  47.367  50.146  1.00  0.00    -0.040 A 
HETATM   30  C   UNL     1      24.593  48.244  49.555  1.00  0.00     0.009 A 
HETATM   31  C   UNL     1      25.034  49.312  48.771  1.00  0.00     0.001 A 
HETATM   32  C   UNL     1      26.397  49.516  48.566  1.00  0.00     0.000 A 
HETATM   33  C   UNL     1      27.322  48.651  49.144  1.00  0.00     0.001 A 
HETATM   34  C   UNL     1      26.885  47.582  49.927  1.00  0.00     0.009 A 
ENDBRANCH  28  29
ENDBRANCH   1  28
TORSDOF 6
ENDMDL
MODEL 7
REMARK VINA RESULT:      -8.8      3.485      8.254
REMARK  6 active torsions:
REMARK  status: ('A' for Active; 'I' for Inactive)
REMARK    1  A    between atoms: C_4  and  C_5 
REMARK    2  A    between atoms: C_5  and  N_6 
REMARK    3  A    between atoms: N_10  and  N_11 
REMARK       I    between atoms: N_11  and  C_12 
REMARK    4  A    between atoms: C_12  and  C_13 
REMARK       I    between atoms: C_13  and  N_14 
REMARK    5  A    between atoms: N_14  and  C_15 
REMARK    6  A    between atoms: C_18  and  O_19 
ROOT
HETATM    1  N   UNL     1      25.330  42.429  50.674  1.00  0.00    -0.307 N 
HETATM    2  C   UNL     1      25.934  43.407  51.444  1.00  0.00     0.280 A 
HETATM    3  O   UNL     1      26.853  43.335  52.235  1.00  0.00    -0.265 OA
HETATM    4  C   UNL     1      25.205  44.706  51.107  1.00  0.00     0.157 A 
HETATM    5  N   UNL     1      25.406  45.896  51.577  1.00  0.00    -0.165 NA
HETATM    6  C   UNL     1      24.195  44.357  50.118  1.00  0.00     0.027 A 
HETATM    7  C   UNL     1      24.298  42.983  49.893  1.00  0.00     0.050 A 
HETATM    8  C   UNL     1      23.273  45.160  49.475  1.00  0.00     0.016 A 
HETATM    9  C   UNL     1      22.420  44.540  48.563  1.00  0.00     0.001 A 
HETATM   10  C   UNL     1      22.509  43.155  48.325  1.00  0.00     0.002 A 
HETATM   11  C   UNL     1      23.455  42.364  48.992  1.00  0.00     0.031 A 
ENDROOT
BRANCH   5  12
HETATM   12  N   UNL     1      26.390  46.034  52.512  1.00  0.00    -0.238 N 
HETATM   13  C   UNL     1      26.310  47.030  53.466  1.00  0.00     0.329 C 
HETATM   14  O   UNL     1      25.447  47.893  53.589  1.00  0.00    -0.261 OA
HETATM   15  H   UNL     1      27.177  45.377  52.548  1.00  0.00     0.192 HD
BRANCH  13  16
HETATM   16  C   UNL     1      27.461  46.982  54.487  1.00  0.00     0.315 C 
HETATM   17  N   UNL     1      27.903  45.692  54.693  1.00  0.00    -0.319 N 
HETATM   18  H   UNL     1      27.393  44.989  54.159  1.00  0.00     0.169 HD
HETATM   19  O   UNL     1      27.865  48.025  54.980  1.00  0.00    -0.262 OA
BRANCH  17  20
HETATM   20  C   UNL     1      28.958  45.256  55.509  1.00  0.00     0.035 A 
HETATM   21  C   UNL     1      29.834  44.225  55.161  1.00  0.00     0.032 A 
HETATM   22  C   UNL     1      30.856  43.837  56.036  1.00  0.00     0.039 A 
HETATM   23  C   UNL     1      30.996  44.483  57.259  1.00  0.00     0.065 A 
HETATM   24  C   UNL     1      30.136  45.512  57.619  1.00  0.00     0.039 A 
HETATM   25  C   UNL     1      29.118  45.898  56.744  1.00  0.00     0.032 A 
BRANCH  23  26
HETATM   26  O   UNL     1      31.974  44.133  58.140  1.00  0.00    -0.361 OA
HETATM   27  H   UNL     1      32.498  43.414  57.751  1.00  0.00     0.217 HD
ENDBRANCH  23  26
ENDBRANCH  17  20
ENDBRANCH  13  16
ENDBRANCH   5  12
BRANCH   1  28
HETATM   28  C   UNL     1      25.709  41.037  50.706  1.00  0.00     0.171 C 
BRANCH  28  29
HETATM   29  C   UNL     1      26.826  40.713  49.743  1.00  0.00    -0.040 A 
HETATM   30  C   UNL     1      26.890  41.318  48.479  1.00  0.00     0.009 A 
HETATM   31  C   UNL     1      27.931  41.015  47.600  1.00  0.00     0.001 A 
HETATM   32  C   UNL     1      28.919  40.105  47.971  1.00  0.00     0.000 A 
HETATM   33  C   UNL     1      28.866  39.495  49.222  1.00  0.00     0.001 A 
HETATM   34  C   UNL     1      27.826  39.795  50.102  1.00  0.00     0.009 A 
ENDBRANCH  28  29
ENDBRANCH   1  28
TORSDOF 6
ENDMDL
MODEL 8
REMARK VINA RESULT:      -8.8      4.035      9.082
REMARK  6 active torsions:
REMARK  status: ('A' for Active; 'I' for Inactive)
REMARK    1  A    between atoms: C_4  and  C_5 
REMARK    2  A    between atoms: C_5  and  N_6 
REMARK    3  A    between atoms: N_10  and  N_11 
REMARK       I    between atoms: N_11  and  C_12 
REMARK    4  A    between atoms: C_12  and  C_13 
REMARK       I    between atoms: C_13  and  N_14 
REMARK    5  A    between atoms: N_14  and  C_15 
REMARK    6  A    between atoms: C_18  and  O_19 
ROOT
HETATM    1  N   UNL     1      27.331  45.106  54.050  1.00  0.00    -0.307 N 
HETATM    2  C   UNL     1      27.714  44.135  53.142  1.00  0.00     0.280 A 
HETATM    3  O   UNL     1      27.167  43.736  52.133  1.00  0.00    -0.265 OA
HETATM    4  C   UNL     1      29.054  43.604  53.647  1.00  0.00     0.157 A 
HETATM    5  N   UNL     1      29.806  42.681  53.138  1.00  0.00    -0.165 NA
HETATM    6  C   UNL     1      29.352  44.351  54.861  1.00  0.00     0.027 A 
HETATM    7  C   UNL     1      28.291  45.234  55.070  1.00  0.00     0.050 A 
HETATM    8  C   UNL     1      30.444  44.270  55.703  1.00  0.00     0.016 A 
HETATM    9  C   UNL     1      30.459  45.124  56.805  1.00  0.00     0.001 A 
HETATM   10  C   UNL     1      29.396  46.020  57.033  1.00  0.00     0.002 A 
HETATM   11  C   UNL     1      28.300  46.081  56.162  1.00  0.00     0.031 A 
ENDROOT
BRANCH   5  12
HETATM   12  N   UNL     1      29.359  42.075  52.001  1.00  0.00    -0.238 N 
HETATM   13  C   UNL     1      28.815  40.806  52.054  1.00  0.00     0.329 C 
HETATM   14  O   UNL     1      28.698  40.074  53.031  1.00  0.00    -0.261 OA
HETATM   15  H   UNL     1      29.379  42.567  51.100  1.00  0.00     0.192 HD
BRANCH  13  16
HETATM   16  C   UNL     1      28.288  40.317  50.694  1.00  0.00     0.315 C 
HETATM   17  N   UNL     1      28.551  38.976  50.501  1.00  0.00    -0.319 N 
HETATM   18  H   UNL     1      29.058  38.539  51.269  1.00  0.00     0.169 HD
HETATM   19  O   UNL     1      27.708  41.103  49.960  1.00  0.00    -0.262 OA
BRANCH  17  20
HETATM   20  C   UNL     1      28.188  38.169  49.412  1.00  0.00     0.035 A 
HETATM   21  C   UNL     1      28.918  38.093  48.224  1.00  0.00     0.032 A 
HETATM   22  C   UNL     1      28.484  37.272  47.176  1.00  0.00     0.039 A 
HETATM   23  C   UNL     1      27.318  36.530  47.322  1.00  0.00     0.065 A 
HETATM   24  C   UNL     1      26.582  36.591  48.497  1.00  0.00     0.039 A 
HETATM   25  C   UNL     1      27.017  37.410  49.542  1.00  0.00     0.032 A 
BRANCH  23  26
HETATM   26  O   UNL     1      26.859  35.723  46.325  1.00  0.00    -0.361 OA
HETATM   27  H   UNL     1      26.030  35.309  46.619  1.00  0.00     0.217 HD
ENDBRANCH  23  26
ENDBRANCH  17  20
ENDBRANCH  13  16
ENDBRANCH   5  12
BRANCH   1  28
HETATM   28  C   UNL     1      26.098  45.851  53.953  1.00  0.00     0.171 C 
BRANCH  28  29
HETATM   29  C   UNL     1      25.776  46.266  52.538  1.00  0.00    -0.040 A 
HETATM   30  C   UNL     1      24.768  45.620  51.807  1.00  0.00     0.009 A 
HETATM   31  C   UNL     1      24.474  46.017  50.501  1.00  0.00     0.001 A 
HETATM   32  C   UNL     1      25.185  47.060  49.909  1.00  0.00     0.000 A 
HETATM   33  C   UNL     1      26.190  47.707  50.622  1.00  0.00     0.001 A 
HETATM   34  C   UNL     1      26.486  47.312  51.927  1.00  0.00     0.009 A 
ENDBRANCH  28  29
ENDBRANCH   1  28
TORSDOF 6
ENDMDL
MODEL 9
REMARK VINA RESULT:      -8.8      1.597      4.412
REMARK  6 active torsions:
REMARK  status: ('A' for Active; 'I' for Inactive)
REMARK    1  A    between atoms: C_4  and  C_5 
REMARK    2  A    between atoms: C_5  and  N_6 
REMARK    3  A    between atoms: N_10  and  N_11 
REMARK       I    between atoms: N_11  and  C_12 
REMARK    4  A    between atoms: C_12  and  C_13 
REMARK       I    between atoms: C_13  and  N_14 
REMARK    5  A    between atoms: N_14  and  C_15 
REMARK    6  A    between atoms: C_18  and  O_19 
ROOT
HETATM    1  N   UNL     1      26.360  42.238  51.463  1.00  0.00    -0.307 N 
HETATM    2  C   UNL     1      25.604  43.358  51.164  1.00  0.00     0.280 A 
HETATM    3  O   UNL     1      24.665  43.499  50.408  1.00  0.00    -0.265 OA
HETATM    4  C   UNL     1      26.183  44.484  52.019  1.00  0.00     0.157 A 
HETATM    5  N   UNL     1      25.815  45.724  52.085  1.00  0.00    -0.165 NA
HETATM    6  C   UNL     1      27.273  43.893  52.780  1.00  0.00     0.027 A 
HETATM    7  C   UNL     1      27.351  42.549  52.412  1.00  0.00     0.050 A 
HETATM    8  C   UNL     1      28.119  44.472  53.707  1.00  0.00     0.016 A 
HETATM    9  C   UNL     1      29.085  43.648  54.285  1.00  0.00     0.001 A 
HETATM   10  C   UNL     1      29.178  42.290  53.924  1.00  0.00     0.002 A 
HETATM   11  C   UNL     1      28.306  41.729  52.980  1.00  0.00     0.031 A 
ENDROOT
BRANCH   5  12
HETATM   12  N   UNL     1      24.778  46.106  51.284  1.00  0.00    -0.238 N 
HETATM   13  C   UNL     1      24.891  47.226  50.485  1.00  0.00     0.329 C 
HETATM   14  O   UNL     1      25.834  48.007  50.405  1.00  0.00    -0.261 OA
HETATM   15  H   UNL     1      23.920  45.545  51.232  1.00  0.00     0.192 HD
BRANCH  13  16
HETATM   16  C   UNL     1      23.661  47.456  49.590  1.00  0.00     0.315 C 
HETATM   17  N   UNL     1      23.048  48.660  49.869  1.00  0.00    -0.319 N 
HETATM   18  H   UNL     1      23.490  49.185  50.622  1.00  0.00     0.169 HD
HETATM   19  O   UNL     1      23.364  46.615  48.754  1.00  0.00    -0.262 OA
BRANCH  17  20
HETATM   20  C   UNL     1      21.935  49.235  49.237  1.00  0.00     0.035 A 
HETATM   21  C   UNL     1      20.822  48.507  48.812  1.00  0.00     0.032 A 
HETATM   22  C   UNL     1      19.754  49.151  48.175  1.00  0.00     0.039 A 
HETATM   23  C   UNL     1      19.805  50.524  47.968  1.00  0.00     0.065 A 
HETATM   24  C   UNL     1      20.902  51.264  48.387  1.00  0.00     0.039 A 
HETATM   25  C   UNL     1      21.966  50.619  49.022  1.00  0.00     0.032 A 
BRANCH  23  26
HETATM   26  O   UNL     1      18.789  51.189  47.349  1.00  0.00    -0.361 OA
HETATM   27  H   UNL     1      17.946  50.873  47.713  1.00  0.00     0.217 HD
ENDBRANCH  23  26
ENDBRANCH  17  20
ENDBRANCH  13  16
ENDBRANCH   5  12
BRANCH   1  28
HETATM   28  C   UNL     1      26.154  40.947  50.851  1.00  0.00     0.171 C 
BRANCH  28  29
HETATM   29  C   UNL     1      26.818  40.828  49.500  1.00  0.00    -0.040 A 
HETATM   30  C   UNL     1      26.084  40.996  48.316  1.00  0.00     0.009 A 
HETATM   31  C   UNL     1      26.710  40.890  47.073  1.00  0.00     0.001 A 
HETATM   32  C   UNL     1      28.074  40.611  46.997  1.00  0.00     0.000 A 
HETATM   33  C   UNL     1      28.813  40.438  48.164  1.00  0.00     0.001 A 
HETATM   34  C   UNL     1      28.189  40.543  49.408  1.00  0.00     0.009 A 
ENDBRANCH  28  29
ENDBRANCH   1  28
TORSDOF 6
ENDMDL
MODEL 10
REMARK VINA RESULT:      -8.8      1.613      2.333
REMARK  6 active torsions:
REMARK  status: ('A' for Active; 'I' for Inactive)
REMARK    1  A    between atoms: C_4  and  C_5 
REMARK    2  A    between atoms: C_5  and  N_6 
REMARK    3  A    between atoms: N_10  and  N_11 
REMARK       I    between atoms: N_11  and  C_12 
REMARK    4  A    between atoms: C_12  and  C_13 
REMARK       I    between atoms: C_13  and  N_14 
REMARK    5  A    between atoms: N_14  and  C_15 
REMARK    6  A    between atoms: C_18  and  O_19 
ROOT
HETATM    1  N   UNL     1      26.023  43.785  52.751  1.00  0.00    -0.307 N 
HETATM    2  C   UNL     1      25.454  44.268  51.586  1.00  0.00     0.280 A 
HETATM    3  O   UNL     1      24.659  45.170  51.409  1.00  0.00    -0.265 OA
HETATM    4  C   UNL     1      26.041  43.422  50.459  1.00  0.00     0.157 A 
HETATM    5  N   UNL     1      25.810  43.490  49.186  1.00  0.00    -0.165 NA
HETATM    6  C   UNL     1      26.949  42.477  51.094  1.00  0.00     0.027 A 
HETATM    7  C   UNL     1      26.902  42.724  52.467  1.00  0.00     0.050 A 
HETATM    8  C   UNL     1      27.741  41.496  50.530  1.00  0.00     0.016 A 
HETATM    9  C   UNL     1      28.520  40.733  51.398  1.00  0.00     0.001 A 
HETATM   10  C   UNL     1      28.484  40.967  52.787  1.00  0.00     0.002 A 
HETATM   11  C   UNL     1      27.671  41.970  53.333  1.00  0.00     0.031 A 
ENDROOT
BRANCH   5  12
HETATM   12  N   UNL     1      24.914  44.431  48.769  1.00  0.00    -0.238 N 
HETATM   13  C   UNL     1      23.628  44.064  48.424  1.00  0.00     0.329 C 
HETATM   14  O   UNL     1      23.144  42.938  48.397  1.00  0.00    -0.261 OA
HETATM   15  H   UNL     1      25.168  45.425  48.749  1.00  0.00     0.192 HD
BRANCH  13  16
HETATM   16  C   UNL     1      22.735  45.263  48.060  1.00  0.00     0.315 C 
HETATM   17  N   UNL     1      23.002  46.355  48.860  1.00  0.00    -0.319 N 
HETATM   18  H   UNL     1      23.722  46.189  49.562  1.00  0.00     0.169 HD
HETATM   19  O   UNL     1      21.932  45.155  47.145  1.00  0.00    -0.262 OA
BRANCH  17  20
HETATM   20  C   UNL     1      22.429  47.635  48.801  1.00  0.00     0.035 A 
HETATM   21  C   UNL     1      21.055  47.874  48.872  1.00  0.00     0.032 A 
HETATM   22  C   UNL     1      20.557  49.181  48.793  1.00  0.00     0.039 A 
HETATM   23  C   UNL     1      21.440  50.244  48.644  1.00  0.00     0.065 A 
HETATM   24  C   UNL     1      22.808  50.024  48.576  1.00  0.00     0.039 A 
HETATM   25  C   UNL     1      23.303  48.720  48.655  1.00  0.00     0.032 A 
BRANCH  23  26
HETATM   26  O   UNL     1      20.997  51.530  48.558  1.00  0.00    -0.361 OA
HETATM   27  H   UNL     1      21.482  52.068  49.206  1.00  0.00     0.217 HD
ENDBRANCH  23  26
ENDBRANCH  17  20
ENDBRANCH  13  16
ENDBRANCH   5  12
BRANCH   1  28
HETATM   28  C   UNL     1      25.720  44.301  54.064  1.00  0.00     0.171 C 
BRANCH  28  29
HETATM   29  C   UNL     1      26.493  45.555  54.393  1.00  0.00    -0.040 A 
HETATM   30  C   UNL     1      25.895  46.821  54.291  1.00  0.00     0.009 A 
HETATM   31  C   UNL     1      26.618  47.973  54.604  1.00  0.00     0.001 A 
HETATM   32  C   UNL     1      27.945  47.877  55.018  1.00  0.00     0.000 A 
HETATM   33  C   UNL     1      28.551  46.628  55.120  1.00  0.00     0.001 A 
HETATM   34  C   UNL     1      27.831  45.474  54.808  1.00  0.00     0.009 A 
ENDBRANCH  28  29
ENDBRANCH   1  28
TORSDOF 6
ENDMDL
