MODEL 1
REMARK VINA RESULT:      -9.9      0.000      0.000
REMARK  7 active torsions:
REMARK  status: ('A' for Active; 'I' for Inactive)
REMARK    1  A    between atoms: C_2  and  O_3 
REMARK    2  A    between atoms: O_3  and  C_4 
REMARK    3  A    between atoms: C_7  and  C_8 
REMARK    4  A    between atoms: N_9  and  N_10 
REMARK    5  A    between atoms: C_21  and  C_22 
REMARK       I    between atoms: C_22  and  N_23 
REMARK    6  A    between atoms: N_23  and  C_24 
REMARK    7  A    between atoms: C_31  and  N_32 
ROOT
HETATM    1  N   UNL     1      25.332  47.159  50.085  1.00  0.00    -0.197 N 
HETATM    2  C   UNL     1      25.264  45.819  49.719  1.00  0.00     0.183 A 
HETATM    3  C   UNL     1      24.026  45.628  49.121  1.00  0.00     0.125 A 
HETATM    4  N   UNL     1      23.577  44.393  48.776  1.00  0.00    -0.242 NA
HETATM    5  C   UNL     1      24.464  43.408  48.978  1.00  0.00     0.086 A 
HETATM    6  C   UNL     1      25.742  43.625  49.560  1.00  0.00     0.088 A 
HETATM    7  N   UNL     1      26.159  44.836  49.980  1.00  0.00    -0.225 NA
HETATM    8  C   UNL     1      24.105  42.128  48.576  1.00  0.00     0.034 A 
HETATM    9  C   UNL     1      24.978  41.050  48.713  1.00  0.00     0.002 A 
HETATM   10  C   UNL     1      26.233  41.258  49.267  1.00  0.00     0.002 A 
HETATM   11  C   UNL     1      26.601  42.539  49.688  1.00  0.00     0.034 A 
HETATM   12  C   UNL     1      23.387  46.881  48.994  1.00  0.00     0.110 C 
HETATM   13  C   UNL     1      24.318  47.836  49.373  1.00  0.00     0.143 C 
ENDROOT
BRANCH   1  14
HETATM   14  N   UNL     1      25.847  47.589  51.290  1.00  0.00    -0.176 NA
HETATM   15  C   UNL     1      25.314  47.045  52.332  1.00  0.00     0.150 C 
BRANCH  15  16
HETATM   16  C   UNL     1      26.136  46.680  53.504  1.00  0.00    -0.017 A 
HETATM   17  C   UNL     1      26.410  47.659  54.469  1.00  0.00     0.016 A 
HETATM   18  C   UNL     1      27.474  47.484  55.354  1.00  0.00     0.037 A 
HETATM   19  C   UNL     1      28.262  46.336  55.269  1.00  0.00     0.068 A 
HETATM   20  C   UNL     1      27.921  45.316  54.378  1.00  0.00     0.037 A 
HETATM   21  C   UNL     1      26.868  45.493  53.477  1.00  0.00     0.016 A 
BRANCH  19  22
HETATM   22  O   UNL     1      29.397  46.146  56.011  1.00  0.00    -0.352 OA
BRANCH  22  23
HETATM   23  C   UNL     1      29.137  46.032  57.418  1.00  0.00     0.171 C 
HETATM   24  C   UNL     1      30.458  45.827  58.135  1.00  0.00     0.034 C 
ENDBRANCH  22  23
ENDBRANCH  19  22
ENDBRANCH  15  16
ENDBRANCH   1  14
BRANCH  13  25
HETATM   25  N   UNL     1      24.197  49.193  49.308  1.00  0.00    -0.383 N 
HETATM   26  H   UNL     1      23.628  49.612  48.577  1.00  0.00     0.157 HD
HETATM   27  H   UNL     1      24.023  49.669  50.200  1.00  0.00     0.157 HD
ENDBRANCH  13  25
BRANCH  12  28
HETATM   28  C   UNL     1      22.025  47.158  48.577  1.00  0.00     0.258 C 
HETATM   29  N   UNL     1      21.427  48.145  49.322  1.00  0.00    -0.352 N 
HETATM   30  H   UNL     1      21.893  48.414  50.184  1.00  0.00     0.163 HD
HETATM   31  O   UNL     1      21.504  46.622  47.604  1.00  0.00    -0.267 OA
BRANCH  29  32
HETATM   32  C   UNL     1      20.074  48.620  49.093  1.00  0.00     0.084 C 
HETATM   33  C   UNL     1      19.650  49.568  50.218  1.00  0.00     0.025 C 
HETATM   34  C   UNL     1      20.419  50.888  50.177  1.00  0.00     0.002 C 
HETATM   35  C   UNL     1      20.307  51.565  48.814  1.00  0.00     0.000 C 
HETATM   36  C   UNL     1      20.722  50.639  47.674  1.00  0.00     0.002 C 
HETATM   37  C   UNL     1      19.976  49.306  47.723  1.00  0.00     0.025 C 
ENDBRANCH  29  32
ENDBRANCH  12  28
TORSDOF 7
ENDMDL
MODEL 2
REMARK VINA RESULT:      -9.9      2.061      3.022
REMARK  7 active torsions:
REMARK  status: ('A' for Active; 'I' for Inactive)
REMARK    1  A    between atoms: C_2  and  O_3 
REMARK    2  A    between atoms: O_3  and  C_4 
REMARK    3  A    between atoms: C_7  and  C_8 
REMARK    4  A    between atoms: N_9  and  N_10 
REMARK    5  A    between atoms: C_21  and  C_22 
REMARK       I    between atoms: C_22  and  N_23 
REMARK    6  A    between atoms: N_23  and  C_24 
REMARK    7  A    between atoms: C_31  and  N_32 
ROOT
HETATM    1  N   UNL     1      24.832  45.719  50.262  1.00  0.00    -0.197 N 
HETATM    2  C   UNL     1      23.951  45.319  49.265  1.00  0.00     0.183 A 
HETATM    3  C   UNL     1      23.319  46.466  48.804  1.00  0.00     0.125 A 
HETATM    4  N   UNL     1      22.286  46.413  47.922  1.00  0.00    -0.242 NA
HETATM    5  C   UNL     1      22.004  45.181  47.477  1.00  0.00     0.086 A 
HETATM    6  C   UNL     1      22.684  44.019  47.933  1.00  0.00     0.088 A 
HETATM    7  N   UNL     1      23.652  44.058  48.869  1.00  0.00    -0.225 NA
HETATM    8  C   UNL     1      21.011  45.057  46.514  1.00  0.00     0.034 A 
HETATM    9  C   UNL     1      20.677  43.819  45.967  1.00  0.00     0.002 A 
HETATM   10  C   UNL     1      21.347  42.683  46.397  1.00  0.00     0.002 A 
HETATM   11  C   UNL     1      22.339  42.793  47.377  1.00  0.00     0.034 A 
HETATM   12  C   UNL     1      23.912  47.589  49.422  1.00  0.00     0.110 C 
HETATM   13  C   UNL     1      25.005  47.114  50.131  1.00  0.00     0.143 C 
ENDROOT
BRANCH   1  14
HETATM   14  N   UNL     1      24.999  45.029  51.446  1.00  0.00    -0.176 NA
HETATM   15  C   UNL     1      26.107  44.375  51.540  1.00  0.00     0.150 C 
BRANCH  15  16
HETATM   16  C   UNL     1      26.846  44.312  52.818  1.00  0.00    -0.017 A 
HETATM   17  C   UNL     1      26.898  45.455  53.626  1.00  0.00     0.016 A 
HETATM   18  C   UNL     1      27.881  45.568  54.609  1.00  0.00     0.037 A 
HETATM   19  C   UNL     1      28.809  44.541  54.780  1.00  0.00     0.068 A 
HETATM   20  C   UNL     1      28.688  43.358  54.047  1.00  0.00     0.037 A 
HETATM   21  C   UNL     1      27.717  43.246  53.048  1.00  0.00     0.016 A 
BRANCH  19  22
HETATM   22  O   UNL     1      29.878  44.625  55.631  1.00  0.00    -0.352 OA
BRANCH  22  23
HETATM   23  C   UNL     1      30.774  43.509  55.520  1.00  0.00     0.171 C 
HETATM   24  C   UNL     1      31.412  43.269  56.876  1.00  0.00     0.034 C 
ENDBRANCH  22  23
ENDBRANCH  19  22
ENDBRANCH  15  16
ENDBRANCH   1  14
BRANCH  13  25
HETATM   25  N   UNL     1      25.950  47.840  50.795  1.00  0.00    -0.383 N 
HETATM   26  H   UNL     1      26.544  47.383  51.482  1.00  0.00     0.157 HD
HETATM   27  H   UNL     1      26.511  48.475  50.217  1.00  0.00     0.157 HD
ENDBRANCH  13  25
BRANCH  12  28
HETATM   28  C   UNL     1      23.484  48.974  49.372  1.00  0.00     0.258 C 
HETATM   29  N   UNL     1      22.128  49.122  49.543  1.00  0.00    -0.352 N 
HETATM   30  H   UNL     1      21.563  48.281  49.471  1.00  0.00     0.163 HD
HETATM   31  O   UNL     1      24.268  49.912  49.274  1.00  0.00    -0.267 OA
BRANCH  29  32
HETATM   32  C   UNL     1      21.453  50.407  49.553  1.00  0.00     0.084 C 
HETATM   33  C   UNL     1      21.231  50.898  48.119  1.00  0.00     0.025 C 
HETATM   34  C   UNL     1      20.201  50.048  47.375  1.00  0.00     0.002 C 
HETATM   35  C   UNL     1      18.882  49.961  48.139  1.00  0.00     0.000 C 
HETATM   36  C   UNL     1      19.077  49.477  49.573  1.00  0.00     0.002 C 
HETATM   37  C   UNL     1      20.126  50.306  50.317  1.00  0.00     0.025 C 
ENDBRANCH  29  32
ENDBRANCH  12  28
TORSDOF 7
ENDMDL
MODEL 3
REMARK VINA RESULT:      -9.8      2.612      5.889
REMARK  7 active torsions:
REMARK  status: ('A' for Active; 'I' for Inactive)
REMARK    1  A    between atoms: C_2  and  O_3 
REMARK    2  A    between atoms: O_3  and  C_4 
REMARK    3  A    between atoms: C_7  and  C_8 
REMARK    4  A    between atoms: N_9  and  N_10 
REMARK    5  A    between atoms: C_21  and  C_22 
REMARK       I    between atoms: C_22  and  N_23 
REMARK    6  A    between atoms: N_23  and  C_24 
REMARK    7  A    between atoms: C_31  and  N_32 
ROOT
HETATM    1  N   UNL     1      24.455  44.752  50.585  1.00  0.00    -0.197 N 
HETATM    2  C   UNL     1      25.148  45.279  51.669  1.00  0.00     0.183 A 
HETATM    3  C   UNL     1      25.238  46.649  51.461  1.00  0.00     0.125 A 
HETATM    4  N   UNL     1      25.984  47.451  52.265  1.00  0.00    -0.242 NA
HETATM    5  C   UNL     1      26.535  46.822  53.312  1.00  0.00     0.086 A 
HETATM    6  C   UNL     1      26.405  45.423  53.531  1.00  0.00     0.088 A 
HETATM    7  N   UNL     1      25.735  44.610  52.690  1.00  0.00    -0.225 NA
HETATM    8  C   UNL     1      27.248  47.591  54.222  1.00  0.00     0.034 A 
HETATM    9  C   UNL     1      27.825  47.028  55.360  1.00  0.00     0.002 A 
HETATM   10  C   UNL     1      27.688  45.666  55.587  1.00  0.00     0.002 A 
HETATM   11  C   UNL     1      26.985  44.878  54.670  1.00  0.00     0.034 A 
HETATM   12  C   UNL     1      24.480  46.983  50.317  1.00  0.00     0.110 C 
HETATM   13  C   UNL     1      23.810  45.829  49.941  1.00  0.00     0.143 C 
ENDROOT
BRANCH   1  14
HETATM   14  N   UNL     1      24.816  43.579  49.954  1.00  0.00    -0.176 NA
HETATM   15  C   UNL     1      25.993  43.590  49.424  1.00  0.00     0.150 C 
BRANCH  15  16
HETATM   16  C   UNL     1      26.862  42.397  49.479  1.00  0.00    -0.017 A 
HETATM   17  C   UNL     1      26.962  41.581  48.344  1.00  0.00     0.016 A 
HETATM   18  C   UNL     1      27.431  40.273  48.466  1.00  0.00     0.037 A 
HETATM   19  C   UNL     1      27.795  39.785  49.721  1.00  0.00     0.068 A 
HETATM   20  C   UNL     1      27.796  40.632  50.831  1.00  0.00     0.037 A 
HETATM   21  C   UNL     1      27.309  41.938  50.718  1.00  0.00     0.016 A 
BRANCH  19  22
HETATM   22  O   UNL     1      28.144  38.480  49.949  1.00  0.00    -0.352 OA
BRANCH  22  23
HETATM   23  C   UNL     1      29.555  38.248  49.837  1.00  0.00     0.171 C 
HETATM   24  C   UNL     1      30.023  37.521  51.084  1.00  0.00     0.034 C 
ENDBRANCH  22  23
ENDBRANCH  19  22
ENDBRANCH  15  16
ENDBRANCH   1  14
BRANCH  13  25
HETATM   25  N   UNL     1      22.871  45.691  48.960  1.00  0.00    -0.383 N 
HETATM   26  H   UNL     1      23.161  45.668  47.986  1.00  0.00     0.157 HD
HETATM   27  H   UNL     1      22.155  44.974  49.126  1.00  0.00     0.157 HD
ENDBRANCH  13  25
BRANCH  12  28
HETATM   28  C   UNL     1      24.407  48.257  49.628  1.00  0.00     0.258 C 
HETATM   29  N   UNL     1      23.181  48.865  49.755  1.00  0.00    -0.352 N 
HETATM   30  H   UNL     1      22.422  48.293  50.112  1.00  0.00     0.163 HD
HETATM   31  O   UNL     1      25.370  48.769  49.067  1.00  0.00    -0.267 OA
BRANCH  29  32
HETATM   32  C   UNL     1      22.858  50.156  49.175  1.00  0.00     0.084 C 
HETATM   33  C   UNL     1      22.340  49.978  47.745  1.00  0.00     0.025 C 
HETATM   34  C   UNL     1      20.967  49.306  47.711  1.00  0.00     0.002 C 
HETATM   35  C   UNL     1      19.953  50.049  48.576  1.00  0.00     0.000 C 
HETATM   36  C   UNL     1      20.447  50.243  50.007  1.00  0.00     0.002 C 
HETATM   37  C   UNL     1      21.832  50.890  50.049  1.00  0.00     0.025 C 
ENDBRANCH  29  32
ENDBRANCH  12  28
TORSDOF 7
ENDMDL
MODEL 4
REMARK VINA RESULT:      -9.5      1.800      2.519
REMARK  7 active torsions:
REMARK  status: ('A' for Active; 'I' for Inactive)
REMARK    1  A    between atoms: C_2  and  O_3 
REMARK    2  A    between atoms: O_3  and  C_4 
REMARK    3  A    between atoms: C_7  and  C_8 
REMARK    4  A    between atoms: N_9  and  N_10 
REMARK    5  A    between atoms: C_21  and  C_22 
REMARK       I    between atoms: C_22  and  N_23 
REMARK    6  A    between atoms: N_23  and  C_24 
REMARK    7  A    between atoms: C_31  and  N_32 
ROOT
HETATM    1  N   UNL     1      25.261  47.154  49.907  1.00  0.00    -0.197 N 
HETATM    2  C   UNL     1      24.974  45.846  49.533  1.00  0.00     0.183 A 
HETATM    3  C   UNL     1      23.661  45.837  49.081  1.00  0.00     0.125 A 
HETATM    4  N   UNL     1      23.015  44.682  48.773  1.00  0.00    -0.242 NA
HETATM    5  C   UNL     1      23.779  43.584  48.856  1.00  0.00     0.086 A 
HETATM    6  C   UNL     1      25.133  43.614  49.288  1.00  0.00     0.088 A 
HETATM    7  N   UNL     1      25.753  44.747  49.674  1.00  0.00    -0.225 NA
HETATM    8  C   UNL     1      23.209  42.374  48.481  1.00  0.00     0.034 A 
HETATM    9  C   UNL     1      23.941  41.187  48.499  1.00  0.00     0.002 A 
HETATM   10  C   UNL     1      25.267  41.213  48.906  1.00  0.00     0.002 A 
HETATM   11  C   UNL     1      25.848  42.422  49.300  1.00  0.00     0.034 A 
HETATM   12  C   UNL     1      23.185  47.166  49.047  1.00  0.00     0.110 C 
HETATM   13  C   UNL     1      24.272  47.979  49.328  1.00  0.00     0.143 C 
ENDROOT
BRANCH   1  14
HETATM   14  N   UNL     1      25.963  47.478  51.051  1.00  0.00    -0.176 NA
HETATM   15  C   UNL     1      25.408  47.098  52.152  1.00  0.00     0.150 C 
BRANCH  15  16
HETATM   16  C   UNL     1      26.219  46.575  53.271  1.00  0.00    -0.017 A 
HETATM   17  C   UNL     1      26.846  47.484  54.134  1.00  0.00     0.016 A 
HETATM   18  C   UNL     1      27.910  47.065  54.932  1.00  0.00     0.037 A 
HETATM   19  C   UNL     1      28.345  45.741  54.864  1.00  0.00     0.068 A 
HETATM   20  C   UNL     1      27.650  44.814  54.084  1.00  0.00     0.037 A 
HETATM   21  C   UNL     1      26.595  45.232  53.268  1.00  0.00     0.016 A 
BRANCH  19  22
HETATM   22  O   UNL     1      29.457  45.279  55.515  1.00  0.00    -0.352 OA
BRANCH  22  23
HETATM   23  C   UNL     1      29.834  43.954  55.113  1.00  0.00     0.171 C 
HETATM   24  C   UNL     1      30.998  43.504  55.976  1.00  0.00     0.034 C 
ENDBRANCH  22  23
ENDBRANCH  19  22
ENDBRANCH  15  16
ENDBRANCH   1  14
BRANCH  13  25
HETATM   25  N   UNL     1      24.327  49.342  49.296  1.00  0.00    -0.383 N 
HETATM   26  H   UNL     1      23.486  49.883  49.477  1.00  0.00     0.157 HD
HETATM   27  H   UNL     1      25.126  49.768  49.782  1.00  0.00     0.157 HD
ENDBRANCH  13  25
BRANCH  12  28
HETATM   28  C   UNL     1      21.834  47.632  48.795  1.00  0.00     0.258 C 
HETATM   29  N   UNL     1      21.052  46.691  48.169  1.00  0.00    -0.352 N 
HETATM   30  H   UNL     1      21.531  45.889  47.770  1.00  0.00     0.163 HD
HETATM   31  O   UNL     1      21.420  48.719  49.181  1.00  0.00    -0.267 OA
BRANCH  29  32
HETATM   32  C   UNL     1      19.658  46.903  47.824  1.00  0.00     0.084 C 
HETATM   33  C   UNL     1      19.546  47.473  46.407  1.00  0.00     0.025 C 
HETATM   34  C   UNL     1      19.943  46.450  45.343  1.00  0.00     0.002 C 
HETATM   35  C   UNL     1      19.149  45.155  45.480  1.00  0.00     0.000 C 
HETATM   36  C   UNL     1      19.242  44.566  46.886  1.00  0.00     0.002 C 
HETATM   37  C   UNL     1      18.871  45.592  47.958  1.00  0.00     0.025 C 
ENDBRANCH  29  32
ENDBRANCH  12  28
TORSDOF 7
ENDMDL
MODEL 5
REMARK VINA RESULT:      -9.0      2.097      3.102
REMARK  7 active torsions:
REMARK  status: ('A' for Active; 'I' for Inactive)
REMARK    1  A    between atoms: C_2  and  O_3 
REMARK    2  A    between atoms: O_3  and  C_4 
REMARK    3  A    between atoms: C_7  and  C_8 
REMARK    4  A    between atoms: N_9  and  N_10 
REMARK    5  A    between atoms: C_21  and  C_22 
REMARK       I    between atoms: C_22  and  N_23 
REMARK    6  A    between atoms: N_23  and  C_24 
REMARK    7  A    between atoms: C_31  and  N_32 
ROOT
HETATM    1  N   UNL     1      25.915  44.606  50.880  1.00  0.00    -0.197 N 
HETATM    2  C   UNL     1      25.464  43.784  49.853  1.00  0.00     0.183 A 
HETATM    3  C   UNL     1      24.510  44.507  49.150  1.00  0.00     0.125 A 
HETATM    4  N   UNL     1      23.762  43.944  48.165  1.00  0.00    -0.242 NA
HETATM    5  C   UNL     1      24.091  42.676  47.881  1.00  0.00     0.086 A 
HETATM    6  C   UNL     1      25.094  41.959  48.588  1.00  0.00     0.088 A 
HETATM    7  N   UNL     1      25.781  42.488  49.620  1.00  0.00    -0.225 NA
HETATM    8  C   UNL     1      23.422  42.058  46.832  1.00  0.00     0.034 A 
HETATM    9  C   UNL     1      23.724  40.754  46.442  1.00  0.00     0.002 A 
HETATM   10  C   UNL     1      24.713  40.055  47.119  1.00  0.00     0.002 A 
HETATM   11  C   UNL     1      25.384  40.661  48.185  1.00  0.00     0.034 A 
HETATM   12  C   UNL     1      24.474  45.824  49.659  1.00  0.00     0.110 C 
HETATM   13  C   UNL     1      25.523  45.924  50.561  1.00  0.00     0.143 C 
ENDROOT
BRANCH   1  14
HETATM   14  N   UNL     1      26.137  44.157  52.166  1.00  0.00    -0.176 NA
HETATM   15  C   UNL     1      27.229  43.486  52.324  1.00  0.00     0.150 C 
BRANCH  15  16
HETATM   16  C   UNL     1      28.048  43.645  53.543  1.00  0.00    -0.017 A 
HETATM   17  C   UNL     1      27.974  44.850  54.255  1.00  0.00     0.016 A 
HETATM   18  C   UNL     1      28.988  45.192  55.150  1.00  0.00     0.037 A 
HETATM   19  C   UNL     1      30.071  44.332  55.328  1.00  0.00     0.068 A 
HETATM   20  C   UNL     1      30.088  43.085  54.699  1.00  0.00     0.037 A 
HETATM   21  C   UNL     1      29.085  42.744  53.788  1.00  0.00     0.016 A 
BRANCH  19  22
HETATM   22  O   UNL     1      31.167  44.647  56.087  1.00  0.00    -0.352 OA
BRANCH  22  23
HETATM   23  C   UNL     1      31.105  44.105  57.414  1.00  0.00     0.171 C 
HETATM   24  C   UNL     1      30.647  45.200  58.359  1.00  0.00     0.034 C 
ENDBRANCH  22  23
ENDBRANCH  19  22
ENDBRANCH  15  16
ENDBRANCH   1  14
BRANCH  13  25
HETATM   25  N   UNL     1      25.956  47.038  51.219  1.00  0.00    -0.383 N 
HETATM   26  H   UNL     1      26.552  46.939  52.036  1.00  0.00     0.157 HD
HETATM   27  H   UNL     1      26.303  47.799  50.625  1.00  0.00     0.157 HD
ENDBRANCH  13  25
BRANCH  12  28
HETATM   28  C   UNL     1      23.534  46.884  49.347  1.00  0.00     0.258 C 
HETATM   29  N   UNL     1      22.316  46.411  48.920  1.00  0.00    -0.352 N 
HETATM   30  H   UNL     1      22.270  45.428  48.669  1.00  0.00     0.163 HD
HETATM   31  O   UNL     1      23.781  48.071  49.532  1.00  0.00    -0.267 OA
BRANCH  29  32
HETATM   32  C   UNL     1      21.199  47.267  48.564  1.00  0.00     0.084 C 
HETATM   33  C   UNL     1      21.227  47.574  47.064  1.00  0.00     0.025 C 
HETATM   34  C   UNL     1      20.911  46.340  46.220  1.00  0.00     0.002 C 
HETATM   35  C   UNL     1      19.587  45.700  46.627  1.00  0.00     0.000 C 
HETATM   36  C   UNL     1      19.533  45.386  48.120  1.00  0.00     0.002 C 
HETATM   37  C   UNL     1      19.874  46.609  48.972  1.00  0.00     0.025 C 
ENDBRANCH  29  32
ENDBRANCH  12  28
TORSDOF 7
ENDMDL
MODEL 6
REMARK VINA RESULT:      -9.0      5.377      8.673
REMARK  7 active torsions:
REMARK  status: ('A' for Active; 'I' for Inactive)
REMARK    1  A    between atoms: C_2  and  O_3 
REMARK    2  A    between atoms: O_3  and  C_4 
REMARK    3  A    between atoms: C_7  and  C_8 
REMARK    4  A    between atoms: N_9  and  N_10 
REMARK    5  A    between atoms: C_21  and  C_22 
REMARK       I    between atoms: C_22  and  N_23 
REMARK    6  A    between atoms: N_23  and  C_24 
REMARK    7  A    between atoms: C_31  and  N_32 
ROOT
HETATM    1  N   UNL     1      27.758  40.722  50.988  1.00  0.00    -0.197 N 
HETATM    2  C   UNL     1      26.662  40.777  50.135  1.00  0.00     0.183 A 
HETATM    3  C   UNL     1      26.909  39.879  49.106  1.00  0.00     0.125 A 
HETATM    4  N   UNL     1      26.097  39.790  48.019  1.00  0.00    -0.242 NA
HETATM    5  C   UNL     1      25.009  40.569  48.079  1.00  0.00     0.086 A 
HETATM    6  C   UNL     1      24.752  41.459  49.157  1.00  0.00     0.088 A 
HETATM    7  N   UNL     1      25.596  41.611  50.197  1.00  0.00    -0.225 NA
HETATM    8  C   UNL     1      24.092  40.474  47.040  1.00  0.00     0.034 A 
HETATM    9  C   UNL     1      22.914  41.219  47.037  1.00  0.00     0.002 A 
HETATM   10  C   UNL     1      22.651  42.079  48.094  1.00  0.00     0.002 A 
HETATM   11  C   UNL     1      23.572  42.193  49.139  1.00  0.00     0.034 A 
HETATM   12  C   UNL     1      28.094  39.170  49.399  1.00  0.00     0.110 C 
HETATM   13  C   UNL     1      28.464  39.538  50.683  1.00  0.00     0.143 C 
ENDROOT
BRANCH   1  14
HETATM   14  N   UNL     1      28.337  41.842  51.550  1.00  0.00    -0.176 NA
HETATM   15  C   UNL     1      27.635  42.409  52.473  1.00  0.00     0.150 C 
BRANCH  15  16
HETATM   16  C   UNL     1      28.278  42.971  53.678  1.00  0.00    -0.017 A 
HETATM   17  C   UNL     1      27.826  44.203  54.173  1.00  0.00     0.016 A 
HETATM   18  C   UNL     1      28.634  44.944  55.035  1.00  0.00     0.037 A 
HETATM   19  C   UNL     1      29.889  44.455  55.397  1.00  0.00     0.068 A 
HETATM   20  C   UNL     1      30.290  43.180  54.989  1.00  0.00     0.037 A 
HETATM   21  C   UNL     1      29.493  42.441  54.111  1.00  0.00     0.016 A 
BRANCH  19  22
HETATM   22  O   UNL     1      30.794  45.172  56.133  1.00  0.00    -0.352 OA
BRANCH  22  23
HETATM   23  C   UNL     1      30.964  44.664  57.465  1.00  0.00     0.171 C 
HETATM   24  C   UNL     1      30.187  45.552  58.420  1.00  0.00     0.034 C 
ENDBRANCH  22  23
ENDBRANCH  19  22
ENDBRANCH  15  16
ENDBRANCH   1  14
BRANCH  13  25
HETATM   25  N   UNL     1      29.480  39.029  51.438  1.00  0.00    -0.383 N 
HETATM   26  H   UNL     1      29.814  39.548  52.246  1.00  0.00     0.157 HD
HETATM   27  H   UNL     1      29.406  38.032  51.671  1.00  0.00     0.157 HD
ENDBRANCH  13  25
BRANCH  12  28
HETATM   28  C   UNL     1      28.825  38.249  48.548  1.00  0.00     0.258 C 
HETATM   29  N   UNL     1      28.060  37.743  47.525  1.00  0.00    -0.352 N 
HETATM   30  H   UNL     1      27.056  37.885  47.590  1.00  0.00     0.163 HD
HETATM   31  O   UNL     1      30.022  38.020  48.686  1.00  0.00    -0.267 OA
BRANCH  29  32
HETATM   32  C   UNL     1      28.561  36.817  46.525  1.00  0.00     0.084 C 
HETATM   33  C   UNL     1      27.505  35.754  46.214  1.00  0.00     0.025 C 
HETATM   34  C   UNL     1      26.303  36.339  45.473  1.00  0.00     0.002 C 
HETATM   35  C   UNL     1      26.725  37.083  44.209  1.00  0.00     0.000 C 
HETATM   36  C   UNL     1      27.781  38.147  44.492  1.00  0.00     0.002 C 
HETATM   37  C   UNL     1      28.976  37.576  45.257  1.00  0.00     0.025 C 
ENDBRANCH  29  32
ENDBRANCH  12  28
TORSDOF 7
ENDMDL
MODEL 7
REMARK VINA RESULT:      -9.0      2.580      4.500
REMARK  7 active torsions:
REMARK  status: ('A' for Active; 'I' for Inactive)
REMARK    1  A    between atoms: C_2  and  O_3 
REMARK    2  A    between atoms: O_3  and  C_4 
REMARK    3  A    between atoms: C_7  and  C_8 
REMARK    4  A    between atoms: N_9  and  N_10 
REMARK    5  A    between atoms: C_21  and  C_22 
REMARK       I    between atoms: C_22  and  N_23 
REMARK    6  A    between atoms: N_23  and  C_24 
REMARK    7  A    between atoms: C_31  and  N_32 
ROOT
HETATM    1  N   UNL     1      23.161  46.620  48.993  1.00  0.00    -0.197 N 
HETATM    2  C   UNL     1      21.960  46.349  48.346  1.00  0.00     0.183 A 
HETATM    3  C   UNL     1      21.187  47.499  48.437  1.00  0.00     0.125 A 
HETATM    4  N   UNL     1      19.890  47.527  48.031  1.00  0.00    -0.242 NA
HETATM    5  C   UNL     1      19.467  46.391  47.460  1.00  0.00     0.086 A 
HETATM    6  C   UNL     1      20.282  45.232  47.343  1.00  0.00     0.088 A 
HETATM    7  N   UNL     1      21.542  45.174  47.819  1.00  0.00    -0.225 NA
HETATM    8  C   UNL     1      18.175  46.370  46.950  1.00  0.00     0.034 A 
HETATM    9  C   UNL     1      17.664  45.244  46.306  1.00  0.00     0.002 A 
HETATM   10  C   UNL     1      18.460  44.116  46.175  1.00  0.00     0.002 A 
HETATM   11  C   UNL     1      19.757  44.119  46.698  1.00  0.00     0.034 A 
HETATM   12  C   UNL     1      21.966  48.523  49.019  1.00  0.00     0.110 C 
HETATM   13  C   UNL     1      23.254  48.023  49.126  1.00  0.00     0.143 C 
ENDROOT
BRANCH   1  14
HETATM   14  N   UNL     1      23.788  45.722  49.832  1.00  0.00    -0.176 NA
HETATM   15  C   UNL     1      25.044  45.544  49.592  1.00  0.00     0.150 C 
BRANCH  15  16
HETATM   16  C   UNL     1      26.013  45.382  50.695  1.00  0.00    -0.017 A 
HETATM   17  C   UNL     1      27.059  44.462  50.547  1.00  0.00     0.016 A 
HETATM   18  C   UNL     1      27.740  43.995  51.671  1.00  0.00     0.037 A 
HETATM   19  C   UNL     1      27.370  44.445  52.939  1.00  0.00     0.068 A 
HETATM   20  C   UNL     1      26.400  45.442  53.074  1.00  0.00     0.037 A 
HETATM   21  C   UNL     1      25.703  45.900  51.953  1.00  0.00     0.016 A 
BRANCH  19  22
HETATM   22  O   UNL     1      27.897  43.945  54.099  1.00  0.00    -0.352 OA
BRANCH  22  23
HETATM   23  C   UNL     1      28.688  42.766  53.895  1.00  0.00     0.171 C 
HETATM   24  C   UNL     1      30.130  43.089  54.243  1.00  0.00     0.034 C 
ENDBRANCH  22  23
ENDBRANCH  19  22
ENDBRANCH  15  16
ENDBRANCH   1  14
BRANCH  13  25
HETATM   25  N   UNL     1      24.378  48.686  49.525  1.00  0.00    -0.383 N 
HETATM   26  H   UNL     1      24.846  49.315  48.878  1.00  0.00     0.157 HD
HETATM   27  H   UNL     1      24.336  49.114  50.457  1.00  0.00     0.157 HD
ENDBRANCH  13  25
BRANCH  12  28
HETATM   28  C   UNL     1      21.539  49.840  49.454  1.00  0.00     0.258 C 
HETATM   29  N   UNL     1      20.193  50.053  49.277  1.00  0.00    -0.352 N 
HETATM   30  H   UNL     1      19.698  49.387  48.692  1.00  0.00     0.163 HD
HETATM   31  O   UNL     1      22.293  50.639  49.999  1.00  0.00    -0.267 OA
BRANCH  29  32
HETATM   32  C   UNL     1      19.516  51.281  49.650  1.00  0.00     0.084 C 
HETATM   33  C   UNL     1      19.536  52.270  48.481  1.00  0.00     0.025 C 
HETATM   34  C   UNL     1      18.655  51.807  47.322  1.00  0.00     0.002 C 
HETATM   35  C   UNL     1      17.226  51.521  47.777  1.00  0.00     0.000 C 
HETATM   36  C   UNL     1      17.178  50.540  48.945  1.00  0.00     0.002 C 
HETATM   37  C   UNL     1      18.079  50.982  50.098  1.00  0.00     0.025 C 
ENDBRANCH  29  32
ENDBRANCH  12  28
TORSDOF 7
ENDMDL
MODEL 8
REMARK VINA RESULT:      -8.9      2.810      5.915
REMARK  7 active torsions:
REMARK  status: ('A' for Active; 'I' for Inactive)
REMARK    1  A    between atoms: C_2  and  O_3 
REMARK    2  A    between atoms: O_3  and  C_4 
REMARK    3  A    between atoms: C_7  and  C_8 
REMARK    4  A    between atoms: N_9  and  N_10 
REMARK    5  A    between atoms: C_21  and  C_22 
REMARK       I    between atoms: C_22  and  N_23 
REMARK    6  A    between atoms: N_23  and  C_24 
REMARK    7  A    between atoms: C_31  and  N_32 
ROOT
HETATM    1  N   UNL     1      23.886  42.931  49.577  1.00  0.00    -0.197 N 
HETATM    2  C   UNL     1      24.327  43.885  50.488  1.00  0.00     0.183 A 
HETATM    3  C   UNL     1      23.970  45.125  49.976  1.00  0.00     0.125 A 
HETATM    4  N   UNL     1      24.381  46.285  50.551  1.00  0.00    -0.242 NA
HETATM    5  C   UNL     1      25.069  46.123  51.689  1.00  0.00     0.086 A 
HETATM    6  C   UNL     1      25.398  44.846  52.220  1.00  0.00     0.088 A 
HETATM    7  N   UNL     1      25.064  43.692  51.608  1.00  0.00    -0.225 NA
HETATM    8  C   UNL     1      25.456  47.267  52.376  1.00  0.00     0.034 A 
HETATM    9  C   UNL     1      26.142  47.193  53.587  1.00  0.00     0.002 A 
HETATM   10  C   UNL     1      26.453  45.949  54.117  1.00  0.00     0.002 A 
HETATM   11  C   UNL     1      26.082  44.790  53.428  1.00  0.00     0.034 A 
HETATM   12  C   UNL     1      23.188  44.927  48.817  1.00  0.00     0.110 C 
HETATM   13  C   UNL     1      22.947  43.565  48.734  1.00  0.00     0.143 C 
ENDROOT
BRANCH   1  14
HETATM   14  N   UNL     1      24.636  41.833  49.209  1.00  0.00    -0.176 NA
HETATM   15  C   UNL     1      25.724  42.109  48.571  1.00  0.00     0.150 C 
BRANCH  15  16
HETATM   16  C   UNL     1      26.963  41.344  48.817  1.00  0.00    -0.017 A 
HETATM   17  C   UNL     1      27.603  40.727  47.733  1.00  0.00     0.016 A 
HETATM   18  C   UNL     1      28.517  39.698  47.959  1.00  0.00     0.037 A 
HETATM   19  C   UNL     1      28.785  39.286  49.265  1.00  0.00     0.068 A 
HETATM   20  C   UNL     1      28.227  39.974  50.346  1.00  0.00     0.037 A 
HETATM   21  C   UNL     1      27.298  40.994  50.125  1.00  0.00     0.016 A 
BRANCH  19  22
HETATM   22  O   UNL     1      29.567  38.205  49.568  1.00  0.00    -0.352 OA
BRANCH  22  23
HETATM   23  C   UNL     1      29.930  38.145  50.955  1.00  0.00     0.171 C 
HETATM   24  C   UNL     1      29.796  36.708  51.425  1.00  0.00     0.034 C 
ENDBRANCH  22  23
ENDBRANCH  19  22
ENDBRANCH  15  16
ENDBRANCH   1  14
BRANCH  13  25
HETATM   25  N   UNL     1      22.144  42.910  47.847  1.00  0.00    -0.383 N 
HETATM   26  H   UNL     1      21.410  43.420  47.362  1.00  0.00     0.157 HD
HETATM   27  H   UNL     1      22.622  42.282  47.191  1.00  0.00     0.157 HD
ENDBRANCH  13  25
BRANCH  12  28
HETATM   28  C   UNL     1      22.725  45.919  47.864  1.00  0.00     0.258 C 
HETATM   29  N   UNL     1      22.553  47.162  48.426  1.00  0.00    -0.352 N 
HETATM   30  H   UNL     1      22.556  47.210  49.440  1.00  0.00     0.163 HD
HETATM   31  O   UNL     1      22.588  45.683  46.668  1.00  0.00    -0.267 OA
BRANCH  29  32
HETATM   32  C   UNL     1      22.117  48.329  47.681  1.00  0.00     0.084 C 
HETATM   33  C   UNL     1      20.641  48.618  47.970  1.00  0.00     0.025 C 
HETATM   34  C   UNL     1      20.422  49.103  49.403  1.00  0.00     0.002 C 
HETATM   35  C   UNL     1      21.294  50.312  49.730  1.00  0.00     0.000 C 
HETATM   36  C   UNL     1      22.771  50.051  49.447  1.00  0.00     0.002 C 
HETATM   37  C   UNL     1      22.997  49.539  48.024  1.00  0.00     0.025 C 
ENDBRANCH  29  32
ENDBRANCH  12  28
TORSDOF 7
ENDMDL
MODEL 9
REMARK VINA RESULT:      -8.7      3.026      3.894
REMARK  7 active torsions:
REMARK  status: ('A' for Active; 'I' for Inactive)
REMARK    1  A    between atoms: C_2  and  O_3 
REMARK    2  A    between atoms: O_3  and  C_4 
REMARK    3  A    between atoms: C_7  and  C_8 
REMARK    4  A    between atoms: N_9  and  N_10 
REMARK    5  A    between atoms: C_21  and  C_22 
REMARK       I    between atoms: C_22  and  N_23 
REMARK    6  A    between atoms: N_23  and  C_24 
REMARK    7  A    between atoms: C_31  and  N_32 
ROOT
HETATM    1  N   UNL     1      25.431  45.079  50.122  1.00  0.00    -0.197 N 
HETATM    2  C   UNL     1      25.792  43.866  49.547  1.00  0.00     0.183 A 
HETATM    3  C   UNL     1      24.672  43.389  48.878  1.00  0.00     0.125 A 
HETATM    4  N   UNL     1      24.639  42.148  48.325  1.00  0.00    -0.242 NA
HETATM    5  C   UNL     1      25.798  41.479  48.403  1.00  0.00     0.086 A 
HETATM    6  C   UNL     1      26.947  41.995  49.061  1.00  0.00     0.088 A 
HETATM    7  N   UNL     1      26.959  43.191  49.683  1.00  0.00    -0.225 NA
HETATM    8  C   UNL     1      25.864  40.234  47.790  1.00  0.00     0.034 A 
HETATM    9  C   UNL     1      27.039  39.484  47.789  1.00  0.00     0.002 A 
HETATM   10  C   UNL     1      28.168  39.989  48.417  1.00  0.00     0.002 A 
HETATM   11  C   UNL     1      28.110  41.235  49.049  1.00  0.00     0.034 A 
HETATM   12  C   UNL     1      23.663  44.376  48.926  1.00  0.00     0.110 C 
HETATM   13  C   UNL     1      24.243  45.503  49.487  1.00  0.00     0.143 C 
ENDROOT
BRANCH   1  14
HETATM   14  N   UNL     1      25.798  45.450  51.399  1.00  0.00    -0.176 NA
HETATM   15  C   UNL     1      25.683  44.520  52.287  1.00  0.00     0.150 C 
BRANCH  15  16
HETATM   16  C   UNL     1      26.689  44.364  53.357  1.00  0.00    -0.017 A 
HETATM   17  C   UNL     1      26.921  45.437  54.229  1.00  0.00     0.016 A 
HETATM   18  C   UNL     1      28.098  45.486  54.975  1.00  0.00     0.037 A 
HETATM   19  C   UNL     1      29.041  44.466  54.845  1.00  0.00     0.068 A 
HETATM   20  C   UNL     1      28.760  43.347  54.058  1.00  0.00     0.037 A 
HETATM   21  C   UNL     1      27.590  43.301  53.295  1.00  0.00     0.016 A 
BRANCH  19  22
HETATM   22  O   UNL     1      30.273  44.499  55.440  1.00  0.00    -0.352 OA
BRANCH  22  23
HETATM   23  C   UNL     1      30.777  43.195  55.764  1.00  0.00     0.171 C 
HETATM   24  C   UNL     1      31.594  43.298  57.038  1.00  0.00     0.034 C 
ENDBRANCH  22  23
ENDBRANCH  19  22
ENDBRANCH  15  16
ENDBRANCH   1  14
BRANCH  13  25
HETATM   25  N   UNL     1      23.691  46.742  49.632  1.00  0.00    -0.383 N 
HETATM   26  H   UNL     1      23.700  47.391  48.850  1.00  0.00     0.157 HD
HETATM   27  H   UNL     1      22.778  46.772  50.099  1.00  0.00     0.157 HD
ENDBRANCH  13  25
BRANCH  12  28
HETATM   28  C   UNL     1      22.279  44.267  48.505  1.00  0.00     0.258 C 
HETATM   29  N   UNL     1      22.147  43.889  47.190  1.00  0.00    -0.352 N 
HETATM   30  H   UNL     1      22.983  43.933  46.615  1.00  0.00     0.163 HD
HETATM   31  O   UNL     1      21.334  44.416  49.273  1.00  0.00    -0.267 OA
BRANCH  29  32
HETATM   32  C   UNL     1      20.868  43.691  46.533  1.00  0.00     0.084 C 
HETATM   33  C   UNL     1      20.375  45.010  45.931  1.00  0.00     0.025 C 
HETATM   34  C   UNL     1      21.231  45.454  44.745  1.00  0.00     0.002 C 
HETATM   35  C   UNL     1      21.331  44.365  43.681  1.00  0.00     0.000 C 
HETATM   36  C   UNL     1      21.818  43.038  44.257  1.00  0.00     0.002 C 
HETATM   37  C   UNL     1      20.983  42.600  45.460  1.00  0.00     0.025 C 
ENDBRANCH  29  32
ENDBRANCH  12  28
TORSDOF 7
ENDMDL
MODEL 10
REMARK VINA RESULT:      -8.7      2.481      7.146
REMARK  7 active torsions:
REMARK  status: ('A' for Active; 'I' for Inactive)
REMARK    1  A    between atoms: C_2  and  O_3 
REMARK    2  A    between atoms: O_3  and  C_4 
REMARK    3  A    between atoms: C_7  and  C_8 
REMARK    4  A    between atoms: N_9  and  N_10 
REMARK    5  A    between atoms: C_21  and  C_22 
REMARK       I    between atoms: C_22  and  N_23 
REMARK    6  A    between atoms: N_23  and  C_24 
REMARK    7  A    between atoms: C_31  and  N_32 
ROOT
HETATM    1  N   UNL     1      24.392  45.042  49.840  1.00  0.00    -0.197 N 
HETATM    2  C   UNL     1      25.019  45.424  51.021  1.00  0.00     0.183 A 
HETATM    3  C   UNL     1      24.987  46.811  51.063  1.00  0.00     0.125 A 
HETATM    4  N   UNL     1      25.645  47.517  52.020  1.00  0.00    -0.242 NA
HETATM    5  C   UNL     1      26.237  46.760  52.954  1.00  0.00     0.086 A 
HETATM    6  C   UNL     1      26.231  45.339  52.916  1.00  0.00     0.088 A 
HETATM    7  N   UNL     1      25.650  44.636  51.924  1.00  0.00    -0.225 NA
HETATM    8  C   UNL     1      26.863  47.413  54.008  1.00  0.00     0.034 A 
HETATM    9  C   UNL     1      27.473  46.706  55.043  1.00  0.00     0.002 A 
HETATM   10  C   UNL     1      27.458  45.318  55.020  1.00  0.00     0.002 A 
HETATM   11  C   UNL     1      26.842  44.650  53.957  1.00  0.00     0.034 A 
HETATM   12  C   UNL     1      24.218  47.279  49.975  1.00  0.00     0.110 C 
HETATM   13  C   UNL     1      23.660  46.158  49.379  1.00  0.00     0.143 C 
ENDROOT
BRANCH   1  14
HETATM   14  N   UNL     1      24.867  44.039  49.021  1.00  0.00    -0.176 NA
HETATM   15  C   UNL     1      24.453  42.854  49.320  1.00  0.00     0.150 C 
BRANCH  15  16
HETATM   16  C   UNL     1      24.109  41.880  48.264  1.00  0.00    -0.017 A 
HETATM   17  C   UNL     1      22.759  41.579  48.035  1.00  0.00     0.016 A 
HETATM   18  C   UNL     1      22.412  40.414  47.353  1.00  0.00     0.037 A 
HETATM   19  C   UNL     1      23.413  39.552  46.905  1.00  0.00     0.068 A 
HETATM   20  C   UNL     1      24.758  39.907  47.039  1.00  0.00     0.037 A 
HETATM   21  C   UNL     1      25.111  41.065  47.738  1.00  0.00     0.016 A 
BRANCH  19  22
HETATM   22  O   UNL     1      23.159  38.330  46.341  1.00  0.00    -0.352 OA
BRANCH  22  23
HETATM   23  C   UNL     1      21.778  37.950  46.422  1.00  0.00     0.171 C 
HETATM   24  C   UNL     1      21.685  36.634  47.173  1.00  0.00     0.034 C 
ENDBRANCH  22  23
ENDBRANCH  19  22
ENDBRANCH  15  16
ENDBRANCH   1  14
BRANCH  13  25
HETATM   25  N   UNL     1      22.752  46.117  48.361  1.00  0.00    -0.383 N 
HETATM   26  H   UNL     1      22.329  46.980  48.030  1.00  0.00     0.157 HD
HETATM   27  H   UNL     1      23.005  45.524  47.562  1.00  0.00     0.157 HD
ENDBRANCH  13  25
BRANCH  12  28
HETATM   28  C   UNL     1      24.038  48.645  49.522  1.00  0.00     0.258 C 
HETATM   29  N   UNL     1      22.768  49.122  49.747  1.00  0.00    -0.352 N 
HETATM   30  H   UNL     1      22.060  48.437  49.994  1.00  0.00     0.163 HD
HETATM   31  O   UNL     1      24.953  49.324  49.067  1.00  0.00    -0.267 OA
BRANCH  29  32
HETATM   32  C   UNL     1      22.339  50.465  49.404  1.00  0.00     0.084 C 
HETATM   33  C   UNL     1      21.936  50.529  47.928  1.00  0.00     0.025 C 
HETATM   34  C   UNL     1      20.652  49.747  47.650  1.00  0.00     0.002 C 
HETATM   35  C   UNL     1      19.509  50.198  48.553  1.00  0.00     0.000 C 
HETATM   36  C   UNL     1      19.887  50.147  50.031  1.00  0.00     0.002 C 
HETATM   37  C   UNL     1      21.184  50.904  50.314  1.00  0.00     0.025 C 
ENDBRANCH  29  32
ENDBRANCH  12  28
TORSDOF 7
ENDMDL
