MODEL 1
REMARK VINA RESULT:      -8.3      0.000      0.000
REMARK  7 active torsions:
REMARK  status: ('A' for Active; 'I' for Inactive)
REMARK    1  A    between atoms: C_6  and  C_7 
REMARK    2  A    between atoms: C_7  and  S_8 
REMARK    3  A    between atoms: S_8  and  C_9 
REMARK    4  A    between atoms: N_10  and  C_11 
REMARK    5  A    between atoms: C_14  and  C_15 
REMARK    6  A    between atoms: C_15  and  O_16 
REMARK    7  A    between atoms: C_20  and  N_21 
ROOT
HETATM    1  C   UNL     1      30.861  44.076  55.972  1.00  0.00     0.001 A 
HETATM    2  C   UNL     1      30.469  43.346  54.853  1.00  0.00     0.017 A 
HETATM    3  C   UNL     1      29.350  43.750  54.083  1.00  0.00     0.033 A 
HETATM    4  C   UNL     1      28.626  44.888  54.450  1.00  0.00     0.072 A 
HETATM    5  N   UNL     1      27.551  45.307  53.772  1.00  0.00    -0.232 NA
HETATM    6  C   UNL     1      27.159  44.581  52.708  1.00  0.00     0.138 A 
HETATM    7  N   UNL     1      27.784  43.471  52.272  1.00  0.00    -0.220 NA
HETATM    8  C   UNL     1      28.874  43.087  52.948  1.00  0.00     0.115 A 
HETATM    9  C   UNL     1      29.039  45.602  55.568  1.00  0.00     0.032 A 
HETATM   10  C   UNL     1      30.145  45.210  56.329  1.00  0.00     0.002 A 
ENDROOT
BRANCH   6  11
HETATM   11  C   UNL     1      25.905  45.016  51.990  1.00  0.00     0.163 C 
BRANCH  11  12
HETATM   12  S   UNL     1      25.986  44.713  50.194  1.00  0.00    -0.082 SA
BRANCH  12  13
HETATM   13  C   UNL     1      26.610  46.236  49.661  1.00  0.00     0.192 A 
HETATM   14  N   UNL     1      25.923  47.425  49.559  1.00  0.00    -0.305 N 
HETATM   15  C   UNL     1      26.842  48.328  49.061  1.00  0.00     0.154 A 
HETATM   16  N   UNL     1      28.007  47.726  48.911  1.00  0.00    -0.132 NA
HETATM   17  N   UNL     1      27.856  46.418  49.283  1.00  0.00    -0.123 NA
BRANCH  14  18
HETATM   18  C   UNL     1      24.554  47.784  49.899  1.00  0.00     0.094 A 
HETATM   19  C   UNL     1      23.605  48.486  48.948  1.00  0.00     0.028 A 
HETATM   20  C   UNL     1      23.331  47.076  49.348  1.00  0.00     0.028 A 
ENDBRANCH  14  18
BRANCH  15  21
HETATM   21  C   UNL     1      26.575  49.758  48.765  1.00  0.00     0.244 C 
BRANCH  21  22
HETATM   22  O   UNL     1      26.273  49.888  47.378  1.00  0.00    -0.393 OA
HETATM   23  H   UNL     1      25.751  49.100  47.127  1.00  0.00     0.209 HD
ENDBRANCH  21  22
ENDBRANCH  15  21
ENDBRANCH  12  13
ENDBRANCH  11  12
ENDBRANCH   6  11
BRANCH   8  24
HETATM   24  N   UNL     1      29.505  41.942  52.442  1.00  0.00    -0.286 NA
HETATM   25  H   UNL     1      30.498  42.048  52.636  1.00  0.00     0.125 HD
HETATM   26  H   UNL     1      29.131  41.104  52.873  1.00  0.00     0.125 HD
ENDBRANCH   8  24
TORSDOF 7
ENDMDL
MODEL 2
REMARK VINA RESULT:      -8.0      1.386      2.290
REMARK  7 active torsions:
REMARK  status: ('A' for Active; 'I' for Inactive)
REMARK    1  A    between atoms: C_6  and  C_7 
REMARK    2  A    between atoms: C_7  and  S_8 
REMARK    3  A    between atoms: S_8  and  C_9 
REMARK    4  A    between atoms: N_10  and  C_11 
REMARK    5  A    between atoms: C_14  and  C_15 
REMARK    6  A    between atoms: C_15  and  O_16 
REMARK    7  A    between atoms: C_20  and  N_21 
ROOT
HETATM    1  C   UNL     1      30.871  44.043  56.157  1.00  0.00     0.001 A 
HETATM    2  C   UNL     1      30.578  43.269  55.036  1.00  0.00     0.017 A 
HETATM    3  C   UNL     1      29.517  43.627  54.169  1.00  0.00     0.033 A 
HETATM    4  C   UNL     1      28.748  44.763  54.440  1.00  0.00     0.072 A 
HETATM    5  N   UNL     1      27.723  45.140  53.667  1.00  0.00    -0.232 NA
HETATM    6  C   UNL     1      27.426  44.371  52.602  1.00  0.00     0.138 A 
HETATM    7  N   UNL     1      28.100  43.259  52.254  1.00  0.00    -0.220 NA
HETATM    8  C   UNL     1      29.141  42.918  53.024  1.00  0.00     0.115 A 
HETATM    9  C   UNL     1      29.062  45.521  55.562  1.00  0.00     0.032 A 
HETATM   10  C   UNL     1      30.111  45.175  56.419  1.00  0.00     0.002 A 
ENDROOT
BRANCH   6  11
HETATM   11  C   UNL     1      26.225  44.760  51.774  1.00  0.00     0.163 C 
BRANCH  11  12
HETATM   12  S   UNL     1      26.671  45.236  50.072  1.00  0.00    -0.082 SA
BRANCH  12  13
HETATM   13  C   UNL     1      25.274  46.160  49.643  1.00  0.00     0.192 A 
HETATM   14  N   UNL     1      25.188  47.529  49.524  1.00  0.00    -0.305 N 
HETATM   15  C   UNL     1      23.869  47.779  49.198  1.00  0.00     0.154 A 
HETATM   16  N   UNL     1      23.222  46.633  49.093  1.00  0.00    -0.132 NA
HETATM   17  N   UNL     1      24.103  45.625  49.375  1.00  0.00    -0.123 NA
BRANCH  14  18
HETATM   18  C   UNL     1      26.190  48.577  49.654  1.00  0.00     0.094 A 
HETATM   19  C   UNL     1      27.611  48.452  49.142  1.00  0.00     0.028 A 
HETATM   20  C   UNL     1      26.683  49.426  48.498  1.00  0.00     0.028 A 
ENDBRANCH  14  18
BRANCH  15  21
HETATM   21  C   UNL     1      23.274  49.120  48.971  1.00  0.00     0.244 C 
BRANCH  21  22
HETATM   22  O   UNL     1      22.794  49.622  50.217  1.00  0.00    -0.393 OA
HETATM   23  H   UNL     1      22.163  50.340  50.007  1.00  0.00     0.209 HD
ENDBRANCH  21  22
ENDBRANCH  15  21
ENDBRANCH  12  13
ENDBRANCH  11  12
ENDBRANCH   6  11
BRANCH   8  24
HETATM   24  N   UNL     1      29.826  41.769  52.609  1.00  0.00    -0.286 NA
HETATM   25  H   UNL     1      30.386  42.039  51.803  1.00  0.00     0.125 HD
HETATM   26  H   UNL     1      30.406  41.405  53.356  1.00  0.00     0.125 HD
ENDBRANCH   8  24
TORSDOF 7
ENDMDL
MODEL 3
REMARK VINA RESULT:      -8.0      1.601      3.006
REMARK  7 active torsions:
REMARK  status: ('A' for Active; 'I' for Inactive)
REMARK    1  A    between atoms: C_6  and  C_7 
REMARK    2  A    between atoms: C_7  and  S_8 
REMARK    3  A    between atoms: S_8  and  C_9 
REMARK    4  A    between atoms: N_10  and  C_11 
REMARK    5  A    between atoms: C_14  and  C_15 
REMARK    6  A    between atoms: C_15  and  O_16 
REMARK    7  A    between atoms: C_20  and  N_21 
ROOT
HETATM    1  C   UNL     1      30.697  44.809  56.520  1.00  0.00     0.001 A 
HETATM    2  C   UNL     1      29.630  45.611  56.120  1.00  0.00     0.017 A 
HETATM    3  C   UNL     1      28.811  45.230  55.028  1.00  0.00     0.033 A 
HETATM    4  C   UNL     1      29.076  44.044  54.338  1.00  0.00     0.072 A 
HETATM    5  N   UNL     1      28.349  43.642  53.288  1.00  0.00    -0.232 NA
HETATM    6  C   UNL     1      27.338  44.436  52.888  1.00  0.00     0.138 A 
HETATM    7  N   UNL     1      27.000  45.597  53.480  1.00  0.00    -0.220 NA
HETATM    8  C   UNL     1      27.723  45.964  54.546  1.00  0.00     0.115 A 
HETATM    9  C   UNL     1      30.143  43.258  54.758  1.00  0.00     0.032 A 
HETATM   10  C   UNL     1      30.952  43.627  55.838  1.00  0.00     0.002 A 
ENDROOT
BRANCH   6  11
HETATM   11  C   UNL     1      26.566  44.016  51.660  1.00  0.00     0.163 C 
BRANCH  11  12
HETATM   12  S   UNL     1      27.082  44.923  50.165  1.00  0.00    -0.082 SA
BRANCH  12  13
HETATM   13  C   UNL     1      25.606  45.741  49.786  1.00  0.00     0.192 A 
HETATM   14  N   UNL     1      25.408  47.101  49.701  1.00  0.00    -0.305 N 
HETATM   15  C   UNL     1      24.067  47.251  49.407  1.00  0.00     0.154 A 
HETATM   16  N   UNL     1      23.511  46.060  49.289  1.00  0.00    -0.132 NA
HETATM   17  N   UNL     1      24.475  45.119  49.530  1.00  0.00    -0.123 NA
BRANCH  14  18
HETATM   18  C   UNL     1      26.327  48.222  49.834  1.00  0.00     0.094 A 
HETATM   19  C   UNL     1      27.660  48.310  49.118  1.00  0.00     0.028 A 
HETATM   20  C   UNL     1      26.567  49.255  48.749  1.00  0.00     0.028 A 
ENDBRANCH  14  18
BRANCH  15  21
HETATM   21  C   UNL     1      23.362  48.545  49.225  1.00  0.00     0.244 C 
BRANCH  21  22
HETATM   22  O   UNL     1      21.997  48.377  49.601  1.00  0.00    -0.393 OA
HETATM   23  H   UNL     1      21.471  48.406  48.776  1.00  0.00     0.209 HD
ENDBRANCH  21  22
ENDBRANCH  15  21
ENDBRANCH  12  13
ENDBRANCH  11  12
ENDBRANCH   6  11
BRANCH   8  24
HETATM   24  N   UNL     1      27.319  47.164  55.144  1.00  0.00    -0.286 NA
HETATM   25  H   UNL     1      26.934  47.744  54.402  1.00  0.00     0.125 HD
HETATM   26  H   UNL     1      26.634  46.993  55.871  1.00  0.00     0.125 HD
ENDBRANCH   8  24
TORSDOF 7
ENDMDL
MODEL 4
REMARK VINA RESULT:      -7.8      4.679      5.880
REMARK  7 active torsions:
REMARK  status: ('A' for Active; 'I' for Inactive)
REMARK    1  A    between atoms: C_6  and  C_7 
REMARK    2  A    between atoms: C_7  and  S_8 
REMARK    3  A    between atoms: S_8  and  C_9 
REMARK    4  A    between atoms: N_10  and  C_11 
REMARK    5  A    between atoms: C_14  and  C_15 
REMARK    6  A    between atoms: C_15  and  O_16 
REMARK    7  A    between atoms: C_20  and  N_21 
ROOT
HETATM    1  C   UNL     1      30.542  45.721  58.199  1.00  0.00     0.001 A 
HETATM    2  C   UNL     1      29.647  45.949  57.156  1.00  0.00     0.017 A 
HETATM    3  C   UNL     1      29.598  45.075  56.042  1.00  0.00     0.033 A 
HETATM    4  C   UNL     1      30.459  43.975  55.980  1.00  0.00     0.072 A 
HETATM    5  N   UNL     1      30.472  43.127  54.946  1.00  0.00    -0.232 NA
HETATM    6  C   UNL     1      29.625  43.370  53.927  1.00  0.00     0.138 A 
HETATM    7  N   UNL     1      28.758  44.399  53.887  1.00  0.00    -0.220 NA
HETATM    8  C   UNL     1      28.742  45.218  54.946  1.00  0.00     0.115 A 
HETATM    9  C   UNL     1      31.341  43.766  57.035  1.00  0.00     0.032 A 
HETATM   10  C   UNL     1      31.390  44.623  58.139  1.00  0.00     0.002 A 
ENDROOT
BRANCH   6  11
HETATM   11  C   UNL     1      29.692  42.452  52.730  1.00  0.00     0.163 C 
BRANCH  11  12
HETATM   12  S   UNL     1      28.256  41.333  52.625  1.00  0.00    -0.082 SA
BRANCH  12  13
HETATM   13  C   UNL     1      27.783  41.606  50.984  1.00  0.00     0.192 A 
HETATM   14  N   UNL     1      27.756  40.682  49.963  1.00  0.00    -0.305 N 
HETATM   15  C   UNL     1      27.344  41.389  48.850  1.00  0.00     0.154 A 
HETATM   16  N   UNL     1      27.107  42.641  49.193  1.00  0.00    -0.132 NA
HETATM   17  N   UNL     1      27.387  42.773  50.526  1.00  0.00    -0.123 NA
BRANCH  14  18
HETATM   18  C   UNL     1      28.038  39.254  49.942  1.00  0.00     0.094 A 
HETATM   19  C   UNL     1      28.932  38.585  48.917  1.00  0.00     0.028 A 
HETATM   20  C   UNL     1      29.370  38.648  50.341  1.00  0.00     0.028 A 
ENDBRANCH  14  18
BRANCH  15  21
HETATM   21  C   UNL     1      27.166  40.828  47.487  1.00  0.00     0.244 C 
BRANCH  21  22
HETATM   22  O   UNL     1      28.011  41.542  46.587  1.00  0.00    -0.393 OA
HETATM   23  H   UNL     1      28.107  40.985  45.788  1.00  0.00     0.209 HD
ENDBRANCH  21  22
ENDBRANCH  15  21
ENDBRANCH  12  13
ENDBRANCH  11  12
ENDBRANCH   6  11
BRANCH   8  24
HETATM   24  N   UNL     1      27.807  46.258  54.870  1.00  0.00    -0.286 NA
HETATM   25  H   UNL     1      27.945  46.834  55.696  1.00  0.00     0.125 HD
HETATM   26  H   UNL     1      27.933  46.795  54.020  1.00  0.00     0.125 HD
ENDBRANCH   8  24
TORSDOF 7
ENDMDL
MODEL 5
REMARK VINA RESULT:      -7.8      1.839      2.502
REMARK  7 active torsions:
REMARK  status: ('A' for Active; 'I' for Inactive)
REMARK    1  A    between atoms: C_6  and  C_7 
REMARK    2  A    between atoms: C_7  and  S_8 
REMARK    3  A    between atoms: S_8  and  C_9 
REMARK    4  A    between atoms: N_10  and  C_11 
REMARK    5  A    between atoms: C_14  and  C_15 
REMARK    6  A    between atoms: C_15  and  O_16 
REMARK    7  A    between atoms: C_20  and  N_21 
ROOT
HETATM    1  C   UNL     1      30.954  44.099  56.324  1.00  0.00     0.001 A 
HETATM    2  C   UNL     1      30.633  43.373  55.179  1.00  0.00     0.017 A 
HETATM    3  C   UNL     1      29.544  43.760  54.361  1.00  0.00     0.033 A 
HETATM    4  C   UNL     1      28.776  44.877  54.704  1.00  0.00     0.072 A 
HETATM    5  N   UNL     1      27.725  45.279  53.979  1.00  0.00    -0.232 NA
HETATM    6  C   UNL     1      27.402  44.556  52.890  1.00  0.00     0.138 A 
HETATM    7  N   UNL     1      28.073  43.466  52.474  1.00  0.00    -0.220 NA
HETATM    8  C   UNL     1      29.139  43.099  53.197  1.00  0.00     0.115 A 
HETATM    9  C   UNL     1      29.117  45.588  55.848  1.00  0.00     0.032 A 
HETATM   10  C   UNL     1      30.194  45.213  56.658  1.00  0.00     0.002 A 
ENDROOT
BRANCH   6  11
HETATM   11  C   UNL     1      26.174  44.970  52.117  1.00  0.00     0.163 C 
BRANCH  11  12
HETATM   12  S   UNL     1      26.541  45.352  50.372  1.00  0.00    -0.082 SA
BRANCH  12  13
HETATM   13  C   UNL     1      25.287  46.498  50.046  1.00  0.00     0.192 A 
HETATM   14  N   UNL     1      24.092  46.261  49.405  1.00  0.00    -0.305 N 
HETATM   15  C   UNL     1      23.458  47.487  49.362  1.00  0.00     0.154 A 
HETATM   16  N   UNL     1      24.210  48.386  49.969  1.00  0.00    -0.132 NA
HETATM   17  N   UNL     1      25.353  47.765  50.391  1.00  0.00    -0.123 NA
BRANCH  14  18
HETATM   18  C   UNL     1      23.502  45.039  48.878  1.00  0.00     0.094 A 
HETATM   19  C   UNL     1      24.236  43.715  48.795  1.00  0.00     0.028 A 
HETATM   20  C   UNL     1      23.089  43.859  49.737  1.00  0.00     0.028 A 
ENDBRANCH  14  18
BRANCH  15  21
HETATM   21  C   UNL     1      22.130  47.753  48.756  1.00  0.00     0.244 C 
BRANCH  21  22
HETATM   22  O   UNL     1      21.397  48.617  49.622  1.00  0.00    -0.393 OA
HETATM   23  H   UNL     1      21.748  48.475  50.524  1.00  0.00     0.209 HD
ENDBRANCH  21  22
ENDBRANCH  15  21
ENDBRANCH  12  13
ENDBRANCH  11  12
ENDBRANCH   6  11
BRANCH   8  24
HETATM   24  N   UNL     1      29.819  41.976  52.711  1.00  0.00    -0.286 NA
HETATM   25  H   UNL     1      29.778  42.026  51.696  1.00  0.00     0.125 HD
HETATM   26  H   UNL     1      30.778  41.963  53.041  1.00  0.00     0.125 HD
ENDBRANCH   8  24
TORSDOF 7
ENDMDL
MODEL 6
REMARK VINA RESULT:      -7.8      1.702      2.859
REMARK  7 active torsions:
REMARK  status: ('A' for Active; 'I' for Inactive)
REMARK    1  A    between atoms: C_6  and  C_7 
REMARK    2  A    between atoms: C_7  and  S_8 
REMARK    3  A    between atoms: S_8  and  C_9 
REMARK    4  A    between atoms: N_10  and  C_11 
REMARK    5  A    between atoms: C_14  and  C_15 
REMARK    6  A    between atoms: C_15  and  O_16 
REMARK    7  A    between atoms: C_20  and  N_21 
ROOT
HETATM    1  C   UNL     1      30.758  44.656  56.367  1.00  0.00     0.001 A 
HETATM    2  C   UNL     1      29.694  45.484  56.018  1.00  0.00     0.017 A 
HETATM    3  C   UNL     1      28.788  45.103  54.997  1.00  0.00     0.033 A 
HETATM    4  C   UNL     1      28.963  43.889  54.327  1.00  0.00     0.072 A 
HETATM    5  N   UNL     1      28.151  43.485  53.343  1.00  0.00    -0.232 NA
HETATM    6  C   UNL     1      27.142  44.303  52.990  1.00  0.00     0.138 A 
HETATM    7  N   UNL     1      26.886  45.491  53.569  1.00  0.00    -0.220 NA
HETATM    8  C   UNL     1      27.694  45.861  54.570  1.00  0.00     0.115 A 
HETATM    9  C   UNL     1      30.030  43.078  54.696  1.00  0.00     0.032 A 
HETATM   10  C   UNL     1      30.925  43.447  55.706  1.00  0.00     0.002 A 
ENDROOT
BRANCH   6  11
HETATM   11  C   UNL     1      26.271  43.877  51.832  1.00  0.00     0.163 C 
BRANCH  11  12
HETATM   12  S   UNL     1      26.861  44.531  50.235  1.00  0.00    -0.082 SA
BRANCH  12  13
HETATM   13  C   UNL     1      25.905  45.969  50.129  1.00  0.00     0.192 A 
HETATM   14  N   UNL     1      24.652  46.094  49.570  1.00  0.00    -0.305 N 
HETATM   15  C   UNL     1      24.333  47.432  49.701  1.00  0.00     0.154 A 
HETATM   16  N   UNL     1      25.314  48.053  50.329  1.00  0.00    -0.132 NA
HETATM   17  N   UNL     1      26.295  47.137  50.591  1.00  0.00    -0.123 NA
BRANCH  14  18
HETATM   18  C   UNL     1      23.755  45.113  48.977  1.00  0.00     0.094 A 
HETATM   19  C   UNL     1      24.059  43.630  48.899  1.00  0.00     0.028 A 
HETATM   20  C   UNL     1      22.952  44.106  49.778  1.00  0.00     0.028 A 
ENDBRANCH  14  18
BRANCH  15  21
HETATM   21  C   UNL     1      23.076  48.069  49.237  1.00  0.00     0.244 C 
BRANCH  21  22
HETATM   22  O   UNL     1      22.854  49.252  50.003  1.00  0.00    -0.393 OA
HETATM   23  H   UNL     1      22.897  48.990  50.944  1.00  0.00     0.209 HD
ENDBRANCH  21  22
ENDBRANCH  15  21
ENDBRANCH  12  13
ENDBRANCH  11  12
ENDBRANCH   6  11
BRANCH   8  24
HETATM   24  N   UNL     1      27.374  47.092  55.158  1.00  0.00    -0.286 NA
HETATM   25  H   UNL     1      26.743  47.566  54.516  1.00  0.00     0.125 HD
HETATM   26  H   UNL     1      26.944  46.958  56.066  1.00  0.00     0.125 HD
ENDBRANCH   8  24
TORSDOF 7
ENDMDL
MODEL 7
REMARK VINA RESULT:      -7.5      2.949      8.031
REMARK  7 active torsions:
REMARK  status: ('A' for Active; 'I' for Inactive)
REMARK    1  A    between atoms: C_6  and  C_7 
REMARK    2  A    between atoms: C_7  and  S_8 
REMARK    3  A    between atoms: S_8  and  C_9 
REMARK    4  A    between atoms: N_10  and  C_11 
REMARK    5  A    between atoms: C_14  and  C_15 
REMARK    6  A    between atoms: C_15  and  O_16 
REMARK    7  A    between atoms: C_20  and  N_21 
ROOT
HETATM    1  C   UNL     1      22.540  50.903  47.894  1.00  0.00     0.001 A 
HETATM    2  C   UNL     1      23.924  50.743  47.873  1.00  0.00     0.017 A 
HETATM    3  C   UNL     1      24.541  49.705  48.615  1.00  0.00     0.033 A 
HETATM    4  C   UNL     1      23.759  48.836  49.382  1.00  0.00     0.072 A 
HETATM    5  N   UNL     1      24.288  47.851  50.117  1.00  0.00    -0.232 NA
HETATM    6  C   UNL     1      25.628  47.719  50.117  1.00  0.00     0.138 A 
HETATM    7  N   UNL     1      26.469  48.502  49.415  1.00  0.00    -0.220 NA
HETATM    8  C   UNL     1      25.917  49.462  48.664  1.00  0.00     0.115 A 
HETATM    9  C   UNL     1      22.381  49.014  49.384  1.00  0.00     0.032 A 
HETATM   10  C   UNL     1      21.766  50.034  48.650  1.00  0.00     0.002 A 
ENDROOT
BRANCH   6  11
HETATM   11  C   UNL     1      26.224  46.653  51.003  1.00  0.00     0.163 C 
BRANCH  11  12
HETATM   12  S   UNL     1      24.975  45.481  51.626  1.00  0.00    -0.082 SA
BRANCH  12  13
HETATM   13  C   UNL     1      25.908  44.025  51.637  1.00  0.00     0.192 A 
HETATM   14  N   UNL     1      26.716  43.563  52.652  1.00  0.00    -0.305 N 
HETATM   15  C   UNL     1      27.263  42.390  52.170  1.00  0.00     0.154 A 
HETATM   16  N   UNL     1      26.786  42.151  50.963  1.00  0.00    -0.132 NA
HETATM   17  N   UNL     1      25.943  43.176  50.633  1.00  0.00    -0.123 NA
BRANCH  14  18
HETATM   18  C   UNL     1      26.986  44.082  53.985  1.00  0.00     0.094 A 
HETATM   19  C   UNL     1      28.380  44.303  54.538  1.00  0.00     0.028 A 
HETATM   20  C   UNL     1      27.506  45.480  54.261  1.00  0.00     0.028 A 
ENDBRANCH  14  18
BRANCH  15  21
HETATM   21  C   UNL     1      28.217  41.518  52.900  1.00  0.00     0.244 C 
BRANCH  21  22
HETATM   22  O   UNL     1      27.478  40.525  53.607  1.00  0.00    -0.393 OA
HETATM   23  H   UNL     1      26.955  40.034  52.941  1.00  0.00     0.209 HD
ENDBRANCH  21  22
ENDBRANCH  15  21
ENDBRANCH  12  13
ENDBRANCH  11  12
ENDBRANCH   6  11
BRANCH   8  24
HETATM   24  N   UNL     1      26.830  50.234  47.934  1.00  0.00    -0.286 NA
HETATM   25  H   UNL     1      26.368  50.484  47.063  1.00  0.00     0.125 HD
HETATM   26  H   UNL     1      27.105  51.058  48.456  1.00  0.00     0.125 HD
ENDBRANCH   8  24
TORSDOF 7
ENDMDL
MODEL 8
REMARK VINA RESULT:      -7.4      2.575      3.730
REMARK  7 active torsions:
REMARK  status: ('A' for Active; 'I' for Inactive)
REMARK    1  A    between atoms: C_6  and  C_7 
REMARK    2  A    between atoms: C_7  and  S_8 
REMARK    3  A    between atoms: S_8  and  C_9 
REMARK    4  A    between atoms: N_10  and  C_11 
REMARK    5  A    between atoms: C_14  and  C_15 
REMARK    6  A    between atoms: C_15  and  O_16 
REMARK    7  A    between atoms: C_20  and  N_21 
ROOT
HETATM    1  C   UNL     1      30.173  42.867  54.285  1.00  0.00     0.001 A 
HETATM    2  C   UNL     1      29.596  43.960  54.927  1.00  0.00     0.017 A 
HETATM    3  C   UNL     1      28.529  44.671  54.322  1.00  0.00     0.033 A 
HETATM    4  C   UNL     1      28.052  44.280  53.068  1.00  0.00     0.072 A 
HETATM    5  N   UNL     1      27.061  44.923  52.441  1.00  0.00    -0.232 NA
HETATM    6  C   UNL     1      26.527  45.997  53.052  1.00  0.00     0.138 A 
HETATM    7  N   UNL     1      26.912  46.457  54.257  1.00  0.00    -0.220 NA
HETATM    8  C   UNL     1      27.886  45.780  54.879  1.00  0.00     0.115 A 
HETATM    9  C   UNL     1      28.642  43.183  52.449  1.00  0.00     0.032 A 
HETATM   10  C   UNL     1      29.692  42.475  53.043  1.00  0.00     0.002 A 
ENDROOT
BRANCH   6  11
HETATM   11  C   UNL     1      25.458  46.763  52.310  1.00  0.00     0.163 C 
BRANCH  11  12
HETATM   12  S   UNL     1      26.000  47.291  50.651  1.00  0.00    -0.082 SA
BRANCH  12  13
HETATM   13  C   UNL     1      24.464  47.608  49.922  1.00  0.00     0.192 A 
HETATM   14  N   UNL     1      23.651  46.707  49.271  1.00  0.00    -0.305 N 
HETATM   15  C   UNL     1      22.565  47.446  48.844  1.00  0.00     0.154 A 
HETATM   16  N   UNL     1      22.705  48.696  49.245  1.00  0.00    -0.132 NA
HETATM   17  N   UNL     1      23.893  48.794  49.914  1.00  0.00    -0.123 NA
BRANCH  14  18
HETATM   18  C   UNL     1      23.779  45.274  49.049  1.00  0.00     0.094 A 
HETATM   19  C   UNL     1      25.021  44.475  49.390  1.00  0.00     0.028 A 
HETATM   20  C   UNL     1      23.765  44.240  50.159  1.00  0.00     0.028 A 
ENDBRANCH  14  18
BRANCH  15  21
HETATM   21  C   UNL     1      21.408  46.918  48.079  1.00  0.00     0.244 C 
BRANCH  21  22
HETATM   22  O   UNL     1      20.415  46.474  49.001  1.00  0.00    -0.393 OA
HETATM   23  H   UNL     1      19.606  46.296  48.481  1.00  0.00     0.209 HD
ENDBRANCH  21  22
ENDBRANCH  15  21
ENDBRANCH  12  13
ENDBRANCH  11  12
ENDBRANCH   6  11
BRANCH   8  24
HETATM   24  N   UNL     1      28.235  46.281  56.140  1.00  0.00    -0.286 NA
HETATM   25  H   UNL     1      27.838  45.644  56.827  1.00  0.00     0.125 HD
HETATM   26  H   UNL     1      29.242  46.346  56.236  1.00  0.00     0.125 HD
ENDBRANCH   8  24
TORSDOF 7
ENDMDL
MODEL 9
REMARK VINA RESULT:      -7.1      3.197      3.740
REMARK  7 active torsions:
REMARK  status: ('A' for Active; 'I' for Inactive)
REMARK    1  A    between atoms: C_6  and  C_7 
REMARK    2  A    between atoms: C_7  and  S_8 
REMARK    3  A    between atoms: S_8  and  C_9 
REMARK    4  A    between atoms: N_10  and  C_11 
REMARK    5  A    between atoms: C_14  and  C_15 
REMARK    6  A    between atoms: C_15  and  O_16 
REMARK    7  A    between atoms: C_20  and  N_21 
ROOT
HETATM    1  C   UNL     1      30.967  43.989  55.952  1.00  0.00     0.001 A 
HETATM    2  C   UNL     1      30.377  43.072  55.085  1.00  0.00     0.017 A 
HETATM    3  C   UNL     1      29.136  43.362  54.464  1.00  0.00     0.033 A 
HETATM    4  C   UNL     1      28.491  44.574  54.727  1.00  0.00     0.072 A 
HETATM    5  N   UNL     1      27.310  44.894  54.185  1.00  0.00    -0.232 NA
HETATM    6  C   UNL     1      26.730  43.992  53.371  1.00  0.00     0.138 A 
HETATM    7  N   UNL     1      27.265  42.797  53.054  1.00  0.00    -0.220 NA
HETATM    8  C   UNL     1      28.461  42.511  53.585  1.00  0.00     0.115 A 
HETATM    9  C   UNL     1      29.102  45.474  55.592  1.00  0.00     0.032 A 
HETATM   10  C   UNL     1      30.328  45.195  56.204  1.00  0.00     0.002 A 
ENDROOT
BRANCH   6  11
HETATM   11  C   UNL     1      25.366  44.326  52.818  1.00  0.00     0.163 C 
BRANCH  11  12
HETATM   12  S   UNL     1      25.453  45.260  51.255  1.00  0.00    -0.082 SA
BRANCH  12  13
HETATM   13  C   UNL     1      25.911  43.991  50.172  1.00  0.00     0.192 A 
HETATM   14  N   UNL     1      25.089  43.034  49.620  1.00  0.00    -0.305 N 
HETATM   15  C   UNL     1      25.925  42.239  48.860  1.00  0.00     0.154 A 
HETATM   16  N   UNL     1      27.155  42.713  48.927  1.00  0.00    -0.132 NA
HETATM   17  N   UNL     1      27.142  43.805  49.750  1.00  0.00    -0.123 NA
BRANCH  14  18
HETATM   18  C   UNL     1      23.652  42.823  49.711  1.00  0.00     0.094 A 
HETATM   19  C   UNL     1      22.657  43.921  50.031  1.00  0.00     0.028 A 
HETATM   20  C   UNL     1      22.657  43.305  48.673  1.00  0.00     0.028 A 
ENDBRANCH  14  18
BRANCH  15  21
HETATM   21  C   UNL     1      25.508  41.054  48.070  1.00  0.00     0.244 C 
BRANCH  21  22
HETATM   22  O   UNL     1      25.850  41.273  46.703  1.00  0.00    -0.393 OA
HETATM   23  H   UNL     1      26.171  40.418  46.353  1.00  0.00     0.209 HD
ENDBRANCH  21  22
ENDBRANCH  15  21
ENDBRANCH  12  13
ENDBRANCH  11  12
ENDBRANCH   6  11
BRANCH   8  24
HETATM   24  N   UNL     1      28.988  41.269  53.207  1.00  0.00    -0.286 NA
HETATM   25  H   UNL     1      29.368  40.846  54.050  1.00  0.00     0.125 HD
HETATM   26  H   UNL     1      28.272  40.685  52.790  1.00  0.00     0.125 HD
ENDBRANCH   8  24
TORSDOF 7
ENDMDL
MODEL 10
REMARK VINA RESULT:      -7.1     11.484     13.692
REMARK  7 active torsions:
REMARK  status: ('A' for Active; 'I' for Inactive)
REMARK    1  A    between atoms: C_6  and  C_7 
REMARK    2  A    between atoms: C_7  and  S_8 
REMARK    3  A    between atoms: S_8  and  C_9 
REMARK    4  A    between atoms: N_10  and  C_11 
REMARK    5  A    between atoms: C_14  and  C_15 
REMARK    6  A    between atoms: C_15  and  O_16 
REMARK    7  A    between atoms: C_20  and  N_21 
ROOT
HETATM    1  C   UNL     1      26.838  47.293  38.498  1.00  0.00     0.001 A 
HETATM    2  C   UNL     1      27.348  47.557  39.767  1.00  0.00     0.017 A 
HETATM    3  C   UNL     1      27.600  48.888  40.181  1.00  0.00     0.033 A 
HETATM    4  C   UNL     1      27.341  49.950  39.309  1.00  0.00     0.072 A 
HETATM    5  N   UNL     1      27.576  51.226  39.638  1.00  0.00    -0.232 NA
HETATM    6  C   UNL     1      28.097  51.473  40.855  1.00  0.00     0.138 A 
HETATM    7  N   UNL     1      28.384  50.525  41.767  1.00  0.00    -0.220 NA
HETATM    8  C   UNL     1      28.113  49.258  41.427  1.00  0.00     0.115 A 
HETATM    9  C   UNL     1      26.828  49.662  38.050  1.00  0.00     0.032 A 
HETATM   10  C   UNL     1      26.574  48.350  37.638  1.00  0.00     0.002 A 
ENDROOT
BRANCH   6  11
HETATM   11  C   UNL     1      28.427  52.906  41.195  1.00  0.00     0.163 C 
BRANCH  11  12
HETATM   12  S   UNL     1      29.869  53.531  40.271  1.00  0.00    -0.082 SA
BRANCH  12  13
HETATM   13  C   UNL     1      31.130  52.630  41.039  1.00  0.00     0.192 A 
HETATM   14  N   UNL     1      31.869  51.604  40.494  1.00  0.00    -0.305 N 
HETATM   15  C   UNL     1      32.717  51.196  41.506  1.00  0.00     0.154 A 
HETATM   16  N   UNL     1      32.521  51.953  42.569  1.00  0.00    -0.132 NA
HETATM   17  N   UNL     1      31.527  52.845  42.275  1.00  0.00    -0.123 NA
BRANCH  14  18
HETATM   18  C   UNL     1      31.875  51.017  39.162  1.00  0.00     0.094 A 
HETATM   19  C   UNL     1      31.059  49.800  38.774  1.00  0.00     0.028 A 
HETATM   20  C   UNL     1      30.721  51.127  38.183  1.00  0.00     0.028 A 
ENDBRANCH  14  18
BRANCH  15  21
HETATM   21  C   UNL     1      33.712  50.099  41.409  1.00  0.00     0.244 C 
BRANCH  21  22
HETATM   22  O   UNL     1      33.179  48.941  42.047  1.00  0.00    -0.393 OA
HETATM   23  H   UNL     1      33.755  48.751  42.814  1.00  0.00     0.209 HD
ENDBRANCH  21  22
ENDBRANCH  15  21
ENDBRANCH  12  13
ENDBRANCH  11  12
ENDBRANCH   6  11
BRANCH   8  24
HETATM   24  N   UNL     1      28.405  48.311  42.417  1.00  0.00    -0.286 NA
HETATM   25  H   UNL     1      29.229  47.804  42.102  1.00  0.00     0.125 HD
HETATM   26  H   UNL     1      28.567  48.760  43.311  1.00  0.00     0.125 HD
ENDBRANCH   8  24
TORSDOF 7
ENDMDL
