MODEL 1
REMARK VINA RESULT:      -9.0      0.000      0.000
REMARK  7 active torsions:
REMARK  status: ('A' for Active; 'I' for Inactive)
REMARK    1  A    between atoms: C_2  and  O_3 
REMARK    2  A    between atoms: O_3  and  C_4 
REMARK       I    between atoms: C_4  and  N_5 
REMARK       I    between atoms: N_8  and  C_9 
REMARK    3  A    between atoms: C_9  and  C_10 
REMARK    4  A    between atoms: C_11  and  N_12 
REMARK       I    between atoms: N_12  and  C_13 
REMARK    5  A    between atoms: C_13  and  C_14 
REMARK    6  A    between atoms: N_16  and  C_17 
REMARK    7  A    between atoms: C_18  and  O_19 
ROOT
HETATM    1  C   UNL     1      21.007  45.250  47.094  1.00  0.00     0.059 A 
HETATM    2  C   UNL     1      22.047  44.352  47.428  1.00  0.00     0.050 A 
HETATM    3  C   UNL     1      22.986  44.040  46.442  1.00  0.00     0.030 A 
HETATM    4  C   UNL     1      22.894  44.596  45.159  1.00  0.00     0.002 A 
HETATM    5  C   UNL     1      21.846  45.451  44.831  1.00  0.00     0.001 A 
HETATM    6  C   UNL     1      20.893  45.767  45.794  1.00  0.00     0.019 A 
ENDROOT
BRANCH   2   7
HETATM    7  N   UNL     1      22.030  43.735  48.698  1.00  0.00    -0.326 N 
HETATM    8  C   UNL     1      22.877  43.718  49.764  1.00  0.00     0.228 C 
HETATM    9  O   UNL     1      22.690  42.863  50.634  1.00  0.00    -0.273 OA
HETATM   10  H   UNL     1      21.235  43.106  48.847  1.00  0.00     0.169 HD
BRANCH   8  11
HETATM   11  C   UNL     1      23.953  44.768  49.936  1.00  0.00     0.105 C 
HETATM   12  C   UNL     1      24.386  44.822  51.399  1.00  0.00     0.147 C 
HETATM   13  N   UNL     1      25.780  45.192  51.356  1.00  0.00    -0.315 N 
HETATM   14  C   UNL     1      26.321  44.993  50.085  1.00  0.00     0.225 C 
HETATM   15  O   UNL     1      27.434  45.277  49.665  1.00  0.00    -0.273 OA
HETATM   16  C   UNL     1      25.241  44.405  49.211  1.00  0.00     0.119 C 
BRANCH  13  17
HETATM   17  C   UNL     1      26.519  45.434  52.547  1.00  0.00     0.071 A 
HETATM   18  C   UNL     1      27.413  44.491  53.096  1.00  0.00     0.095 A 
HETATM   19  C   UNL     1      28.134  44.808  54.255  1.00  0.00     0.039 A 
HETATM   20  C   UNL     1      27.962  46.041  54.886  1.00  0.00     0.009 A 
HETATM   21  C   UNL     1      27.044  46.965  54.388  1.00  0.00    -0.060 A 
HETATM   22  C   UNL     1      26.841  48.290  55.063  1.00  0.00     0.048 C 
HETATM   23  C   UNL     1      26.334  46.655  53.219  1.00  0.00     0.039 A 
BRANCH  18  24
HETATM   24  O   UNL     1      27.412  43.226  52.562  1.00  0.00    -0.354 OA
HETATM   25  C   UNL     1      28.683  42.665  52.258  1.00  0.00     0.210 C 
ENDBRANCH  18  24
ENDBRANCH  13  17
ENDBRANCH   8  11
ENDBRANCH   2   7
BRANCH   1  26
HETATM   26  C   UNL     1      19.991  45.630  48.107  1.00  0.00     0.256 C 
HETATM   27  N   UNL     1      19.976  46.925  48.620  1.00  0.00    -0.345 N 
HETATM   28  C   UNL     1      21.109  47.859  48.614  1.00  0.00     0.146 C 
HETATM   29  C   UNL     1      18.935  47.278  49.589  1.00  0.00     0.146 C 
HETATM   30  C   UNL     1      20.636  49.292  48.357  1.00  0.00     0.148 C 
HETATM   31  N   UNL     1      19.536  49.687  49.237  1.00  0.00    -0.325 N 
HETATM   32  C   UNL     1      19.326  51.044  49.432  1.00  0.00     0.362 C 
HETATM   33  C   UNL     1      18.443  48.718  49.389  1.00  0.00     0.148 C 
HETATM   34  O   UNL     1      20.104  51.912  49.055  1.00  0.00    -0.238 OA
HETATM   35  O   UNL     1      19.193  44.762  48.456  1.00  0.00    -0.267 OA
BRANCH  32  36
HETATM   36  O   UNL     1      18.159  51.300  50.082  1.00  0.00    -0.304 OA
BRANCH  36  37
HETATM   37  C   UNL     1      17.388  52.404  49.591  1.00  0.00     0.176 C 
HETATM   38  C   UNL     1      15.917  52.033  49.570  1.00  0.00     0.034 C 
ENDBRANCH  36  37
ENDBRANCH  32  36
ENDBRANCH   1  26
TORSDOF 7
ENDMDL
MODEL 2
REMARK VINA RESULT:      -8.9      2.520      3.886
REMARK  7 active torsions:
REMARK  status: ('A' for Active; 'I' for Inactive)
REMARK    1  A    between atoms: C_2  and  O_3 
REMARK    2  A    between atoms: O_3  and  C_4 
REMARK       I    between atoms: C_4  and  N_5 
REMARK       I    between atoms: N_8  and  C_9 
REMARK    3  A    between atoms: C_9  and  C_10 
REMARK    4  A    between atoms: C_11  and  N_12 
REMARK       I    between atoms: N_12  and  C_13 
REMARK    5  A    between atoms: C_13  and  C_14 
REMARK    6  A    between atoms: N_16  and  C_17 
REMARK    7  A    between atoms: C_18  and  O_19 
ROOT
HETATM    1  C   UNL     1      24.062  48.073  49.108  1.00  0.00     0.059 A 
HETATM    2  C   UNL     1      24.843  47.407  50.080  1.00  0.00     0.050 A 
HETATM    3  C   UNL     1      26.165  47.825  50.257  1.00  0.00     0.030 A 
HETATM    4  C   UNL     1      26.699  48.868  49.490  1.00  0.00     0.002 A 
HETATM    5  C   UNL     1      25.931  49.493  48.512  1.00  0.00     0.001 A 
HETATM    6  C   UNL     1      24.616  49.086  48.309  1.00  0.00     0.019 A 
ENDROOT
BRANCH   2   7
HETATM    7  N   UNL     1      24.292  46.291  50.746  1.00  0.00    -0.326 N 
HETATM    8  C   UNL     1      24.789  45.106  51.199  1.00  0.00     0.228 C 
HETATM    9  O   UNL     1      23.982  44.227  51.512  1.00  0.00    -0.273 OA
HETATM   10  H   UNL     1      23.277  46.340  50.875  1.00  0.00     0.169 HD
BRANCH   8  11
HETATM   11  C   UNL     1      26.273  44.899  51.407  1.00  0.00     0.105 C 
HETATM   12  C   UNL     1      26.685  45.472  52.761  1.00  0.00     0.147 C 
HETATM   13  N   UNL     1      27.773  44.632  53.199  1.00  0.00    -0.315 N 
HETATM   14  C   UNL     1      27.810  43.432  52.487  1.00  0.00     0.225 C 
HETATM   15  O   UNL     1      28.637  42.532  52.529  1.00  0.00    -0.273 OA
HETATM   16  C   UNL     1      26.643  43.427  51.530  1.00  0.00     0.119 C 
BRANCH  13  17
HETATM   17  C   UNL     1      28.489  44.913  54.396  1.00  0.00     0.071 A 
HETATM   18  C   UNL     1      28.205  46.028  55.211  1.00  0.00     0.095 A 
HETATM   19  C   UNL     1      28.927  46.226  56.396  1.00  0.00     0.039 A 
HETATM   20  C   UNL     1      29.942  45.343  56.768  1.00  0.00     0.009 A 
HETATM   21  C   UNL     1      30.273  44.264  55.948  1.00  0.00    -0.060 A 
HETATM   22  C   UNL     1      31.368  43.313  56.329  1.00  0.00     0.048 C 
HETATM   23  C   UNL     1      29.539  44.056  54.771  1.00  0.00     0.039 A 
BRANCH  18  24
HETATM   24  O   UNL     1      27.339  46.973  54.720  1.00  0.00    -0.354 OA
HETATM   25  C   UNL     1      26.916  47.980  55.630  1.00  0.00     0.210 C 
ENDBRANCH  18  24
ENDBRANCH  13  17
ENDBRANCH   8  11
ENDBRANCH   2   7
BRANCH   1  26
HETATM   26  C   UNL     1      22.647  47.682  48.887  1.00  0.00     0.256 C 
HETATM   27  N   UNL     1      21.646  48.648  48.939  1.00  0.00    -0.345 N 
HETATM   28  C   UNL     1      21.749  49.949  49.613  1.00  0.00     0.146 C 
HETATM   29  C   UNL     1      20.265  48.235  48.678  1.00  0.00     0.146 C 
HETATM   30  C   UNL     1      21.031  51.040  48.811  1.00  0.00     0.148 C 
HETATM   31  N   UNL     1      19.667  50.659  48.443  1.00  0.00    -0.325 N 
HETATM   32  C   UNL     1      18.778  51.679  48.137  1.00  0.00     0.362 C 
HETATM   33  C   UNL     1      19.492  49.307  47.896  1.00  0.00     0.148 C 
HETATM   34  O   UNL     1      19.016  52.866  48.324  1.00  0.00    -0.238 OA
HETATM   35  O   UNL     1      22.420  46.493  48.668  1.00  0.00    -0.267 OA
BRANCH  32  36
HETATM   36  O   UNL     1      17.619  51.212  47.601  1.00  0.00    -0.304 OA
BRANCH  36  37
HETATM   37  C   UNL     1      17.181  51.839  46.388  1.00  0.00     0.176 C 
HETATM   38  C   UNL     1      15.774  52.377  46.567  1.00  0.00     0.034 C 
ENDBRANCH  36  37
ENDBRANCH  32  36
ENDBRANCH   1  26
TORSDOF 7
ENDMDL
MODEL 3
REMARK VINA RESULT:      -8.5      2.237      3.543
REMARK  7 active torsions:
REMARK  status: ('A' for Active; 'I' for Inactive)
REMARK    1  A    between atoms: C_2  and  O_3 
REMARK    2  A    between atoms: O_3  and  C_4 
REMARK       I    between atoms: C_4  and  N_5 
REMARK       I    between atoms: N_8  and  C_9 
REMARK    3  A    between atoms: C_9  and  C_10 
REMARK    4  A    between atoms: C_11  and  N_12 
REMARK       I    between atoms: N_12  and  C_13 
REMARK    5  A    between atoms: C_13  and  C_14 
REMARK    6  A    between atoms: N_16  and  C_17 
REMARK    7  A    between atoms: C_18  and  O_19 
ROOT
HETATM    1  C   UNL     1      21.668  49.098  48.340  1.00  0.00     0.059 A 
HETATM    2  C   UNL     1      22.635  48.171  48.794  1.00  0.00     0.050 A 
HETATM    3  C   UNL     1      23.976  48.562  48.778  1.00  0.00     0.030 A 
HETATM    4  C   UNL     1      24.350  49.832  48.319  1.00  0.00     0.002 A 
HETATM    5  C   UNL     1      23.393  50.722  47.841  1.00  0.00     0.001 A 
HETATM    6  C   UNL     1      22.052  50.351  47.837  1.00  0.00     0.019 A 
ENDROOT
BRANCH   2   7
HETATM    7  N   UNL     1      22.217  46.868  49.141  1.00  0.00    -0.326 N 
HETATM    8  C   UNL     1      22.844  45.666  49.272  1.00  0.00     0.228 C 
HETATM    9  O   UNL     1      22.139  44.655  49.337  1.00  0.00    -0.273 OA
HETATM   10  H   UNL     1      21.205  46.774  49.270  1.00  0.00     0.169 HD
BRANCH   8  11
HETATM   11  C   UNL     1      24.344  45.570  49.430  1.00  0.00     0.105 C 
HETATM   12  C   UNL     1      24.692  45.369  50.904  1.00  0.00     0.147 C 
HETATM   13  N   UNL     1      25.895  44.572  50.892  1.00  0.00    -0.315 N 
HETATM   14  C   UNL     1      26.090  43.962  49.652  1.00  0.00     0.225 C 
HETATM   15  O   UNL     1      27.037  43.296  49.258  1.00  0.00    -0.273 OA
HETATM   16  C   UNL     1      24.921  44.326  48.769  1.00  0.00     0.119 C 
BRANCH  13  17
HETATM   17  C   UNL     1      26.582  44.251  52.095  1.00  0.00     0.071 A 
HETATM   18  C   UNL     1      26.814  45.196  53.116  1.00  0.00     0.095 A 
HETATM   19  C   UNL     1      27.469  44.804  54.292  1.00  0.00     0.039 A 
HETATM   20  C   UNL     1      27.913  43.491  54.456  1.00  0.00     0.009 A 
HETATM   21  C   UNL     1      27.738  42.556  53.437  1.00  0.00    -0.060 A 
HETATM   22  C   UNL     1      28.220  41.144  53.594  1.00  0.00     0.048 C 
HETATM   23  C   UNL     1      27.069  42.943  52.266  1.00  0.00     0.039 A 
BRANCH  18  24
HETATM   24  O   UNL     1      26.539  46.513  52.842  1.00  0.00    -0.354 OA
HETATM   25  C   UNL     1      26.127  47.317  53.939  1.00  0.00     0.210 C 
ENDBRANCH  18  24
ENDBRANCH  13  17
ENDBRANCH   8  11
ENDBRANCH   2   7
BRANCH   1  26
HETATM   26  C   UNL     1      20.226  48.742  48.350  1.00  0.00     0.256 C 
HETATM   27  N   UNL     1      19.308  49.591  48.962  1.00  0.00    -0.345 N 
HETATM   28  C   UNL     1      19.625  50.595  49.987  1.00  0.00     0.146 C 
HETATM   29  C   UNL     1      17.890  49.230  48.920  1.00  0.00     0.146 C 
HETATM   30  C   UNL     1      18.781  51.859  49.795  1.00  0.00     0.148 C 
HETATM   31  N   UNL     1      17.354  51.565  49.661  1.00  0.00    -0.325 N 
HETATM   32  C   UNL     1      16.460  52.589  49.939  1.00  0.00     0.362 C 
HETATM   33  C   UNL     1      16.996  50.468  48.753  1.00  0.00     0.148 C 
HETATM   34  O   UNL     1      16.786  53.654  50.449  1.00  0.00    -0.238 OA
HETATM   35  O   UNL     1      19.904  47.687  47.807  1.00  0.00    -0.267 OA
BRANCH  32  36
HETATM   36  O   UNL     1      15.188  52.278  49.575  1.00  0.00    -0.304 OA
BRANCH  36  37
HETATM   37  C   UNL     1      14.141  52.865  50.359  1.00  0.00     0.176 C 
HETATM   38  C   UNL     1      13.542  54.045  49.616  1.00  0.00     0.034 C 
ENDBRANCH  36  37
ENDBRANCH  32  36
ENDBRANCH   1  26
TORSDOF 7
ENDMDL
MODEL 4
REMARK VINA RESULT:      -8.4      2.849      5.811
REMARK  7 active torsions:
REMARK  status: ('A' for Active; 'I' for Inactive)
REMARK    1  A    between atoms: C_2  and  O_3 
REMARK    2  A    between atoms: O_3  and  C_4 
REMARK       I    between atoms: C_4  and  N_5 
REMARK       I    between atoms: N_8  and  C_9 
REMARK    3  A    between atoms: C_9  and  C_10 
REMARK    4  A    between atoms: C_11  and  N_12 
REMARK       I    between atoms: N_12  and  C_13 
REMARK    5  A    between atoms: C_13  and  C_14 
REMARK    6  A    between atoms: N_16  and  C_17 
REMARK    7  A    between atoms: C_18  and  O_19 
ROOT
HETATM    1  C   UNL     1      18.919  49.589  48.947  1.00  0.00     0.059 A 
HETATM    2  C   UNL     1      20.128  49.748  48.231  1.00  0.00     0.050 A 
HETATM    3  C   UNL     1      20.639  51.041  48.087  1.00  0.00     0.030 A 
HETATM    4  C   UNL     1      19.969  52.144  48.631  1.00  0.00     0.002 A 
HETATM    5  C   UNL     1      18.761  51.978  49.303  1.00  0.00     0.001 A 
HETATM    6  C   UNL     1      18.227  50.702  49.448  1.00  0.00     0.019 A 
ENDROOT
BRANCH   2   7
HETATM    7  N   UNL     1      20.704  48.619  47.609  1.00  0.00    -0.326 N 
HETATM    8  C   UNL     1      21.909  47.990  47.697  1.00  0.00     0.228 C 
HETATM    9  O   UNL     1      22.195  47.171  46.818  1.00  0.00    -0.273 OA
HETATM   10  H   UNL     1      20.119  48.198  46.881  1.00  0.00     0.169 HD
BRANCH   8  11
HETATM   11  C   UNL     1      22.830  48.206  48.876  1.00  0.00     0.105 C 
HETATM   12  C   UNL     1      23.354  46.860  49.371  1.00  0.00     0.147 C 
HETATM   13  N   UNL     1      24.673  47.144  49.882  1.00  0.00    -0.315 N 
HETATM   14  C   UNL     1      25.145  48.374  49.419  1.00  0.00     0.225 C 
HETATM   15  O   UNL     1      26.172  48.969  49.714  1.00  0.00    -0.273 OA
HETATM   16  C   UNL     1      24.102  48.949  48.492  1.00  0.00     0.119 C 
BRANCH  13  17
HETATM   17  C   UNL     1      25.452  46.140  50.520  1.00  0.00     0.071 A 
HETATM   18  C   UNL     1      25.846  46.224  51.872  1.00  0.00     0.095 A 
HETATM   19  C   UNL     1      26.585  45.181  52.448  1.00  0.00     0.039 A 
HETATM   20  C   UNL     1      26.954  44.067  51.691  1.00  0.00     0.009 A 
HETATM   21  C   UNL     1      26.618  43.991  50.340  1.00  0.00    -0.060 A 
HETATM   22  C   UNL     1      27.019  42.806  49.512  1.00  0.00     0.048 C 
HETATM   23  C   UNL     1      25.865  45.027  49.767  1.00  0.00     0.039 A 
BRANCH  18  24
HETATM   24  O   UNL     1      25.633  47.412  52.526  1.00  0.00    -0.354 OA
HETATM   25  C   UNL     1      25.866  47.415  53.928  1.00  0.00     0.210 C 
ENDBRANCH  18  24
ENDBRANCH  13  17
ENDBRANCH   8  11
ENDBRANCH   2   7
BRANCH   1  26
HETATM   26  C   UNL     1      18.338  48.236  49.144  1.00  0.00     0.256 C 
HETATM   27  N   UNL     1      17.715  47.589  48.080  1.00  0.00    -0.345 N 
HETATM   28  C   UNL     1      17.167  48.245  46.885  1.00  0.00     0.146 C 
HETATM   29  C   UNL     1      17.188  46.240  48.297  1.00  0.00     0.146 C 
HETATM   30  C   UNL     1      17.408  47.393  45.635  1.00  0.00     0.148 C 
HETATM   31  N   UNL     1      16.979  46.005  45.810  1.00  0.00    -0.325 N 
HETATM   32  C   UNL     1      16.714  45.268  44.666  1.00  0.00     0.362 C 
HETATM   33  C   UNL     1      17.382  45.351  47.061  1.00  0.00     0.148 C 
HETATM   34  O   UNL     1      16.651  45.754  43.543  1.00  0.00    -0.238 OA
HETATM   35  O   UNL     1      18.435  47.741  50.266  1.00  0.00    -0.267 OA
BRANCH  32  36
HETATM   36  O   UNL     1      16.540  43.945  44.931  1.00  0.00    -0.304 OA
BRANCH  36  37
HETATM   37  C   UNL     1      17.255  43.029  44.091  1.00  0.00     0.176 C 
HETATM   38  C   UNL     1      18.746  43.166  44.336  1.00  0.00     0.034 C 
ENDBRANCH  36  37
ENDBRANCH  32  36
ENDBRANCH   1  26
TORSDOF 7
ENDMDL
MODEL 5
REMARK VINA RESULT:      -8.3      6.015      9.224
REMARK  7 active torsions:
REMARK  status: ('A' for Active; 'I' for Inactive)
REMARK    1  A    between atoms: C_2  and  O_3 
REMARK    2  A    between atoms: O_3  and  C_4 
REMARK       I    between atoms: C_4  and  N_5 
REMARK       I    between atoms: N_8  and  C_9 
REMARK    3  A    between atoms: C_9  and  C_10 
REMARK    4  A    between atoms: C_11  and  N_12 
REMARK       I    between atoms: N_12  and  C_13 
REMARK    5  A    between atoms: C_13  and  C_14 
REMARK    6  A    between atoms: N_16  and  C_17 
REMARK    7  A    between atoms: C_18  and  O_19 
ROOT
HETATM    1  C   UNL     1      27.076  40.193  47.853  1.00  0.00     0.059 A 
HETATM    2  C   UNL     1      27.429  41.124  48.856  1.00  0.00     0.050 A 
HETATM    3  C   UNL     1      28.199  40.671  49.930  1.00  0.00     0.030 A 
HETATM    4  C   UNL     1      28.603  39.332  50.011  1.00  0.00     0.002 A 
HETATM    5  C   UNL     1      28.219  38.416  49.035  1.00  0.00     0.001 A 
HETATM    6  C   UNL     1      27.442  38.842  47.963  1.00  0.00     0.019 A 
ENDROOT
BRANCH   2   7
HETATM    7  N   UNL     1      26.904  42.433  48.783  1.00  0.00    -0.326 N 
HETATM    8  C   UNL     1      26.231  43.243  49.648  1.00  0.00     0.228 C 
HETATM    9  O   UNL     1      25.680  44.246  49.185  1.00  0.00    -0.273 OA
HETATM   10  H   UNL     1      26.985  42.866  47.858  1.00  0.00     0.169 HD
BRANCH   8  11
HETATM   11  C   UNL     1      26.236  42.986  51.138  1.00  0.00     0.105 C 
HETATM   12  C   UNL     1      27.449  43.665  51.771  1.00  0.00     0.147 C 
HETATM   13  N   UNL     1      27.014  44.032  53.097  1.00  0.00    -0.315 N 
HETATM   14  C   UNL     1      25.622  44.009  53.202  1.00  0.00     0.225 C 
HETATM   15  O   UNL     1      24.918  44.176  54.187  1.00  0.00    -0.273 OA
HETATM   16  C   UNL     1      25.063  43.650  51.847  1.00  0.00     0.119 C 
BRANCH  13  17
HETATM   17  C   UNL     1      27.911  44.614  54.035  1.00  0.00     0.071 A 
HETATM   18  C   UNL     1      27.796  45.950  54.473  1.00  0.00     0.095 A 
HETATM   19  C   UNL     1      28.694  46.450  55.425  1.00  0.00     0.039 A 
HETATM   20  C   UNL     1      29.717  45.645  55.932  1.00  0.00     0.009 A 
HETATM   21  C   UNL     1      29.878  44.339  55.472  1.00  0.00    -0.060 A 
HETATM   22  C   UNL     1      30.979  43.466  55.998  1.00  0.00     0.048 C 
HETATM   23  C   UNL     1      28.969  43.833  54.531  1.00  0.00     0.039 A 
BRANCH  18  24
HETATM   24  O   UNL     1      26.906  46.762  53.815  1.00  0.00    -0.354 OA
HETATM   25  C   UNL     1      26.192  47.698  54.613  1.00  0.00     0.210 C 
ENDBRANCH  18  24
ENDBRANCH  13  17
ENDBRANCH   8  11
ENDBRANCH   2   7
BRANCH   1  26
HETATM   26  C   UNL     1      26.271  40.623  46.681  1.00  0.00     0.256 C 
HETATM   27  N   UNL     1      26.894  40.827  45.452  1.00  0.00    -0.345 N 
HETATM   28  C   UNL     1      28.325  41.093  45.254  1.00  0.00     0.146 C 
HETATM   29  C   UNL     1      26.066  41.212  44.307  1.00  0.00     0.146 C 
HETATM   30  C   UNL     1      28.841  40.397  43.991  1.00  0.00     0.148 C 
HETATM   31  N   UNL     1      28.010  40.672  42.819  1.00  0.00    -0.325 N 
HETATM   32  C   UNL     1      28.587  40.501  41.569  1.00  0.00     0.362 C 
HETATM   33  C   UNL     1      26.558  40.559  43.008  1.00  0.00     0.148 C 
HETATM   34  O   UNL     1      29.784  40.305  41.396  1.00  0.00    -0.238 OA
HETATM   35  O   UNL     1      25.065  40.785  46.856  1.00  0.00    -0.267 OA
BRANCH  32  36
HETATM   36  O   UNL     1      27.675  40.568  40.563  1.00  0.00    -0.304 OA
BRANCH  36  37
HETATM   37  C   UNL     1      27.803  41.676  39.662  1.00  0.00     0.176 C 
HETATM   38  C   UNL     1      26.499  42.451  39.614  1.00  0.00     0.034 C 
ENDBRANCH  36  37
ENDBRANCH  32  36
ENDBRANCH   1  26
TORSDOF 7
ENDMDL
MODEL 6
REMARK VINA RESULT:      -8.2      3.133     10.707
REMARK  7 active torsions:
REMARK  status: ('A' for Active; 'I' for Inactive)
REMARK    1  A    between atoms: C_2  and  O_3 
REMARK    2  A    between atoms: O_3  and  C_4 
REMARK       I    between atoms: C_4  and  N_5 
REMARK       I    between atoms: N_8  and  C_9 
REMARK    3  A    between atoms: C_9  and  C_10 
REMARK    4  A    between atoms: C_11  and  N_12 
REMARK       I    between atoms: N_12  and  C_13 
REMARK    5  A    between atoms: C_13  and  C_14 
REMARK    6  A    between atoms: N_16  and  C_17 
REMARK    7  A    between atoms: C_18  and  O_19 
ROOT
HETATM    1  C   UNL     1      23.255  48.516  48.843  1.00  0.00     0.059 A 
HETATM    2  C   UNL     1      22.057  49.242  49.036  1.00  0.00     0.050 A 
HETATM    3  C   UNL     1      22.059  50.604  48.726  1.00  0.00     0.030 A 
HETATM    4  C   UNL     1      23.215  51.231  48.244  1.00  0.00     0.002 A 
HETATM    5  C   UNL     1      24.398  50.514  48.092  1.00  0.00     0.001 A 
HETATM    6  C   UNL     1      24.424  49.159  48.405  1.00  0.00     0.019 A 
ENDROOT
BRANCH   2   7
HETATM    7  N   UNL     1      20.955  48.588  49.627  1.00  0.00    -0.326 N 
HETATM    8  C   UNL     1      19.656  48.925  49.863  1.00  0.00     0.228 C 
HETATM    9  O   UNL     1      19.010  48.218  50.641  1.00  0.00    -0.273 OA
HETATM   10  H   UNL     1      21.177  47.672  50.029  1.00  0.00     0.169 HD
BRANCH   8  11
HETATM   11  C   UNL     1      18.991  50.067  49.128  1.00  0.00     0.105 C 
HETATM   12  C   UNL     1      18.260  49.529  47.900  1.00  0.00     0.147 C 
HETATM   13  N   UNL     1      17.127  50.407  47.732  1.00  0.00    -0.315 N 
HETATM   14  C   UNL     1      16.877  51.143  48.891  1.00  0.00     0.225 C 
HETATM   15  O   UNL     1      16.062  52.035  49.080  1.00  0.00    -0.273 OA
HETATM   16  C   UNL     1      17.872  50.708  49.939  1.00  0.00     0.119 C 
BRANCH  13  17
HETATM   17  C   UNL     1      16.248  50.277  46.622  1.00  0.00     0.071 A 
HETATM   18  C   UNL     1      16.292  51.142  45.509  1.00  0.00     0.095 A 
HETATM   19  C   UNL     1      15.418  50.936  44.432  1.00  0.00     0.039 A 
HETATM   20  C   UNL     1      14.488  49.894  44.458  1.00  0.00     0.009 A 
HETATM   21  C   UNL     1      14.396  49.061  45.573  1.00  0.00    -0.060 A 
HETATM   22  C   UNL     1      13.394  47.945  45.620  1.00  0.00     0.048 C 
HETATM   23  C   UNL     1      15.281  49.257  46.643  1.00  0.00     0.039 A 
BRANCH  18  24
HETATM   24  O   UNL     1      17.080  52.262  45.602  1.00  0.00    -0.354 OA
HETATM   25  C   UNL     1      16.986  53.195  44.533  1.00  0.00     0.210 C 
ENDBRANCH  18  24
ENDBRANCH  13  17
ENDBRANCH   8  11
ENDBRANCH   2   7
BRANCH   1  26
HETATM   26  C   UNL     1      23.307  47.062  49.141  1.00  0.00     0.256 C 
HETATM   27  N   UNL     1      24.244  46.576  50.049  1.00  0.00    -0.345 N 
HETATM   28  C   UNL     1      25.488  47.253  50.438  1.00  0.00     0.146 C 
HETATM   29  C   UNL     1      24.242  45.142  50.350  1.00  0.00     0.146 C 
HETATM   30  C   UNL     1      25.784  47.042  51.926  1.00  0.00     0.148 C 
HETATM   31  N   UNL     1      25.718  45.634  52.317  1.00  0.00    -0.325 N 
HETATM   32  C   UNL     1      26.389  45.257  53.471  1.00  0.00     0.362 C 
HETATM   33  C   UNL     1      24.559  44.875  51.829  1.00  0.00     0.148 C 
HETATM   34  O   UNL     1      27.164  45.988  54.075  1.00  0.00    -0.238 OA
HETATM   35  O   UNL     1      22.503  46.339  48.555  1.00  0.00    -0.267 OA
BRANCH  32  36
HETATM   36  O   UNL     1      26.083  43.990  53.858  1.00  0.00    -0.304 OA
BRANCH  36  37
HETATM   37  C   UNL     1      27.188  43.152  54.222  1.00  0.00     0.176 C 
HETATM   38  C   UNL     1      27.943  42.727  52.976  1.00  0.00     0.034 C 
ENDBRANCH  36  37
ENDBRANCH  32  36
ENDBRANCH   1  26
TORSDOF 7
ENDMDL
MODEL 7
REMARK VINA RESULT:      -8.1      2.356      3.064
REMARK  7 active torsions:
REMARK  status: ('A' for Active; 'I' for Inactive)
REMARK    1  A    between atoms: C_2  and  O_3 
REMARK    2  A    between atoms: O_3  and  C_4 
REMARK       I    between atoms: C_4  and  N_5 
REMARK       I    between atoms: N_8  and  C_9 
REMARK    3  A    between atoms: C_9  and  C_10 
REMARK    4  A    between atoms: C_11  and  N_12 
REMARK       I    between atoms: N_12  and  C_13 
REMARK    5  A    between atoms: C_13  and  C_14 
REMARK    6  A    between atoms: N_16  and  C_17 
REMARK    7  A    between atoms: C_18  and  O_19 
ROOT
HETATM    1  C   UNL     1      22.362  48.849  48.551  1.00  0.00     0.059 A 
HETATM    2  C   UNL     1      23.335  48.019  49.153  1.00  0.00     0.050 A 
HETATM    3  C   UNL     1      24.662  48.457  49.150  1.00  0.00     0.030 A 
HETATM    4  C   UNL     1      25.016  49.678  48.562  1.00  0.00     0.002 A 
HETATM    5  C   UNL     1      24.054  50.469  47.940  1.00  0.00     0.001 A 
HETATM    6  C   UNL     1      22.728  50.049  47.921  1.00  0.00     0.019 A 
ENDROOT
BRANCH   2   7
HETATM    7  N   UNL     1      22.943  46.750  49.633  1.00  0.00    -0.326 N 
HETATM    8  C   UNL     1      23.595  45.581  49.887  1.00  0.00     0.228 C 
HETATM    9  O   UNL     1      22.912  44.568  50.056  1.00  0.00    -0.273 OA
HETATM   10  H   UNL     1      21.933  46.648  49.770  1.00  0.00     0.169 HD
BRANCH   8  11
HETATM   11  C   UNL     1      25.097  45.534  50.055  1.00  0.00     0.105 C 
HETATM   12  C   UNL     1      25.439  45.159  51.496  1.00  0.00     0.147 C 
HETATM   13  N   UNL     1      26.679  44.426  51.399  1.00  0.00    -0.315 N 
HETATM   14  C   UNL     1      26.915  43.993  50.094  1.00  0.00     0.225 C 
HETATM   15  O   UNL     1      27.895  43.427  49.632  1.00  0.00    -0.273 OA
HETATM   16  C   UNL     1      25.739  44.414  49.247  1.00  0.00     0.119 C 
BRANCH  13  17
HETATM   17  C   UNL     1      27.368  43.983  52.561  1.00  0.00     0.071 A 
HETATM   18  C   UNL     1      27.567  42.618  52.857  1.00  0.00     0.095 A 
HETATM   19  C   UNL     1      28.286  42.252  54.004  1.00  0.00     0.039 A 
HETATM   20  C   UNL     1      28.790  43.224  54.869  1.00  0.00     0.009 A 
HETATM   21  C   UNL     1      28.559  44.576  54.621  1.00  0.00    -0.060 A 
HETATM   22  C   UNL     1      29.086  45.632  55.548  1.00  0.00     0.048 C 
HETATM   23  C   UNL     1      27.854  44.944  53.465  1.00  0.00     0.039 A 
BRANCH  18  24
HETATM   24  O   UNL     1      26.896  41.696  52.094  1.00  0.00    -0.354 OA
HETATM   25  C   UNL     1      27.655  40.590  51.622  1.00  0.00     0.210 C 
ENDBRANCH  18  24
ENDBRANCH  13  17
ENDBRANCH   8  11
ENDBRANCH   2   7
BRANCH   1  26
HETATM   26  C   UNL     1      20.933  48.442  48.539  1.00  0.00     0.256 C 
HETATM   27  N   UNL     1      19.967  49.294  49.068  1.00  0.00    -0.345 N 
HETATM   28  C   UNL     1      20.216  50.370  50.037  1.00  0.00     0.146 C 
HETATM   29  C   UNL     1      18.564  48.879  49.005  1.00  0.00     0.146 C 
HETATM   30  C   UNL     1      19.335  51.587  49.740  1.00  0.00     0.148 C 
HETATM   31  N   UNL     1      17.924  51.234  49.582  1.00  0.00    -0.325 N 
HETATM   32  C   UNL     1      16.987  52.240  49.767  1.00  0.00     0.362 C 
HETATM   33  C   UNL     1      17.634  50.071  48.734  1.00  0.00     0.148 C 
HETATM   34  O   UNL     1      17.258  53.346  50.218  1.00  0.00    -0.238 OA
HETATM   35  O   UNL     1      20.666  47.344  48.054  1.00  0.00    -0.267 OA
BRANCH  32  36
HETATM   36  O   UNL     1      15.738  51.862  49.384  1.00  0.00    -0.304 OA
BRANCH  36  37
HETATM   37  C   UNL     1      14.754  52.902  49.306  1.00  0.00     0.176 C 
HETATM   38  C   UNL     1      14.043  53.036  50.639  1.00  0.00     0.034 C 
ENDBRANCH  36  37
ENDBRANCH  32  36
ENDBRANCH   1  26
TORSDOF 7
ENDMDL
MODEL 8
REMARK VINA RESULT:      -7.9      3.435     10.481
REMARK  7 active torsions:
REMARK  status: ('A' for Active; 'I' for Inactive)
REMARK    1  A    between atoms: C_2  and  O_3 
REMARK    2  A    between atoms: O_3  and  C_4 
REMARK       I    between atoms: C_4  and  N_5 
REMARK       I    between atoms: N_8  and  C_9 
REMARK    3  A    between atoms: C_9  and  C_10 
REMARK    4  A    between atoms: C_11  and  N_12 
REMARK       I    between atoms: N_12  and  C_13 
REMARK    5  A    between atoms: C_13  and  C_14 
REMARK    6  A    between atoms: N_16  and  C_17 
REMARK    7  A    between atoms: C_18  and  O_19 
ROOT
HETATM    1  C   UNL     1      23.239  48.598  48.775  1.00  0.00     0.059 A 
HETATM    2  C   UNL     1      22.057  49.329  49.032  1.00  0.00     0.050 A 
HETATM    3  C   UNL     1      22.059  50.699  48.754  1.00  0.00     0.030 A 
HETATM    4  C   UNL     1      23.201  51.327  48.241  1.00  0.00     0.002 A 
HETATM    5  C   UNL     1      24.371  50.603  48.026  1.00  0.00     0.001 A 
HETATM    6  C   UNL     1      24.396  49.241  48.306  1.00  0.00     0.019 A 
ENDROOT
BRANCH   2   7
HETATM    7  N   UNL     1      20.972  48.671  49.651  1.00  0.00    -0.326 N 
HETATM    8  C   UNL     1      19.729  48.287  49.246  1.00  0.00     0.228 C 
HETATM    9  O   UNL     1      18.917  47.960  50.116  1.00  0.00    -0.273 OA
HETATM   10  H   UNL     1      21.110  48.485  50.649  1.00  0.00     0.169 HD
BRANCH   8  11
HETATM   11  C   UNL     1      19.377  48.168  47.781  1.00  0.00     0.105 C 
HETATM   12  C   UNL     1      17.925  47.718  47.638  1.00  0.00     0.147 C 
HETATM   13  N   UNL     1      17.468  48.333  46.415  1.00  0.00    -0.315 N 
HETATM   14  C   UNL     1      18.311  49.374  46.022  1.00  0.00     0.225 C 
HETATM   15  O   UNL     1      18.282  50.051  45.005  1.00  0.00    -0.273 OA
HETATM   16  C   UNL     1      19.390  49.514  47.068  1.00  0.00     0.119 C 
BRANCH  13  17
HETATM   17  C   UNL     1      16.172  48.069  45.893  1.00  0.00     0.071 A 
HETATM   18  C   UNL     1      15.037  48.827  46.250  1.00  0.00     0.095 A 
HETATM   19  C   UNL     1      13.794  48.533  45.672  1.00  0.00     0.039 A 
HETATM   20  C   UNL     1      13.662  47.484  44.760  1.00  0.00     0.009 A 
HETATM   21  C   UNL     1      14.762  46.691  44.436  1.00  0.00    -0.060 A 
HETATM   22  C   UNL     1      14.633  45.553  43.467  1.00  0.00     0.048 C 
HETATM   23  C   UNL     1      16.010  46.994  45.001  1.00  0.00     0.039 A 
BRANCH  18  24
HETATM   24  O   UNL     1      15.165  49.718  47.286  1.00  0.00    -0.354 OA
HETATM   25  C   UNL     1      15.247  51.093  46.933  1.00  0.00     0.210 C 
ENDBRANCH  18  24
ENDBRANCH  13  17
ENDBRANCH   8  11
ENDBRANCH   2   7
BRANCH   1  26
HETATM   26  C   UNL     1      23.288  47.137  49.037  1.00  0.00     0.256 C 
HETATM   27  N   UNL     1      24.209  46.629  49.949  1.00  0.00    -0.345 N 
HETATM   28  C   UNL     1      25.445  47.298  50.377  1.00  0.00     0.146 C 
HETATM   29  C   UNL     1      24.205  45.188  50.214  1.00  0.00     0.146 C 
HETATM   30  C   UNL     1      25.714  47.049  51.865  1.00  0.00     0.148 C 
HETATM   31  N   UNL     1      25.643  45.632  52.219  1.00  0.00    -0.325 N 
HETATM   32  C   UNL     1      26.294  45.227  53.375  1.00  0.00     0.362 C 
HETATM   33  C   UNL     1      24.495  44.884  51.690  1.00  0.00     0.148 C 
HETATM   34  O   UNL     1      27.057  45.944  54.011  1.00  0.00    -0.238 OA
HETATM   35  O   UNL     1      22.496  46.428  48.418  1.00  0.00    -0.267 OA
BRANCH  32  36
HETATM   36  O   UNL     1      25.984  43.950  53.724  1.00  0.00    -0.304 OA
BRANCH  36  37
HETATM   37  C   UNL     1      27.009  43.208  54.398  1.00  0.00     0.176 C 
HETATM   38  C   UNL     1      27.911  42.537  53.379  1.00  0.00     0.034 C 
ENDBRANCH  36  37
ENDBRANCH  32  36
ENDBRANCH   1  26
TORSDOF 7
ENDMDL
MODEL 9
REMARK VINA RESULT:      -7.9      2.696      6.468
REMARK  7 active torsions:
REMARK  status: ('A' for Active; 'I' for Inactive)
REMARK    1  A    between atoms: C_2  and  O_3 
REMARK    2  A    between atoms: O_3  and  C_4 
REMARK       I    between atoms: C_4  and  N_5 
REMARK       I    between atoms: N_8  and  C_9 
REMARK    3  A    between atoms: C_9  and  C_10 
REMARK    4  A    between atoms: C_11  and  N_12 
REMARK       I    between atoms: N_12  and  C_13 
REMARK    5  A    between atoms: C_13  and  C_14 
REMARK    6  A    between atoms: N_16  and  C_17 
REMARK    7  A    between atoms: C_18  and  O_19 
ROOT
HETATM    1  C   UNL     1      19.503  48.366  48.222  1.00  0.00     0.059 A 
HETATM    2  C   UNL     1      20.486  49.264  48.695  1.00  0.00     0.050 A 
HETATM    3  C   UNL     1      20.362  49.743  50.002  1.00  0.00     0.030 A 
HETATM    4  C   UNL     1      19.291  49.348  50.815  1.00  0.00     0.002 A 
HETATM    5  C   UNL     1      18.310  48.491  50.325  1.00  0.00     0.001 A 
HETATM    6  C   UNL     1      18.406  48.010  49.024  1.00  0.00     0.019 A 
ENDROOT
BRANCH   2   7
HETATM    7  N   UNL     1      21.481  49.716  47.801  1.00  0.00    -0.326 N 
HETATM    8  C   UNL     1      22.809  50.000  47.912  1.00  0.00     0.228 C 
HETATM    9  O   UNL     1      23.341  50.628  46.993  1.00  0.00    -0.273 OA
HETATM   10  H   UNL     1      21.131  49.944  46.866  1.00  0.00     0.169 HD
BRANCH   8  11
HETATM   11  C   UNL     1      23.633  49.482  49.069  1.00  0.00     0.105 C 
HETATM   12  C   UNL     1      23.336  48.000  49.288  1.00  0.00     0.147 C 
HETATM   13  N   UNL     1      24.573  47.447  49.783  1.00  0.00    -0.315 N 
HETATM   14  C   UNL     1      25.650  48.298  49.530  1.00  0.00     0.225 C 
HETATM   15  O   UNL     1      26.817  48.195  49.881  1.00  0.00    -0.273 OA
HETATM   16  C   UNL     1      25.127  49.492  48.770  1.00  0.00     0.119 C 
BRANCH  13  17
HETATM   17  C   UNL     1      24.664  46.088  50.194  1.00  0.00     0.071 A 
HETATM   18  C   UNL     1      24.872  45.709  51.536  1.00  0.00     0.095 A 
HETATM   19  C   UNL     1      24.918  44.350  51.876  1.00  0.00     0.039 A 
HETATM   20  C   UNL     1      24.780  43.365  50.897  1.00  0.00     0.009 A 
HETATM   21  C   UNL     1      24.626  43.721  49.557  1.00  0.00    -0.060 A 
HETATM   22  C   UNL     1      24.488  42.673  48.492  1.00  0.00     0.048 C 
HETATM   23  C   UNL     1      24.564  45.080  49.218  1.00  0.00     0.039 A 
BRANCH  18  24
HETATM   24  O   UNL     1      25.194  46.695  52.435  1.00  0.00    -0.354 OA
HETATM   25  C   UNL     1      26.334  46.462  53.252  1.00  0.00     0.210 C 
ENDBRANCH  18  24
ENDBRANCH  13  17
ENDBRANCH   8  11
ENDBRANCH   2   7
BRANCH   1  26
HETATM   26  C   UNL     1      19.593  47.812  46.847  1.00  0.00     0.256 C 
HETATM   27  N   UNL     1      20.172  46.563  46.641  1.00  0.00    -0.345 N 
HETATM   28  C   UNL     1      21.105  45.892  47.557  1.00  0.00     0.146 C 
HETATM   29  C   UNL     1      20.210  46.029  45.277  1.00  0.00     0.146 C 
HETATM   30  C   UNL     1      20.848  44.383  47.590  1.00  0.00     0.148 C 
HETATM   31  N   UNL     1      20.790  43.793  46.253  1.00  0.00    -0.325 N 
HETATM   32  C   UNL     1      21.022  42.430  46.142  1.00  0.00     0.362 C 
HETATM   33  C   UNL     1      19.983  44.511  45.258  1.00  0.00     0.148 C 
HETATM   34  O   UNL     1      21.436  41.735  47.062  1.00  0.00    -0.238 OA
HETATM   35  O   UNL     1      19.144  48.502  45.933  1.00  0.00    -0.267 OA
BRANCH  32  36
HETATM   36  O   UNL     1      20.729  41.954  44.903  1.00  0.00    -0.304 OA
BRANCH  36  37
HETATM   37  C   UNL     1      19.896  40.788  44.850  1.00  0.00     0.176 C 
HETATM   38  C   UNL     1      19.002  40.851  43.626  1.00  0.00     0.034 C 
ENDBRANCH  36  37
ENDBRANCH  32  36
ENDBRANCH   1  26
TORSDOF 7
ENDMDL
MODEL 10
REMARK VINA RESULT:      -7.8      3.275      8.851
REMARK  7 active torsions:
REMARK  status: ('A' for Active; 'I' for Inactive)
REMARK    1  A    between atoms: C_2  and  O_3 
REMARK    2  A    between atoms: O_3  and  C_4 
REMARK       I    between atoms: C_4  and  N_5 
REMARK       I    between atoms: N_8  and  C_9 
REMARK    3  A    between atoms: C_9  and  C_10 
REMARK    4  A    between atoms: C_11  and  N_12 
REMARK       I    between atoms: N_12  and  C_13 
REMARK    5  A    between atoms: C_13  and  C_14 
REMARK    6  A    between atoms: N_16  and  C_17 
REMARK    7  A    between atoms: C_18  and  O_19 
ROOT
HETATM    1  C   UNL     1      27.008  41.318  49.565  1.00  0.00     0.059 A 
HETATM    2  C   UNL     1      25.730  41.352  48.962  1.00  0.00     0.050 A 
HETATM    3  C   UNL     1      25.638  41.036  47.603  1.00  0.00     0.030 A 
HETATM    4  C   UNL     1      26.780  40.704  46.863  1.00  0.00     0.002 A 
HETATM    5  C   UNL     1      28.037  40.710  47.460  1.00  0.00     0.001 A 
HETATM    6  C   UNL     1      28.155  41.031  48.808  1.00  0.00     0.019 A 
ENDROOT
BRANCH   2   7
HETATM    7  N   UNL     1      24.629  41.800  49.724  1.00  0.00    -0.326 N 
HETATM    8  C   UNL     1      23.756  42.840  49.623  1.00  0.00     0.228 C 
HETATM    9  O   UNL     1      23.059  43.104  50.608  1.00  0.00    -0.273 OA
HETATM   10  H   UNL     1      24.473  41.268  50.586  1.00  0.00     0.169 HD
BRANCH   8  11
HETATM   11  C   UNL     1      23.568  43.591  48.324  1.00  0.00     0.105 C 
HETATM   12  C   UNL     1      22.358  43.032  47.580  1.00  0.00     0.147 C 
HETATM   13  N   UNL     1      21.813  44.160  46.864  1.00  0.00    -0.315 N 
HETATM   14  C   UNL     1      22.294  45.367  47.373  1.00  0.00     0.225 C 
HETATM   15  O   UNL     1      22.118  46.505  46.961  1.00  0.00    -0.273 OA
HETATM   16  C   UNL     1      23.190  45.050  48.545  1.00  0.00     0.119 C 
BRANCH  13  17
HETATM   17  C   UNL     1      20.716  44.010  45.971  1.00  0.00     0.071 A 
HETATM   18  C   UNL     1      19.376  44.184  46.375  1.00  0.00     0.095 A 
HETATM   19  C   UNL     1      18.344  44.054  45.435  1.00  0.00     0.039 A 
HETATM   20  C   UNL     1      18.626  43.733  44.106  1.00  0.00     0.009 A 
HETATM   21  C   UNL     1      19.941  43.506  43.701  1.00  0.00    -0.060 A 
HETATM   22  C   UNL     1      20.259  43.149  42.279  1.00  0.00     0.048 C 
HETATM   23  C   UNL     1      20.976  43.652  44.637  1.00  0.00     0.039 A 
BRANCH  18  24
HETATM   24  O   UNL     1      19.124  44.307  47.718  1.00  0.00    -0.354 OA
HETATM   25  C   UNL     1      18.585  45.549  48.152  1.00  0.00     0.210 C 
ENDBRANCH  18  24
ENDBRANCH  13  17
ENDBRANCH   8  11
ENDBRANCH   2   7
BRANCH   1  26
HETATM   26  C   UNL     1      27.162  41.629  51.009  1.00  0.00     0.256 C 
HETATM   27  N   UNL     1      27.055  42.945  51.449  1.00  0.00    -0.345 N 
HETATM   28  C   UNL     1      27.237  44.141  50.616  1.00  0.00     0.146 C 
HETATM   29  C   UNL     1      27.173  43.212  52.884  1.00  0.00     0.146 C 
HETATM   30  C   UNL     1      26.249  45.242  51.015  1.00  0.00     0.148 C 
HETATM   31  N   UNL     1      26.253  45.505  52.454  1.00  0.00    -0.325 N 
HETATM   32  C   UNL     1      25.778  46.736  52.882  1.00  0.00     0.362 C 
HETATM   33  C   UNL     1      26.219  44.329  53.332  1.00  0.00     0.148 C 
HETATM   34  O   UNL     1      25.522  47.665  52.126  1.00  0.00    -0.238 OA
HETATM   35  O   UNL     1      27.386  40.685  51.766  1.00  0.00    -0.267 OA
BRANCH  32  36
HETATM   36  O   UNL     1      25.622  46.790  54.232  1.00  0.00    -0.304 OA
BRANCH  36  37
HETATM   37  C   UNL     1      26.312  47.849  54.910  1.00  0.00     0.176 C 
HETATM   38  C   UNL     1      27.809  47.613  54.839  1.00  0.00     0.034 C 
ENDBRANCH  36  37
ENDBRANCH  32  36
ENDBRANCH   1  26
TORSDOF 7
ENDMDL
