MODEL 1
REMARK VINA RESULT:      -9.0      0.000      0.000
REMARK  1 active torsions:
REMARK  status: ('A' for Active; 'I' for Inactive)
REMARK    1  A    between atoms: C_5  and  N_6 
ROOT
HETATM    1  N   UNL     1      26.555  45.209  53.175  1.00  0.00    -0.320 N 
HETATM    2  C   UNL     1      25.507  44.244  53.212  1.00  0.00     0.141 C 
HETATM    3  N   UNL     1      25.060  43.718  54.315  1.00  0.00    -0.380 N 
HETATM    4  H   UNL     1      24.306  43.045  54.280  1.00  0.00     0.158 HD
HETATM    5  H   UNL     1      25.467  43.991  55.200  1.00  0.00     0.158 HD
HETATM    6  S   UNL     1      24.877  43.867  51.661  1.00  0.00    -0.086 SA
HETATM    7  C   UNL     1      26.234  44.799  50.824  1.00  0.00     0.093 C 
HETATM    8  C   UNL     1      26.688  45.864  51.853  1.00  0.00     0.121 C 
HETATM    9  C   UNL     1      25.824  45.490  49.540  1.00  0.00     0.158 C 
HETATM   10  S   UNL     1      25.295  47.120  50.003  1.00  0.00     0.147 S 
HETATM   11  O   UNL     1      23.854  47.193  49.904  1.00  0.00    -0.228 OA
HETATM   12  O   UNL     1      26.169  48.077  49.359  1.00  0.00    -0.228 OA
HETATM   13  C   UNL     1      25.735  47.052  51.719  1.00  0.00     0.167 C 
ENDROOT
BRANCH   1  14
HETATM   14  C   UNL     1      27.461  45.555  54.201  1.00  0.00     0.048 A 
HETATM   15  C   UNL     1      28.621  44.764  54.486  1.00  0.00     0.001 A 
HETATM   16  C   UNL     1      29.410  45.079  55.625  1.00  0.00    -0.024 A 
HETATM   17  C   UNL     1      29.071  43.686  53.682  1.00  0.00     0.014 A 
HETATM   18  C   UNL     1      30.525  44.293  55.959  1.00  0.00     0.012 A 
HETATM   19  C   UNL     1      29.088  46.185  56.417  1.00  0.00     0.012 A 
HETATM   20  C   UNL     1      30.904  43.210  55.171  1.00  0.00     0.001 A 
HETATM   21  C   UNL     1      30.185  42.914  54.023  1.00  0.00     0.001 A 
HETATM   22  C   UNL     1      27.999  46.989  56.103  1.00  0.00     0.003 A 
HETATM   23  C   UNL     1      27.195  46.673  55.011  1.00  0.00     0.030 A 
ENDBRANCH   1  14
TORSDOF 1
ENDMDL
MODEL 2
REMARK VINA RESULT:      -8.7      0.867      2.418
REMARK  1 active torsions:
REMARK  status: ('A' for Active; 'I' for Inactive)
REMARK    1  A    between atoms: C_5  and  N_6 
ROOT
HETATM    1  N   UNL     1      26.785  44.299  52.579  1.00  0.00    -0.320 N 
HETATM    2  C   UNL     1      25.439  44.047  52.970  1.00  0.00     0.141 C 
HETATM    3  N   UNL     1      25.108  43.618  54.154  1.00  0.00    -0.380 N 
HETATM    4  H   UNL     1      24.134  43.468  54.378  1.00  0.00     0.158 HD
HETATM    5  H   UNL     1      25.829  43.444  54.843  1.00  0.00     0.158 HD
HETATM    6  S   UNL     1      24.298  44.390  51.736  1.00  0.00    -0.086 SA
HETATM    7  C   UNL     1      25.638  44.619  50.486  1.00  0.00     0.093 C 
HETATM    8  C   UNL     1      26.884  45.044  51.302  1.00  0.00     0.121 C 
HETATM    9  C   UNL     1      25.347  45.671  49.437  1.00  0.00     0.158 C 
HETATM   10  S   UNL     1      25.991  47.198  50.075  1.00  0.00     0.147 S 
HETATM   11  O   UNL     1      24.888  48.036  50.491  1.00  0.00    -0.228 OA
HETATM   12  O   UNL     1      27.026  47.661  49.177  1.00  0.00    -0.228 OA
HETATM   13  C   UNL     1      26.780  46.553  51.526  1.00  0.00     0.167 C 
ENDROOT
BRANCH   1  14
HETATM   14  C   UNL     1      27.974  43.894  53.225  1.00  0.00     0.048 A 
HETATM   15  C   UNL     1      28.489  44.587  54.369  1.00  0.00     0.001 A 
HETATM   16  C   UNL     1      29.763  44.224  54.881  1.00  0.00    -0.024 A 
HETATM   17  C   UNL     1      27.793  45.609  55.064  1.00  0.00     0.014 A 
HETATM   18  C   UNL     1      30.317  44.917  55.970  1.00  0.00     0.012 A 
HETATM   19  C   UNL     1      30.472  43.162  54.311  1.00  0.00     0.012 A 
HETATM   20  C   UNL     1      29.623  45.951  56.593  1.00  0.00     0.001 A 
HETATM   21  C   UNL     1      28.354  46.288  56.149  1.00  0.00     0.001 A 
HETATM   22  C   UNL     1      29.943  42.450  53.242  1.00  0.00     0.003 A 
HETATM   23  C   UNL     1      28.711  42.815  52.705  1.00  0.00     0.030 A 
ENDBRANCH   1  14
TORSDOF 1
ENDMDL
MODEL 3
REMARK VINA RESULT:      -8.1      1.258      1.353
REMARK  1 active torsions:
REMARK  status: ('A' for Active; 'I' for Inactive)
REMARK    1  A    between atoms: C_5  and  N_6 
ROOT
HETATM    1  N   UNL     1      27.127  44.477  53.022  1.00  0.00    -0.320 N 
HETATM    2  C   UNL     1      26.921  43.073  52.899  1.00  0.00     0.141 C 
HETATM    3  N   UNL     1      26.991  42.250  53.906  1.00  0.00    -0.380 N 
HETATM    4  H   UNL     1      26.824  41.264  53.759  1.00  0.00     0.158 HD
HETATM    5  H   UNL     1      27.208  42.605  54.828  1.00  0.00     0.158 HD
HETATM    6  S   UNL     1      26.542  42.580  51.300  1.00  0.00    -0.086 SA
HETATM    7  C   UNL     1      26.945  44.253  50.631  1.00  0.00     0.093 C 
HETATM    8  C   UNL     1      26.715  45.227  51.813  1.00  0.00     0.121 C 
HETATM    9  C   UNL     1      26.092  44.685  49.457  1.00  0.00     0.158 C 
HETATM   10  S   UNL     1      24.699  45.542  50.146  1.00  0.00     0.147 S 
HETATM   11  O   UNL     1      23.527  44.702  50.036  1.00  0.00    -0.228 OA
HETATM   12  O   UNL     1      24.727  46.906  49.665  1.00  0.00    -0.228 OA
HETATM   13  C   UNL     1      25.221  45.554  51.841  1.00  0.00     0.167 C 
ENDROOT
BRANCH   1  14
HETATM   14  C   UNL     1      27.697  45.185  54.103  1.00  0.00     0.048 A 
HETATM   15  C   UNL     1      28.884  44.731  54.765  1.00  0.00     0.001 A 
HETATM   16  C   UNL     1      29.322  45.403  55.938  1.00  0.00    -0.024 A 
HETATM   17  C   UNL     1      29.692  43.658  54.310  1.00  0.00     0.014 A 
HETATM   18  C   UNL     1      30.453  44.952  56.637  1.00  0.00     0.012 A 
HETATM   19  C   UNL     1      28.633  46.529  56.398  1.00  0.00     0.012 A 
HETATM   20  C   UNL     1      31.190  43.861  56.185  1.00  0.00     0.001 A 
HETATM   21  C   UNL     1      30.818  43.222  55.013  1.00  0.00     0.001 A 
HETATM   22  C   UNL     1      27.520  47.007  55.720  1.00  0.00     0.003 A 
HETATM   23  C   UNL     1      27.057  46.338  54.589  1.00  0.00     0.030 A 
ENDBRANCH   1  14
TORSDOF 1
ENDMDL
MODEL 4
REMARK VINA RESULT:      -7.6     12.688     13.968
REMARK  1 active torsions:
REMARK  status: ('A' for Active; 'I' for Inactive)
REMARK    1  A    between atoms: C_5  and  N_6 
ROOT
HETATM    1  N   UNL     1      31.986  49.925  41.483  1.00  0.00    -0.320 N 
HETATM    2  C   UNL     1      32.056  48.520  41.260  1.00  0.00     0.141 C 
HETATM    3  N   UNL     1      32.699  47.704  42.044  1.00  0.00    -0.380 N 
HETATM    4  H   UNL     1      32.704  46.714  41.841  1.00  0.00     0.158 HD
HETATM    5  H   UNL     1      33.184  48.067  42.854  1.00  0.00     0.158 HD
HETATM    6  S   UNL     1      31.186  48.009  39.872  1.00  0.00    -0.086 SA
HETATM    7  C   UNL     1      30.917  49.754  39.332  1.00  0.00     0.093 C 
HETATM    8  C   UNL     1      30.973  50.594  40.633  1.00  0.00     0.121 C 
HETATM    9  C   UNL     1      29.594  50.002  38.638  1.00  0.00     0.158 C 
HETATM   10  S   UNL     1      28.443  50.454  39.911  1.00  0.00     0.147 S 
HETATM   11  O   UNL     1      27.537  49.351  40.141  1.00  0.00    -0.228 OA
HETATM   12  O   UNL     1      27.981  51.799  39.643  1.00  0.00    -0.228 OA
HETATM   13  C   UNL     1      29.583  50.532  41.267  1.00  0.00     0.167 C 
ENDROOT
BRANCH   1  14
HETATM   14  C   UNL     1      32.773  50.712  42.353  1.00  0.00     0.048 A 
HETATM   15  C   UNL     1      34.146  51.011  42.071  1.00  0.00     0.001 A 
HETATM   16  C   UNL     1      34.924  51.678  43.055  1.00  0.00    -0.024 A 
HETATM   17  C   UNL     1      34.794  50.712  40.846  1.00  0.00     0.014 A 
HETATM   18  C   UNL     1      36.285  51.941  42.830  1.00  0.00     0.012 A 
HETATM   19  C   UNL     1      34.334  52.092  44.254  1.00  0.00     0.012 A 
HETATM   20  C   UNL     1      36.897  51.585  41.632  1.00  0.00     0.001 A 
HETATM   21  C   UNL     1      36.148  50.982  40.633  1.00  0.00     0.001 A 
HETATM   22  C   UNL     1      32.987  51.858  44.498  1.00  0.00     0.003 A 
HETATM   23  C   UNL     1      32.219  51.173  43.560  1.00  0.00     0.030 A 
ENDBRANCH   1  14
TORSDOF 1
ENDMDL
MODEL 5
REMARK VINA RESULT:      -7.5     12.605     13.977
REMARK  1 active torsions:
REMARK  status: ('A' for Active; 'I' for Inactive)
REMARK    1  A    between atoms: C_5  and  N_6 
ROOT
HETATM    1  N   UNL     1      30.595  51.647  41.681  1.00  0.00    -0.320 N 
HETATM    2  C   UNL     1      29.960  52.648  40.892  1.00  0.00     0.141 C 
HETATM    3  N   UNL     1      30.528  53.777  40.577  1.00  0.00    -0.380 N 
HETATM    4  H   UNL     1      30.031  54.445  40.004  1.00  0.00     0.158 HD
HETATM    5  H   UNL     1      31.464  53.973  40.905  1.00  0.00     0.158 HD
HETATM    6  S   UNL     1      28.384  52.206  40.375  1.00  0.00    -0.086 SA
HETATM    7  C   UNL     1      28.381  50.724  41.476  1.00  0.00     0.093 C 
HETATM    8  C   UNL     1      29.873  50.353  41.661  1.00  0.00     0.121 C 
HETATM    9  C   UNL     1      27.637  49.528  40.919  1.00  0.00     0.158 C 
HETATM   10  S   UNL     1      28.833  48.576  40.017  1.00  0.00     0.147 S 
HETATM   11  O   UNL     1      28.596  48.742  38.601  1.00  0.00    -0.228 OA
HETATM   12  O   UNL     1      28.938  47.276  40.642  1.00  0.00    -0.228 OA
HETATM   13  C   UNL     1      30.278  49.506  40.454  1.00  0.00     0.167 C 
ENDROOT
BRANCH   1  14
HETATM   14  C   UNL     1      31.757  51.767  42.475  1.00  0.00     0.048 A 
HETATM   15  C   UNL     1      33.068  51.556  41.937  1.00  0.00     0.001 A 
HETATM   16  C   UNL     1      34.183  51.544  42.817  1.00  0.00    -0.024 A 
HETATM   17  C   UNL     1      33.348  51.387  40.557  1.00  0.00     0.014 A 
HETATM   18  C   UNL     1      35.475  51.290  42.327  1.00  0.00     0.012 A 
HETATM   19  C   UNL     1      34.003  51.797  44.180  1.00  0.00     0.012 A 
HETATM   20  C   UNL     1      35.701  51.077  40.971  1.00  0.00     0.001 A 
HETATM   21  C   UNL     1      34.639  51.139  40.082  1.00  0.00     0.001 A 
HETATM   22  C   UNL     1      32.739  52.065  44.691  1.00  0.00     0.003 A 
HETATM   23  C   UNL     1      31.631  52.045  43.847  1.00  0.00     0.030 A 
ENDBRANCH   1  14
TORSDOF 1
ENDMDL
MODEL 6
REMARK VINA RESULT:      -7.4      2.088      3.309
REMARK  1 active torsions:
REMARK  status: ('A' for Active; 'I' for Inactive)
REMARK    1  A    between atoms: C_5  and  N_6 
ROOT
HETATM    1  N   UNL     1      27.954  42.733  52.717  1.00  0.00    -0.320 N 
HETATM    2  C   UNL     1      27.436  41.407  52.674  1.00  0.00     0.141 C 
HETATM    3  N   UNL     1      27.352  40.639  53.723  1.00  0.00    -0.380 N 
HETATM    4  H   UNL     1      26.965  39.709  53.633  1.00  0.00     0.158 HD
HETATM    5  H   UNL     1      27.669  40.981  54.620  1.00  0.00     0.158 HD
HETATM    6  S   UNL     1      26.911  40.933  51.111  1.00  0.00    -0.086 SA
HETATM    7  C   UNL     1      27.656  42.440  50.346  1.00  0.00     0.093 C 
HETATM    8  C   UNL     1      27.683  43.497  51.477  1.00  0.00     0.121 C 
HETATM    9  C   UNL     1      26.886  42.994  49.166  1.00  0.00     0.158 C 
HETATM   10  S   UNL     1      25.740  44.174  49.832  1.00  0.00     0.147 S 
HETATM   11  O   UNL     1      24.408  43.613  49.789  1.00  0.00    -0.228 OA
HETATM   12  O   UNL     1      26.057  45.472  49.277  1.00  0.00    -0.228 OA
HETATM   13  C   UNL     1      26.301  44.150  51.514  1.00  0.00     0.167 C 
ENDROOT
BRANCH   1  14
HETATM   14  C   UNL     1      28.698  43.348  53.748  1.00  0.00     0.048 A 
HETATM   15  C   UNL     1      28.280  44.577  54.356  1.00  0.00     0.001 A 
HETATM   16  C   UNL     1      29.146  45.221  55.280  1.00  0.00    -0.024 A 
HETATM   17  C   UNL     1      27.026  45.196  54.125  1.00  0.00     0.014 A 
HETATM   18  C   UNL     1      28.788  46.451  55.854  1.00  0.00     0.012 A 
HETATM   19  C   UNL     1      30.361  44.626  55.634  1.00  0.00     0.012 A 
HETATM   20  C   UNL     1      27.567  47.053  55.561  1.00  0.00     0.001 A 
HETATM   21  C   UNL     1      26.679  46.419  54.706  1.00  0.00     0.001 A 
HETATM   22  C   UNL     1      30.737  43.403  55.092  1.00  0.00     0.003 A 
HETATM   23  C   UNL     1      29.915  42.776  54.158  1.00  0.00     0.030 A 
ENDBRANCH   1  14
TORSDOF 1
ENDMDL
MODEL 7
REMARK VINA RESULT:      -7.4     13.039     14.613
REMARK  1 active torsions:
REMARK  status: ('A' for Active; 'I' for Inactive)
REMARK    1  A    between atoms: C_5  and  N_6 
ROOT
HETATM    1  N   UNL     1      30.571  51.572  40.417  1.00  0.00    -0.320 N 
HETATM    2  C   UNL     1      29.756  52.736  40.514  1.00  0.00     0.141 C 
HETATM    3  N   UNL     1      30.237  53.947  40.510  1.00  0.00    -0.380 N 
HETATM    4  H   UNL     1      29.608  54.736  40.570  1.00  0.00     0.158 HD
HETATM    5  H   UNL     1      31.237  54.087  40.442  1.00  0.00     0.158 HD
HETATM    6  S   UNL     1      28.079  52.386  40.607  1.00  0.00    -0.086 SA
HETATM    7  C   UNL     1      28.414  50.583  40.826  1.00  0.00     0.093 C 
HETATM    8  C   UNL     1      29.788  50.342  40.154  1.00  0.00     0.121 C 
HETATM    9  C   UNL     1      27.384  49.670  40.194  1.00  0.00     0.158 C 
HETATM   10  S   UNL     1      27.955  49.347  38.544  1.00  0.00     0.147 S 
HETATM   11  O   UNL     1      27.134  50.082  37.609  1.00  0.00    -0.228 OA
HETATM   12  O   UNL     1      28.194  47.925  38.422  1.00  0.00    -0.228 OA
HETATM   13  C   UNL     1      29.530  50.154  38.659  1.00  0.00     0.167 C 
ENDROOT
BRANCH   1  14
HETATM   14  C   UNL     1      31.970  51.468  40.583  1.00  0.00     0.048 A 
HETATM   15  C   UNL     1      32.591  51.588  41.869  1.00  0.00     0.001 A 
HETATM   16  C   UNL     1      34.009  51.625  41.951  1.00  0.00    -0.024 A 
HETATM   17  C   UNL     1      31.884  51.644  43.097  1.00  0.00     0.014 A 
HETATM   18  C   UNL     1      34.647  51.792  43.190  1.00  0.00     0.012 A 
HETATM   19  C   UNL     1      34.782  51.481  40.794  1.00  0.00     0.012 A 
HETATM   20  C   UNL     1      33.914  51.894  44.369  1.00  0.00     0.001 A 
HETATM   21  C   UNL     1      32.531  51.806  44.325  1.00  0.00     0.001 A 
HETATM   22  C   UNL     1      34.179  51.300  39.556  1.00  0.00     0.003 A 
HETATM   23  C   UNL     1      32.790  51.298  39.454  1.00  0.00     0.030 A 
ENDBRANCH   1  14
TORSDOF 1
ENDMDL
MODEL 8
REMARK VINA RESULT:      -7.1     12.418     13.978
REMARK  1 active torsions:
REMARK  status: ('A' for Active; 'I' for Inactive)
REMARK    1  A    between atoms: C_5  and  N_6 
ROOT
HETATM    1  N   UNL     1      29.294  49.321  39.598  1.00  0.00    -0.320 N 
HETATM    2  C   UNL     1      30.066  48.315  38.950  1.00  0.00     0.141 C 
HETATM    3  N   UNL     1      31.368  48.326  38.913  1.00  0.00    -0.380 N 
HETATM    4  H   UNL     1      31.862  47.578  38.447  1.00  0.00     0.158 HD
HETATM    5  H   UNL     1      31.873  49.082  39.356  1.00  0.00     0.158 HD
HETATM    6  S   UNL     1      29.112  47.074  38.248  1.00  0.00    -0.086 SA
HETATM    7  C   UNL     1      27.558  48.028  38.543  1.00  0.00     0.093 C 
HETATM    8  C   UNL     1      27.869  48.944  39.753  1.00  0.00     0.121 C 
HETATM    9  C   UNL     1      26.347  47.176  38.862  1.00  0.00     0.158 C 
HETATM   10  S   UNL     1      26.313  47.007  40.629  1.00  0.00     0.147 S 
HETATM   11  O   UNL     1      26.718  45.665  40.982  1.00  0.00    -0.228 OA
HETATM   12  O   UNL     1      25.089  47.605  41.115  1.00  0.00    -0.228 OA
HETATM   13  C   UNL     1      27.646  48.111  41.015  1.00  0.00     0.167 C 
ENDROOT
BRANCH   1  14
HETATM   14  C   UNL     1      29.714  50.594  40.044  1.00  0.00     0.048 A 
HETATM   15  C   UNL     1      30.517  50.757  41.220  1.00  0.00     0.001 A 
HETATM   16  C   UNL     1      30.781  52.068  41.700  1.00  0.00    -0.024 A 
HETATM   17  C   UNL     1      31.108  49.687  41.939  1.00  0.00     0.014 A 
HETATM   18  C   UNL     1      31.522  52.260  42.877  1.00  0.00     0.012 A 
HETATM   19  C   UNL     1      30.313  53.181  40.994  1.00  0.00     0.012 A 
HETATM   20  C   UNL     1      32.043  51.179  43.584  1.00  0.00     0.001 A 
HETATM   21  C   UNL     1      31.848  49.892  43.107  1.00  0.00     0.001 A 
HETATM   22  C   UNL     1      29.589  53.022  39.819  1.00  0.00     0.003 A 
HETATM   23  C   UNL     1      29.291  51.743  39.355  1.00  0.00     0.030 A 
ENDBRANCH   1  14
TORSDOF 1
ENDMDL
MODEL 9
REMARK VINA RESULT:      -7.0     12.800     14.477
REMARK  1 active torsions:
REMARK  status: ('A' for Active; 'I' for Inactive)
REMARK    1  A    between atoms: C_5  and  N_6 
ROOT
HETATM    1  N   UNL     1      29.607  49.193  39.717  1.00  0.00    -0.320 N 
HETATM    2  C   UNL     1      28.271  49.688  39.717  1.00  0.00     0.141 C 
HETATM    3  N   UNL     1      27.961  50.907  39.380  1.00  0.00    -0.380 N 
HETATM    4  H   UNL     1      26.994  51.198  39.388  1.00  0.00     0.158 HD
HETATM    5  H   UNL     1      28.692  51.551  39.107  1.00  0.00     0.158 HD
HETATM    6  S   UNL     1      27.111  48.511  40.177  1.00  0.00    -0.086 SA
HETATM    7  C   UNL     1      28.434  47.332  40.697  1.00  0.00     0.093 C 
HETATM    8  C   UNL     1      29.675  47.719  39.855  1.00  0.00     0.121 C 
HETATM    9  C   UNL     1      28.107  45.873  40.459  1.00  0.00     0.158 C 
HETATM   10  S   UNL     1      28.715  45.488  38.836  1.00  0.00     0.147 S 
HETATM   11  O   UNL     1      27.594  45.361  37.932  1.00  0.00    -0.228 OA
HETATM   12  O   UNL     1      29.729  44.465  38.966  1.00  0.00    -0.228 OA
HETATM   13  C   UNL     1      29.532  47.025  38.500  1.00  0.00     0.167 C 
ENDROOT
BRANCH   1  14
HETATM   14  C   UNL     1      30.811  49.928  39.649  1.00  0.00     0.048 A 
HETATM   15  C   UNL     1      31.545  50.291  40.825  1.00  0.00     0.001 A 
HETATM   16  C   UNL     1      32.665  51.156  40.701  1.00  0.00    -0.024 A 
HETATM   17  C   UNL     1      31.252  49.815  42.128  1.00  0.00     0.014 A 
HETATM   18  C   UNL     1      33.375  51.570  41.840  1.00  0.00     0.012 A 
HETATM   19  C   UNL     1      33.077  51.594  39.439  1.00  0.00     0.012 A 
HETATM   20  C   UNL     1      33.023  51.121  43.110  1.00  0.00     0.001 A 
HETATM   21  C   UNL     1      31.969  50.231  43.253  1.00  0.00     0.001 A 
HETATM   22  C   UNL     1      32.403  51.190  38.294  1.00  0.00     0.003 A 
HETATM   23  C   UNL     1      31.282  50.371  38.400  1.00  0.00     0.030 A 
ENDBRANCH   1  14
TORSDOF 1
ENDMDL
MODEL 10
REMARK VINA RESULT:      -6.8     12.699     14.195
REMARK  1 active torsions:
REMARK  status: ('A' for Active; 'I' for Inactive)
REMARK    1  A    between atoms: C_5  and  N_6 
ROOT
HETATM    1  N   UNL     1      31.889  50.495  41.093  1.00  0.00    -0.320 N 
HETATM    2  C   UNL     1      31.080  49.380  41.455  1.00  0.00     0.141 C 
HETATM    3  N   UNL     1      31.471  48.453  42.282  1.00  0.00    -0.380 N 
HETATM    4  H   UNL     1      30.847  47.691  42.510  1.00  0.00     0.158 HD
HETATM    5  H   UNL     1      32.393  48.507  42.693  1.00  0.00     0.158 HD
HETATM    6  S   UNL     1      29.531  49.397  40.717  1.00  0.00    -0.086 SA
HETATM    7  C   UNL     1      30.014  50.796  39.613  1.00  0.00     0.093 C 
HETATM    8  C   UNL     1      31.131  51.548  40.377  1.00  0.00     0.121 C 
HETATM    9  C   UNL     1      28.892  51.763  39.294  1.00  0.00     0.158 C 
HETATM   10  S   UNL     1      28.954  53.022  40.544  1.00  0.00     0.147 S 
HETATM   11  O   UNL     1      27.849  52.834  41.457  1.00  0.00    -0.228 OA
HETATM   12  O   UNL     1      29.221  54.287  39.895  1.00  0.00    -0.228 OA
HETATM   13  C   UNL     1      30.443  52.503  41.354  1.00  0.00     0.167 C 
ENDROOT
BRANCH   1  14
HETATM   14  C   UNL     1      33.276  50.671  41.294  1.00  0.00     0.048 A 
HETATM   15  C   UNL     1      33.799  51.258  42.492  1.00  0.00     0.001 A 
HETATM   16  C   UNL     1      35.188  51.544  42.572  1.00  0.00    -0.024 A 
HETATM   17  C   UNL     1      33.024  51.552  43.643  1.00  0.00     0.014 A 
HETATM   18  C   UNL     1      35.723  52.164  43.713  1.00  0.00     0.012 A 
HETATM   19  C   UNL     1      36.037  51.198  41.517  1.00  0.00     0.012 A 
HETATM   20  C   UNL     1      34.919  52.484  44.802  1.00  0.00     0.001 A 
HETATM   21  C   UNL     1      33.570  52.165  44.774  1.00  0.00     0.001 A 
HETATM   22  C   UNL     1      35.539  50.571  40.382  1.00  0.00     0.003 A 
HETATM   23  C   UNL     1      34.174  50.316  40.273  1.00  0.00     0.030 A 
ENDBRANCH   1  14
TORSDOF 1
ENDMDL
