MODEL 1
REMARK VINA RESULT:      -8.6      0.000      0.000
REMARK  5 active torsions:
REMARK  status: ('A' for Active; 'I' for Inactive)
REMARK    1  A    between atoms: C_5  and  C_6 
REMARK       I    between atoms: C_6  and  N_7 
REMARK    2  A    between atoms: N_7  and  C_8 
REMARK    3  A    between atoms: C_8  and  C_9 
REMARK    4  A    between atoms: C_11  and  N_12 
REMARK    5  A    between atoms: N_12  and  C_13 
ROOT
HETATM    1  C   UNL     1      27.411  44.268  52.522  1.00  0.00     0.161 C 
ENDROOT
BRANCH   1   2
HETATM    2  N   UNL     1      28.162  44.228  53.754  1.00  0.00    -0.353 N 
HETATM    3  C   UNL     1      28.335  45.344  54.544  1.00  0.00     0.255 C 
HETATM    4  O   UNL     1      27.796  46.416  54.283  1.00  0.00    -0.268 OA
HETATM    5  H   UNL     1      28.659  43.375  53.991  1.00  0.00     0.163 HD
BRANCH   3   6
HETATM    6  C   UNL     1      29.198  45.214  55.751  1.00  0.00     0.071 A 
HETATM    7  C   UNL     1      30.261  44.309  55.835  1.00  0.00     0.138 A 
HETATM    8  C   UNL     1      31.055  44.222  56.985  1.00  0.00    -0.022 A 
HETATM    9  F   UNL     1      30.539  43.493  54.803  1.00  0.00    -0.204 F 
HETATM   10  C   UNL     1      32.175  43.226  57.071  1.00  0.00     0.051 C 
HETATM   11  C   UNL     1      30.755  45.041  58.080  1.00  0.00     0.010 A 
HETATM   12  C   UNL     1      29.695  45.946  58.013  1.00  0.00     0.002 A 
HETATM   13  C   UNL     1      28.922  46.036  56.855  1.00  0.00     0.020 A 
ENDBRANCH   3   6
ENDBRANCH   1   2
BRANCH   1  14
HETATM   14  C   UNL     1      27.229  42.881  51.952  1.00  0.00    -0.036 A 
HETATM   15  C   UNL     1      28.267  41.943  52.037  1.00  0.00     0.057 A 
HETATM   16  C   UNL     1      28.130  40.680  51.459  1.00  0.00     0.101 A 
HETATM   17  N   UNL     1      26.999  40.408  50.792  1.00  0.00    -0.353 N 
HETATM   18  H   UNL     1      26.945  39.506  50.330  1.00  0.00     0.166 HD
HETATM   19  C   UNL     1      25.980  41.272  50.683  1.00  0.00     0.090 A 
HETATM   20  C   UNL     1      26.069  42.530  51.262  1.00  0.00     0.026 A 
BRANCH  16  21
HETATM   21  N   UNL     1      29.191  39.766  51.463  1.00  0.00    -0.372 N 
HETATM   22  H   UNL     1      29.632  39.699  52.383  1.00  0.00     0.161 HD
BRANCH  21  23
HETATM   23  C   UNL     1      29.153  38.526  50.691  1.00  0.00     0.083 A 
HETATM   24  C   UNL     1      30.338  38.061  49.892  1.00  0.00     0.027 A 
HETATM   25  C   UNL     1      29.959  37.346  51.156  1.00  0.00     0.027 A 
ENDBRANCH  21  23
ENDBRANCH  16  21
ENDBRANCH   1  14
TORSDOF 5
ENDMDL
MODEL 2
REMARK VINA RESULT:      -8.6      3.775      5.752
REMARK  5 active torsions:
REMARK  status: ('A' for Active; 'I' for Inactive)
REMARK    1  A    between atoms: C_5  and  C_6 
REMARK       I    between atoms: C_6  and  N_7 
REMARK    2  A    between atoms: N_7  and  C_8 
REMARK    3  A    between atoms: C_8  and  C_9 
REMARK    4  A    between atoms: C_11  and  N_12 
REMARK    5  A    between atoms: N_12  and  C_13 
ROOT
HETATM    1  C   UNL     1      25.653  45.838  53.958  1.00  0.00     0.161 C 
ENDROOT
BRANCH   1   2
HETATM    2  N   UNL     1      26.784  45.179  54.565  1.00  0.00    -0.353 N 
HETATM    3  C   UNL     1      27.948  45.853  54.869  1.00  0.00     0.255 C 
HETATM    4  O   UNL     1      28.058  47.065  54.712  1.00  0.00    -0.268 OA
HETATM    5  H   UNL     1      26.756  44.171  54.677  1.00  0.00     0.163 HD
BRANCH   3   6
HETATM    6  C   UNL     1      29.087  45.062  55.415  1.00  0.00     0.071 A 
HETATM    7  C   UNL     1      29.710  45.360  56.631  1.00  0.00     0.138 A 
HETATM    8  C   UNL     1      30.772  44.587  57.115  1.00  0.00    -0.022 A 
HETATM    9  F   UNL     1      29.298  46.411  57.363  1.00  0.00    -0.204 F 
HETATM   10  C   UNL     1      31.449  44.936  58.407  1.00  0.00     0.051 C 
HETATM   11  C   UNL     1      31.234  43.512  56.345  1.00  0.00     0.010 A 
HETATM   12  C   UNL     1      30.625  43.204  55.128  1.00  0.00     0.002 A 
HETATM   13  C   UNL     1      29.555  43.972  54.666  1.00  0.00     0.020 A 
ENDBRANCH   3   6
ENDBRANCH   1   2
BRANCH   1  14
HETATM   14  C   UNL     1      25.779  45.855  52.453  1.00  0.00    -0.036 A 
HETATM   15  C   UNL     1      25.705  47.068  51.753  1.00  0.00     0.057 A 
HETATM   16  C   UNL     1      25.759  47.086  50.359  1.00  0.00     0.101 A 
HETATM   17  N   UNL     1      25.844  45.915  49.713  1.00  0.00    -0.353 N 
HETATM   18  H   UNL     1      25.823  45.947  48.699  1.00  0.00     0.166 HD
HETATM   19  C   UNL     1      25.917  44.731  50.337  1.00  0.00     0.090 A 
HETATM   20  C   UNL     1      25.887  44.672  51.723  1.00  0.00     0.026 A 
BRANCH  16  21
HETATM   21  N   UNL     1      25.601  48.282  49.647  1.00  0.00    -0.372 N 
HETATM   22  H   UNL     1      25.175  49.013  50.220  1.00  0.00     0.161 HD
BRANCH  21  23
HETATM   23  C   UNL     1      26.586  48.742  48.670  1.00  0.00     0.083 A 
HETATM   24  C   UNL     1      26.853  50.205  48.452  1.00  0.00     0.027 A 
HETATM   25  C   UNL     1      27.871  49.353  49.153  1.00  0.00     0.027 A 
ENDBRANCH  21  23
ENDBRANCH  16  21
ENDBRANCH   1  14
TORSDOF 5
ENDMDL
MODEL 3
REMARK VINA RESULT:      -8.4      3.211      5.373
REMARK  5 active torsions:
REMARK  status: ('A' for Active; 'I' for Inactive)
REMARK    1  A    between atoms: C_5  and  C_6 
REMARK       I    between atoms: C_6  and  N_7 
REMARK    2  A    between atoms: N_7  and  C_8 
REMARK    3  A    between atoms: C_8  and  C_9 
REMARK    4  A    between atoms: C_11  and  N_12 
REMARK    5  A    between atoms: N_12  and  C_13 
ROOT
HETATM    1  C   UNL     1      27.420  43.206  51.373  1.00  0.00     0.161 C 
ENDROOT
BRANCH   1   2
HETATM    2  N   UNL     1      28.258  43.748  52.416  1.00  0.00    -0.353 N 
HETATM    3  C   UNL     1      27.988  43.543  53.753  1.00  0.00     0.255 C 
HETATM    4  O   UNL     1      27.066  42.825  54.129  1.00  0.00    -0.268 OA
HETATM    5  H   UNL     1      29.008  44.380  52.157  1.00  0.00     0.163 HD
BRANCH   3   6
HETATM    6  C   UNL     1      28.867  44.217  54.750  1.00  0.00     0.071 A 
HETATM    7  C   UNL     1      29.921  43.566  55.401  1.00  0.00     0.138 A 
HETATM    8  C   UNL     1      30.730  44.237  56.326  1.00  0.00    -0.022 A 
HETATM    9  F   UNL     1      30.174  42.270  55.150  1.00  0.00    -0.204 F 
HETATM   10  C   UNL     1      31.839  43.519  57.038  1.00  0.00     0.051 C 
HETATM   11  C   UNL     1      30.455  45.577  56.623  1.00  0.00     0.010 A 
HETATM   12  C   UNL     1      29.405  46.238  55.985  1.00  0.00     0.002 A 
HETATM   13  C   UNL     1      28.617  45.564  55.051  1.00  0.00     0.020 A 
ENDBRANCH   3   6
ENDBRANCH   1   2
BRANCH   1  14
HETATM   14  C   UNL     1      26.318  44.172  51.007  1.00  0.00    -0.036 A 
HETATM   15  C   UNL     1      26.621  45.511  50.722  1.00  0.00     0.057 A 
HETATM   16  C   UNL     1      25.603  46.424  50.442  1.00  0.00     0.101 A 
HETATM   17  N   UNL     1      24.335  45.993  50.492  1.00  0.00    -0.353 N 
HETATM   18  H   UNL     1      23.608  46.686  50.344  1.00  0.00     0.166 HD
HETATM   19  C   UNL     1      23.996  44.725  50.761  1.00  0.00     0.090 A 
HETATM   20  C   UNL     1      24.980  43.781  51.023  1.00  0.00     0.026 A 
BRANCH  16  21
HETATM   21  N   UNL     1      25.886  47.780  50.240  1.00  0.00    -0.372 N 
HETATM   22  H   UNL     1      26.132  48.252  51.113  1.00  0.00     0.161 HD
BRANCH  21  23
HETATM   23  C   UNL     1      26.581  48.261  49.047  1.00  0.00     0.083 A 
HETATM   24  C   UNL     1      26.546  49.710  48.647  1.00  0.00     0.027 A 
HETATM   25  C   UNL     1      27.807  49.115  49.204  1.00  0.00     0.027 A 
ENDBRANCH  21  23
ENDBRANCH  16  21
ENDBRANCH   1  14
TORSDOF 5
ENDMDL
MODEL 4
REMARK VINA RESULT:      -8.4      5.512      7.904
REMARK  5 active torsions:
REMARK  status: ('A' for Active; 'I' for Inactive)
REMARK    1  A    between atoms: C_5  and  C_6 
REMARK       I    between atoms: C_6  and  N_7 
REMARK    2  A    between atoms: N_7  and  C_8 
REMARK    3  A    between atoms: C_8  and  C_9 
REMARK    4  A    between atoms: C_11  and  N_12 
REMARK    5  A    between atoms: N_12  and  C_13 
ROOT
HETATM    1  C   UNL     1      25.039  46.407  50.827  1.00  0.00     0.161 C 
ENDROOT
BRANCH   1   2
HETATM    2  N   UNL     1      26.115  46.238  51.774  1.00  0.00    -0.353 N 
HETATM    3  C   UNL     1      26.010  45.396  52.861  1.00  0.00     0.255 C 
HETATM    4  O   UNL     1      25.025  44.685  53.040  1.00  0.00    -0.268 OA
HETATM    5  H   UNL     1      26.933  46.833  51.691  1.00  0.00     0.163 HD
BRANCH   3   6
HETATM    6  C   UNL     1      27.146  45.359  53.824  1.00  0.00     0.071 A 
HETATM    7  C   UNL     1      28.093  44.329  53.848  1.00  0.00     0.138 A 
HETATM    8  C   UNL     1      29.152  44.335  54.764  1.00  0.00    -0.022 A 
HETATM    9  F   UNL     1      27.997  43.302  52.986  1.00  0.00    -0.204 F 
HETATM   10  C   UNL     1      30.143  43.209  54.797  1.00  0.00     0.051 C 
HETATM   11  C   UNL     1      29.242  45.381  55.691  1.00  0.00     0.010 A 
HETATM   12  C   UNL     1      28.303  46.413  55.681  1.00  0.00     0.002 A 
HETATM   13  C   UNL     1      27.262  46.405  54.751  1.00  0.00     0.020 A 
ENDBRANCH   3   6
ENDBRANCH   1   2
BRANCH   1  14
HETATM   14  C   UNL     1      25.253  47.637  49.977  1.00  0.00    -0.036 A 
HETATM   15  C   UNL     1      24.158  48.292  49.398  1.00  0.00     0.057 A 
HETATM   16  C   UNL     1      24.351  49.393  48.561  1.00  0.00     0.101 A 
HETATM   17  N   UNL     1      25.608  49.777  48.302  1.00  0.00    -0.353 N 
HETATM   18  H   UNL     1      25.728  50.542  47.645  1.00  0.00     0.166 HD
HETATM   19  C   UNL     1      26.686  49.183  48.831  1.00  0.00     0.090 A 
HETATM   20  C   UNL     1      26.536  48.099  49.684  1.00  0.00     0.026 A 
BRANCH  16  21
HETATM   21  N   UNL     1      23.271  50.002  47.909  1.00  0.00    -0.372 N 
HETATM   22  H   UNL     1      22.718  49.327  47.378  1.00  0.00     0.161 HD
BRANCH  21  23
HETATM   23  C   UNL     1      22.517  51.099  48.511  1.00  0.00     0.083 A 
HETATM   24  C   UNL     1      21.017  51.158  48.432  1.00  0.00     0.027 A 
HETATM   25  C   UNL     1      21.687  50.836  49.736  1.00  0.00     0.027 A 
ENDBRANCH  21  23
ENDBRANCH  16  21
ENDBRANCH   1  14
TORSDOF 5
ENDMDL
MODEL 5
REMARK VINA RESULT:      -8.2      2.260      4.331
REMARK  5 active torsions:
REMARK  status: ('A' for Active; 'I' for Inactive)
REMARK    1  A    between atoms: C_5  and  C_6 
REMARK       I    between atoms: C_6  and  N_7 
REMARK    2  A    between atoms: N_7  and  C_8 
REMARK    3  A    between atoms: C_8  and  C_9 
REMARK    4  A    between atoms: C_11  and  N_12 
REMARK    5  A    between atoms: N_12  and  C_13 
ROOT
HETATM    1  C   UNL     1      28.326  41.262  52.499  1.00  0.00     0.161 C 
ENDROOT
BRANCH   1   2
HETATM    2  N   UNL     1      28.408  42.309  53.489  1.00  0.00    -0.353 N 
HETATM    3  C   UNL     1      29.570  43.019  53.711  1.00  0.00     0.255 C 
HETATM    4  O   UNL     1      30.574  42.853  53.025  1.00  0.00    -0.268 OA
HETATM    5  H   UNL     1      27.617  42.456  54.107  1.00  0.00     0.163 HD
BRANCH   3   6
HETATM    6  C   UNL     1      29.573  44.020  54.814  1.00  0.00     0.071 A 
HETATM    7  C   UNL     1      30.433  43.941  55.914  1.00  0.00     0.138 A 
HETATM    8  C   UNL     1      30.411  44.907  56.927  1.00  0.00    -0.022 A 
HETATM    9  F   UNL     1      31.303  42.920  56.021  1.00  0.00    -0.204 F 
HETATM   10  C   UNL     1      31.320  44.793  58.116  1.00  0.00     0.051 C 
HETATM   11  C   UNL     1      29.486  45.954  56.846  1.00  0.00     0.010 A 
HETATM   12  C   UNL     1      28.618  46.045  55.757  1.00  0.00     0.002 A 
HETATM   13  C   UNL     1      28.663  45.085  54.744  1.00  0.00     0.020 A 
ENDBRANCH   3   6
ENDBRANCH   1   2
BRANCH   1  14
HETATM   14  C   UNL     1      27.793  41.795  51.190  1.00  0.00    -0.036 A 
HETATM   15  C   UNL     1      27.295  43.103  51.112  1.00  0.00     0.057 A 
HETATM   16  C   UNL     1      26.745  43.583  49.923  1.00  0.00     0.101 A 
HETATM   17  N   UNL     1      26.673  42.748  48.877  1.00  0.00    -0.353 N 
HETATM   18  H   UNL     1      26.216  43.098  48.040  1.00  0.00     0.166 HD
HETATM   19  C   UNL     1      27.135  41.490  48.903  1.00  0.00     0.090 A 
HETATM   20  C   UNL     1      27.708  40.982  50.060  1.00  0.00     0.026 A 
BRANCH  16  21
HETATM   21  N   UNL     1      26.168  44.857  49.857  1.00  0.00    -0.372 N 
HETATM   22  H   UNL     1      25.242  44.834  49.423  1.00  0.00     0.161 HD
BRANCH  21  23
HETATM   23  C   UNL     1      26.340  45.845  50.920  1.00  0.00     0.083 A 
HETATM   24  C   UNL     1      25.625  47.167  50.888  1.00  0.00     0.027 A 
HETATM   25  C   UNL     1      25.205  46.111  51.868  1.00  0.00     0.027 A 
ENDBRANCH  21  23
ENDBRANCH  16  21
ENDBRANCH   1  14
TORSDOF 5
ENDMDL
MODEL 6
REMARK VINA RESULT:      -8.0      3.016      3.991
REMARK  5 active torsions:
REMARK  status: ('A' for Active; 'I' for Inactive)
REMARK    1  A    between atoms: C_5  and  C_6 
REMARK       I    between atoms: C_6  and  N_7 
REMARK    2  A    between atoms: N_7  and  C_8 
REMARK    3  A    between atoms: C_8  and  C_9 
REMARK    4  A    between atoms: C_11  and  N_12 
REMARK    5  A    between atoms: N_12  and  C_13 
ROOT
HETATM    1  C   UNL     1      25.813  46.638  53.940  1.00  0.00     0.161 C 
ENDROOT
BRANCH   1   2
HETATM    2  N   UNL     1      26.841  45.758  54.441  1.00  0.00    -0.353 N 
HETATM    3  C   UNL     1      28.080  46.223  54.826  1.00  0.00     0.255 C 
HETATM    4  O   UNL     1      28.352  47.420  54.836  1.00  0.00    -0.268 OA
HETATM    5  H   UNL     1      26.678  44.756  54.414  1.00  0.00     0.163 HD
BRANCH   3   6
HETATM    6  C   UNL     1      29.098  45.220  55.249  1.00  0.00     0.071 A 
HETATM    7  C   UNL     1      29.824  45.326  56.440  1.00  0.00     0.138 A 
HETATM    8  C   UNL     1      30.767  44.358  56.807  1.00  0.00    -0.022 A 
HETATM    9  F   UNL     1      29.631  46.374  57.260  1.00  0.00    -0.204 F 
HETATM   10  C   UNL     1      31.558  44.499  58.074  1.00  0.00     0.051 C 
HETATM   11  C   UNL     1      31.003  43.281  55.944  1.00  0.00     0.010 A 
HETATM   12  C   UNL     1      30.290  43.164  54.751  1.00  0.00     0.002 A 
HETATM   13  C   UNL     1      29.340  44.126  54.406  1.00  0.00     0.020 A 
ENDBRANCH   3   6
ENDBRANCH   1   2
BRANCH   1  14
HETATM   14  C   UNL     1      25.381  46.230  52.551  1.00  0.00    -0.036 A 
HETATM   15  C   UNL     1      25.004  44.906  52.290  1.00  0.00     0.057 A 
HETATM   16  C   UNL     1      24.663  44.507  50.997  1.00  0.00     0.101 A 
HETATM   17  N   UNL     1      24.742  45.414  50.013  1.00  0.00    -0.353 N 
HETATM   18  H   UNL     1      24.547  45.088  49.072  1.00  0.00     0.166 HD
HETATM   19  C   UNL     1      25.097  46.690  50.212  1.00  0.00     0.090 A 
HETATM   20  C   UNL     1      25.424  47.132  51.487  1.00  0.00     0.026 A 
BRANCH  16  21
HETATM   21  N   UNL     1      24.368  43.168  50.709  1.00  0.00    -0.372 N 
HETATM   22  H   UNL     1      23.653  43.083  49.984  1.00  0.00     0.161 HD
BRANCH  21  23
HETATM   23  C   UNL     1      25.396  42.129  50.704  1.00  0.00     0.083 A 
HETATM   24  C   UNL     1      25.626  41.257  49.501  1.00  0.00     0.027 A 
HETATM   25  C   UNL     1      26.626  42.315  49.863  1.00  0.00     0.027 A 
ENDBRANCH  21  23
ENDBRANCH  16  21
ENDBRANCH   1  14
TORSDOF 5
ENDMDL
MODEL 7
REMARK VINA RESULT:      -8.0      1.483      2.125
REMARK  5 active torsions:
REMARK  status: ('A' for Active; 'I' for Inactive)
REMARK    1  A    between atoms: C_5  and  C_6 
REMARK       I    between atoms: C_6  and  N_7 
REMARK    2  A    between atoms: N_7  and  C_8 
REMARK    3  A    between atoms: C_8  and  C_9 
REMARK    4  A    between atoms: C_11  and  N_12 
REMARK    5  A    between atoms: N_12  and  C_13 
ROOT
HETATM    1  C   UNL     1      26.186  43.820  52.031  1.00  0.00     0.161 C 
ENDROOT
BRANCH   1   2
HETATM    2  N   UNL     1      27.243  43.695  53.006  1.00  0.00    -0.353 N 
HETATM    3  C   UNL     1      27.658  44.761  53.776  1.00  0.00     0.255 C 
HETATM    4  O   UNL     1      27.100  45.854  53.731  1.00  0.00    -0.268 OA
HETATM    5  H   UNL     1      27.761  42.824  53.052  1.00  0.00     0.163 HD
BRANCH   3   6
HETATM    6  C   UNL     1      28.814  44.548  54.692  1.00  0.00     0.071 A 
HETATM    7  C   UNL     1      29.069  45.360  55.802  1.00  0.00     0.138 A 
HETATM    8  C   UNL     1      30.162  45.122  56.644  1.00  0.00    -0.022 A 
HETATM    9  F   UNL     1      28.262  46.400  56.079  1.00  0.00    -0.204 F 
HETATM   10  C   UNL     1      30.439  46.019  57.814  1.00  0.00     0.051 C 
HETATM   11  C   UNL     1      31.030  44.065  56.345  1.00  0.00     0.010 A 
HETATM   12  C   UNL     1      30.792  43.248  55.240  1.00  0.00     0.002 A 
HETATM   13  C   UNL     1      29.688  43.485  54.418  1.00  0.00     0.020 A 
ENDBRANCH   3   6
ENDBRANCH   1   2
BRANCH   1  14
HETATM   14  C   UNL     1      26.047  42.554  51.218  1.00  0.00    -0.036 A 
HETATM   15  C   UNL     1      27.005  41.537  51.329  1.00  0.00     0.057 A 
HETATM   16  C   UNL     1      26.917  40.391  50.536  1.00  0.00     0.101 A 
HETATM   17  N   UNL     1      25.918  40.312  49.647  1.00  0.00    -0.353 N 
HETATM   18  H   UNL     1      25.907  39.498  49.040  1.00  0.00     0.166 HD
HETATM   19  C   UNL     1      24.980  41.257  49.504  1.00  0.00     0.090 A 
HETATM   20  C   UNL     1      25.019  42.402  50.288  1.00  0.00     0.026 A 
BRANCH  16  21
HETATM   21  N   UNL     1      27.914  39.409  50.577  1.00  0.00    -0.372 N 
HETATM   22  H   UNL     1      27.587  38.553  51.031  1.00  0.00     0.161 HD
BRANCH  21  23
HETATM   23  C   UNL     1      28.863  39.216  49.482  1.00  0.00     0.083 A 
HETATM   24  C   UNL     1      29.866  38.097  49.498  1.00  0.00     0.027 A 
HETATM   25  C   UNL     1      28.695  38.041  48.561  1.00  0.00     0.027 A 
ENDBRANCH  21  23
ENDBRANCH  16  21
ENDBRANCH   1  14
TORSDOF 5
ENDMDL
MODEL 8
REMARK VINA RESULT:      -8.0      1.883      2.436
REMARK  5 active torsions:
REMARK  status: ('A' for Active; 'I' for Inactive)
REMARK    1  A    between atoms: C_5  and  C_6 
REMARK       I    between atoms: C_6  and  N_7 
REMARK    2  A    between atoms: N_7  and  C_8 
REMARK    3  A    between atoms: C_8  and  C_9 
REMARK    4  A    between atoms: C_11  and  N_12 
REMARK    5  A    between atoms: N_12  and  C_13 
ROOT
HETATM    1  C   UNL     1      25.041  43.675  51.297  1.00  0.00     0.161 C 
ENDROOT
BRANCH   1   2
HETATM    2  N   UNL     1      26.182  44.029  52.106  1.00  0.00    -0.353 N 
HETATM    3  C   UNL     1      26.073  44.277  53.458  1.00  0.00     0.255 C 
HETATM    4  O   UNL     1      25.014  44.135  54.062  1.00  0.00    -0.268 OA
HETATM    5  H   UNL     1      27.070  44.197  51.645  1.00  0.00     0.163 HD
BRANCH   3   6
HETATM    6  C   UNL     1      27.297  44.717  54.185  1.00  0.00     0.071 A 
HETATM    7  C   UNL     1      28.372  43.864  54.455  1.00  0.00     0.138 A 
HETATM    8  C   UNL     1      29.509  44.318  55.133  1.00  0.00    -0.022 A 
HETATM    9  F   UNL     1      28.329  42.577  54.068  1.00  0.00    -0.204 F 
HETATM   10  C   UNL     1      30.643  43.385  55.442  1.00  0.00     0.051 C 
HETATM   11  C   UNL     1      29.551  45.647  55.574  1.00  0.00     0.010 A 
HETATM   12  C   UNL     1      28.485  46.509  55.315  1.00  0.00     0.002 A 
HETATM   13  C   UNL     1      27.365  46.049  54.621  1.00  0.00     0.020 A 
ENDBRANCH   3   6
ENDBRANCH   1   2
BRANCH   1  14
HETATM   14  C   UNL     1      25.274  42.370  50.572  1.00  0.00    -0.036 A 
HETATM   15  C   UNL     1      26.267  41.486  51.015  1.00  0.00     0.057 A 
HETATM   16  C   UNL     1      26.530  40.307  50.315  1.00  0.00     0.101 A 
HETATM   17  N   UNL     1      25.835  40.068  49.194  1.00  0.00    -0.353 N 
HETATM   18  H   UNL     1      26.083  39.235  48.670  1.00  0.00     0.166 HD
HETATM   19  C   UNL     1      24.877  40.883  48.731  1.00  0.00     0.090 A 
HETATM   20  C   UNL     1      24.571  42.054  49.410  1.00  0.00     0.026 A 
BRANCH  16  21
HETATM   21  N   UNL     1      27.576  39.459  50.699  1.00  0.00    -0.372 N 
HETATM   22  H   UNL     1      27.232  38.622  51.174  1.00  0.00     0.161 HD
BRANCH  21  23
HETATM   23  C   UNL     1      28.768  39.270  49.874  1.00  0.00     0.083 A 
HETATM   24  C   UNL     1      29.721  38.134  50.119  1.00  0.00     0.027 A 
HETATM   25  C   UNL     1      28.823  38.115  48.916  1.00  0.00     0.027 A 
ENDBRANCH  21  23
ENDBRANCH  16  21
ENDBRANCH   1  14
TORSDOF 5
ENDMDL
MODEL 9
REMARK VINA RESULT:      -7.9      3.051      5.549
REMARK  5 active torsions:
REMARK  status: ('A' for Active; 'I' for Inactive)
REMARK    1  A    between atoms: C_5  and  C_6 
REMARK       I    between atoms: C_6  and  N_7 
REMARK    2  A    between atoms: N_7  and  C_8 
REMARK    3  A    between atoms: C_8  and  C_9 
REMARK    4  A    between atoms: C_11  and  N_12 
REMARK    5  A    between atoms: N_12  and  C_13 
ROOT
HETATM    1  C   UNL     1      27.420  42.779  53.016  1.00  0.00     0.161 C 
ENDROOT
BRANCH   1   2
HETATM    2  N   UNL     1      28.169  43.160  54.190  1.00  0.00    -0.353 N 
HETATM    3  C   UNL     1      29.532  43.369  54.154  1.00  0.00     0.255 C 
HETATM    4  O   UNL     1      30.170  43.318  53.107  1.00  0.00    -0.268 OA
HETATM    5  H   UNL     1      27.692  43.176  55.086  1.00  0.00     0.163 HD
BRANCH   3   6
HETATM    6  C   UNL     1      30.222  43.676  55.438  1.00  0.00     0.071 A 
HETATM    7  C   UNL     1      29.946  44.817  56.199  1.00  0.00     0.138 A 
HETATM    8  C   UNL     1      30.610  45.066  57.406  1.00  0.00    -0.022 A 
HETATM    9  F   UNL     1      29.031  45.707  55.776  1.00  0.00    -0.204 F 
HETATM   10  C   UNL     1      30.324  46.309  58.197  1.00  0.00     0.051 C 
HETATM   11  C   UNL     1      31.590  44.165  57.839  1.00  0.00     0.010 A 
HETATM   12  C   UNL     1      31.879  43.025  57.090  1.00  0.00     0.002 A 
HETATM   13  C   UNL     1      31.197  42.778  55.897  1.00  0.00     0.020 A 
ENDBRANCH   3   6
ENDBRANCH   1   2
BRANCH   1  14
HETATM   14  C   UNL     1      26.567  43.924  52.522  1.00  0.00    -0.036 A 
HETATM   15  C   UNL     1      26.552  45.141  53.216  1.00  0.00     0.057 A 
HETATM   16  C   UNL     1      25.720  46.183  52.802  1.00  0.00     0.101 A 
HETATM   17  N   UNL     1      24.916  45.971  51.752  1.00  0.00    -0.353 N 
HETATM   18  H   UNL     1      24.277  46.721  51.504  1.00  0.00     0.166 HD
HETATM   19  C   UNL     1      24.894  44.825  51.057  1.00  0.00     0.090 A 
HETATM   20  C   UNL     1      25.721  43.773  51.424  1.00  0.00     0.026 A 
BRANCH  16  21
HETATM   21  N   UNL     1      25.634  47.372  53.537  1.00  0.00    -0.372 N 
HETATM   22  H   UNL     1      24.719  47.818  53.434  1.00  0.00     0.161 HD
BRANCH  21  23
HETATM   23  C   UNL     1      26.264  47.526  54.846  1.00  0.00     0.083 A 
HETATM   24  C   UNL     1      27.548  48.290  55.016  1.00  0.00     0.027 A 
HETATM   25  C   UNL     1      26.257  48.873  55.512  1.00  0.00     0.027 A 
ENDBRANCH  21  23
ENDBRANCH  16  21
ENDBRANCH   1  14
TORSDOF 5
ENDMDL
MODEL 10
REMARK VINA RESULT:      -7.8      5.008      7.417
REMARK  5 active torsions:
REMARK  status: ('A' for Active; 'I' for Inactive)
REMARK    1  A    between atoms: C_5  and  C_6 
REMARK       I    between atoms: C_6  and  N_7 
REMARK    2  A    between atoms: N_7  and  C_8 
REMARK    3  A    between atoms: C_8  and  C_9 
REMARK    4  A    between atoms: C_11  and  N_12 
REMARK    5  A    between atoms: N_12  and  C_13 
ROOT
HETATM    1  C   UNL     1      25.857  47.140  51.674  1.00  0.00     0.161 C 
ENDROOT
BRANCH   1   2
HETATM    2  N   UNL     1      26.594  45.956  52.046  1.00  0.00    -0.353 N 
HETATM    3  C   UNL     1      26.738  45.565  53.360  1.00  0.00     0.255 C 
HETATM    4  O   UNL     1      26.183  46.158  54.280  1.00  0.00    -0.268 OA
HETATM    5  H   UNL     1      27.104  45.456  51.325  1.00  0.00     0.163 HD
BRANCH   3   6
HETATM    6  C   UNL     1      27.589  44.374  53.641  1.00  0.00     0.071 A 
HETATM    7  C   UNL     1      28.754  44.435  54.414  1.00  0.00     0.138 A 
HETATM    8  C   UNL     1      29.522  43.291  54.663  1.00  0.00    -0.022 A 
HETATM    9  F   UNL     1      29.163  45.606  54.932  1.00  0.00    -0.204 F 
HETATM   10  C   UNL     1      30.785  43.376  55.469  1.00  0.00     0.051 C 
HETATM   11  C   UNL     1      29.127  42.072  54.099  1.00  0.00     0.010 A 
HETATM   12  C   UNL     1      27.970  41.997  53.323  1.00  0.00     0.002 A 
HETATM   13  C   UNL     1      27.202  43.141  53.097  1.00  0.00     0.020 A 
ENDBRANCH   3   6
ENDBRANCH   1   2
BRANCH   1  14
HETATM   14  C   UNL     1      24.799  46.820  50.645  1.00  0.00    -0.036 A 
HETATM   15  C   UNL     1      24.115  47.854  49.992  1.00  0.00     0.057 A 
HETATM   16  C   UNL     1      23.094  47.567  49.085  1.00  0.00     0.101 A 
HETATM   17  N   UNL     1      22.764  46.283  48.888  1.00  0.00    -0.353 N 
HETATM   18  H   UNL     1      21.980  46.100  48.270  1.00  0.00     0.166 HD
HETATM   19  C   UNL     1      23.388  45.261  49.489  1.00  0.00     0.090 A 
HETATM   20  C   UNL     1      24.423  45.503  50.382  1.00  0.00     0.026 A 
BRANCH  16  21
HETATM   21  N   UNL     1      22.347  48.593  48.491  1.00  0.00    -0.372 N 
HETATM   22  H   UNL     1      21.488  48.240  48.065  1.00  0.00     0.161 HD
BRANCH  21  23
HETATM   23  C   UNL     1      22.257  49.929  49.076  1.00  0.00     0.083 A 
HETATM   24  C   UNL     1      22.886  51.122  48.413  1.00  0.00     0.027 A 
HETATM   25  C   UNL     1      21.394  50.965  48.414  1.00  0.00     0.027 A 
ENDBRANCH  21  23
ENDBRANCH  16  21
ENDBRANCH   1  14
TORSDOF 5
ENDMDL
