MODEL 1
REMARK VINA RESULT:      -7.6      0.000      0.000
REMARK  3 active torsions:
REMARK  status: ('A' for Active; 'I' for Inactive)
REMARK    1  A    between atoms: C_8  and  C_9 
REMARK    2  A    between atoms: C_16  and  O_17 
REMARK    3  A    between atoms: C_24  and  N_25 
ROOT
HETATM    1  C   UNL     1      30.715  53.694  41.014  1.00  0.00     0.073 C 
HETATM    2  C   UNL     1      30.234  52.724  40.000  1.00  0.00     0.062 A 
HETATM    3  N   UNL     1      29.360  53.106  39.054  1.00  0.00    -0.177 NA
HETATM    4  N   UNL     1      29.149  51.991  38.323  1.00  0.00    -0.256 N 
HETATM    5  H   UNL     1      28.504  52.032  37.543  1.00  0.00     0.191 HD
HETATM    6  C   UNL     1      29.865  50.929  38.771  1.00  0.00     0.175 A 
HETATM    7  C   UNL     1      30.587  51.362  39.853  1.00  0.00     0.034 A 
HETATM    8  C   UNL     1      31.471  50.412  40.590  1.00  0.00     0.106 A 
HETATM    9  C   UNL     1      31.372  49.010  39.979  1.00  0.00     0.081 A 
HETATM   10  C   UNL     1      32.092  47.975  40.642  1.00  0.00     0.100 C 
HETATM   11  N   UNL     1      32.673  47.123  41.176  1.00  0.00    -0.191 NA
HETATM   12  C   UNL     1      30.601  48.728  38.891  1.00  0.00     0.140 A 
HETATM   13  O   UNL     1      29.837  49.713  38.240  1.00  0.00    -0.279 OA
ENDROOT
BRANCH   8  14
HETATM   14  C   UNL     1      32.887  50.996  40.536  1.00  0.00    -0.033 A 
HETATM   15  C   UNL     1      33.594  51.393  41.714  1.00  0.00    -0.016 A 
HETATM   16  C   UNL     1      34.904  51.940  41.581  1.00  0.00     0.008 A 
HETATM   17  C   UNL     1      33.074  51.270  43.030  1.00  0.00     0.013 A 
HETATM   18  C   UNL     1      35.602  52.341  42.744  1.00  0.00     0.015 A 
HETATM   19  C   UNL     1      35.496  52.072  40.299  1.00  0.00     0.079 A 
HETATM   20  C   UNL     1      35.056  52.210  44.017  1.00  0.00     0.001 A 
HETATM   21  C   UNL     1      33.791  51.671  44.160  1.00  0.00     0.001 A 
HETATM   22  C   UNL     1      34.810  51.644  39.167  1.00  0.00     0.038 A 
HETATM   23  C   UNL     1      33.532  51.107  39.285  1.00  0.00     0.012 A 
BRANCH  19  24
HETATM   24  O   UNL     1      36.758  52.617  40.261  1.00  0.00    -0.355 OA
HETATM   25  C   UNL     1      37.333  52.874  38.987  1.00  0.00     0.210 C 
ENDBRANCH  19  24
ENDBRANCH   8  14
BRANCH  12  26
HETATM   26  N   UNL     1      30.468  47.487  38.311  1.00  0.00    -0.282 NA
HETATM   27  H   UNL     1      31.027  47.328  37.475  1.00  0.00     0.126 HD
HETATM   28  H   UNL     1      29.494  47.217  38.198  1.00  0.00     0.126 HD
ENDBRANCH  12  26
TORSDOF 3
ENDMDL
MODEL 2
REMARK VINA RESULT:      -7.4     16.673     18.929
REMARK  3 active torsions:
REMARK  status: ('A' for Active; 'I' for Inactive)
REMARK    1  A    between atoms: C_8  and  C_9 
REMARK    2  A    between atoms: C_16  and  O_17 
REMARK    3  A    between atoms: C_24  and  N_25 
ROOT
HETATM    1  C   UNL     1      19.351  52.687  48.244  1.00  0.00     0.073 C 
HETATM    2  C   UNL     1      19.242  51.348  48.874  1.00  0.00     0.062 A 
HETATM    3  N   UNL     1      20.161  50.939  49.766  1.00  0.00    -0.177 NA
HETATM    4  N   UNL     1      19.754  49.703  50.121  1.00  0.00    -0.256 N 
HETATM    5  H   UNL     1      20.307  49.179  50.790  1.00  0.00     0.191 HD
HETATM    6  C   UNL     1      18.612  49.327  49.493  1.00  0.00     0.175 A 
HETATM    7  C   UNL     1      18.242  50.367  48.681  1.00  0.00     0.034 A 
HETATM    8  C   UNL     1      17.021  50.254  47.831  1.00  0.00     0.106 A 
HETATM    9  C   UNL     1      16.376  48.876  48.007  1.00  0.00     0.081 A 
HETATM   10  C   UNL     1      15.249  48.589  47.182  1.00  0.00     0.100 C 
HETATM   11  N   UNL     1      14.333  48.345  46.513  1.00  0.00    -0.191 NA
HETATM   12  C   UNL     1      16.863  47.932  48.861  1.00  0.00     0.140 A 
HETATM   13  O   UNL     1      18.003  48.159  49.655  1.00  0.00    -0.279 OA
ENDROOT
BRANCH   8  14
HETATM   14  C   UNL     1      16.097  51.409  48.232  1.00  0.00    -0.033 A 
HETATM   15  C   UNL     1      15.567  52.330  47.275  1.00  0.00    -0.016 A 
HETATM   16  C   UNL     1      14.724  53.387  47.728  1.00  0.00     0.008 A 
HETATM   17  C   UNL     1      15.822  52.257  45.879  1.00  0.00     0.013 A 
HETATM   18  C   UNL     1      14.206  54.304  46.784  1.00  0.00     0.015 A 
HETATM   19  C   UNL     1      14.408  53.509  49.104  1.00  0.00     0.079 A 
HETATM   20  C   UNL     1      14.483  54.203  45.424  1.00  0.00     0.001 A 
HETATM   21  C   UNL     1      15.291  53.177  44.971  1.00  0.00     0.001 A 
HETATM   22  C   UNL     1      14.900  52.580  50.017  1.00  0.00     0.038 A 
HETATM   23  C   UNL     1      15.722  51.544  49.586  1.00  0.00     0.012 A 
BRANCH  19  24
HETATM   24  O   UNL     1      13.596  54.561  49.455  1.00  0.00    -0.355 OA
HETATM   25  C   UNL     1      12.362  54.264  50.095  1.00  0.00     0.210 C 
ENDBRANCH  19  24
ENDBRANCH   8  14
BRANCH  12  26
HETATM   26  N   UNL     1      16.331  46.677  49.049  1.00  0.00    -0.282 NA
HETATM   27  H   UNL     1      17.004  45.917  49.122  1.00  0.00     0.126 HD
HETATM   28  H   UNL     1      15.573  46.479  48.401  1.00  0.00     0.126 HD
ENDBRANCH  12  26
TORSDOF 3
ENDMDL
MODEL 3
REMARK VINA RESULT:      -7.3      2.870      6.129
REMARK  3 active torsions:
REMARK  status: ('A' for Active; 'I' for Inactive)
REMARK    1  A    between atoms: C_8  and  C_9 
REMARK    2  A    between atoms: C_16  and  O_17 
REMARK    3  A    between atoms: C_24  and  N_25 
ROOT
HETATM    1  C   UNL     1      31.752  52.356  44.405  1.00  0.00     0.073 C 
HETATM    2  C   UNL     1      33.056  51.972  43.812  1.00  0.00     0.062 A 
HETATM    3  N   UNL     1      34.145  51.839  44.589  1.00  0.00    -0.177 NA
HETATM    4  N   UNL     1      35.127  51.490  43.732  1.00  0.00    -0.256 N 
HETATM    5  H   UNL     1      36.062  51.343  44.093  1.00  0.00     0.191 HD
HETATM    6  C   UNL     1      34.692  51.390  42.451  1.00  0.00     0.175 A 
HETATM    7  C   UNL     1      33.355  51.688  42.459  1.00  0.00     0.034 A 
HETATM    8  C   UNL     1      32.581  51.684  41.183  1.00  0.00     0.106 A 
HETATM    9  C   UNL     1      33.502  51.362  40.002  1.00  0.00     0.081 A 
HETATM   10  C   UNL     1      32.917  51.418  38.704  1.00  0.00     0.100 C 
HETATM   11  N   UNL     1      32.451  51.462  37.642  1.00  0.00    -0.191 NA
HETATM   12  C   UNL     1      34.828  51.086  40.151  1.00  0.00     0.140 A 
HETATM   13  O   UNL     1      35.453  51.071  41.411  1.00  0.00    -0.279 OA
ENDROOT
BRANCH   8  14
HETATM   14  C   UNL     1      31.446  50.669  41.358  1.00  0.00    -0.033 A 
HETATM   15  C   UNL     1      30.068  51.048  41.313  1.00  0.00    -0.016 A 
HETATM   16  C   UNL     1      29.070  50.047  41.497  1.00  0.00     0.008 A 
HETATM   17  C   UNL     1      29.619  52.376  41.083  1.00  0.00     0.013 A 
HETATM   18  C   UNL     1      27.707  50.421  41.460  1.00  0.00     0.015 A 
HETATM   19  C   UNL     1      29.445  48.696  41.708  1.00  0.00     0.079 A 
HETATM   20  C   UNL     1      27.305  51.735  41.239  1.00  0.00     0.001 A 
HETATM   21  C   UNL     1      28.263  52.713  41.047  1.00  0.00     0.001 A 
HETATM   22  C   UNL     1      30.789  48.337  41.711  1.00  0.00     0.038 A 
HETATM   23  C   UNL     1      31.771  49.306  41.530  1.00  0.00     0.012 A 
BRANCH  19  24
HETATM   24  O   UNL     1      28.419  47.797  41.886  1.00  0.00    -0.355 OA
HETATM   25  C   UNL     1      28.135  46.895  40.825  1.00  0.00     0.210 C 
ENDBRANCH  19  24
ENDBRANCH   8  14
BRANCH  12  26
HETATM   26  N   UNL     1      35.702  50.802  39.125  1.00  0.00    -0.282 NA
HETATM   27  H   UNL     1      35.725  49.831  38.821  1.00  0.00     0.126 HD
HETATM   28  H   UNL     1      36.627  51.192  39.288  1.00  0.00     0.126 HD
ENDBRANCH  12  26
TORSDOF 3
ENDMDL
MODEL 4
REMARK VINA RESULT:      -7.3      2.823      6.505
REMARK  3 active torsions:
REMARK  status: ('A' for Active; 'I' for Inactive)
REMARK    1  A    between atoms: C_8  and  C_9 
REMARK    2  A    between atoms: C_16  and  O_17 
REMARK    3  A    between atoms: C_24  and  N_25 
ROOT
HETATM    1  C   UNL     1      29.122  52.334  38.469  1.00  0.00     0.073 C 
HETATM    2  C   UNL     1      30.029  52.631  39.604  1.00  0.00     0.062 A 
HETATM    3  N   UNL     1      30.139  53.884  40.077  1.00  0.00    -0.177 NA
HETATM    4  N   UNL     1      31.031  53.784  41.084  1.00  0.00    -0.256 N 
HETATM    5  H   UNL     1      31.289  54.621  41.595  1.00  0.00     0.191 HD
HETATM    6  C   UNL     1      31.477  52.515  41.265  1.00  0.00     0.175 A 
HETATM    7  C   UNL     1      30.847  51.735  40.331  1.00  0.00     0.034 A 
HETATM    8  C   UNL     1      31.142  50.274  40.257  1.00  0.00     0.106 A 
HETATM    9  C   UNL     1      32.204  49.892  41.293  1.00  0.00     0.081 A 
HETATM   10  C   UNL     1      32.656  48.541  41.274  1.00  0.00     0.100 C 
HETATM   11  N   UNL     1      33.032  47.443  41.265  1.00  0.00    -0.191 NA
HETATM   12  C   UNL     1      32.746  50.789  42.164  1.00  0.00     0.140 A 
HETATM   13  O   UNL     1      32.363  52.142  42.180  1.00  0.00    -0.279 OA
ENDROOT
BRANCH   8  14
HETATM   14  C   UNL     1      29.809  49.544  40.462  1.00  0.00    -0.033 A 
HETATM   15  C   UNL     1      29.475  48.350  39.751  1.00  0.00    -0.016 A 
HETATM   16  C   UNL     1      28.210  47.736  39.987  1.00  0.00     0.008 A 
HETATM   17  C   UNL     1      30.337  47.718  38.815  1.00  0.00     0.013 A 
HETATM   18  C   UNL     1      27.875  46.559  39.278  1.00  0.00     0.015 A 
HETATM   19  C   UNL     1      27.307  48.299  40.924  1.00  0.00     0.079 A 
HETATM   20  C   UNL     1      28.745  45.972  38.364  1.00  0.00     0.001 A 
HETATM   21  C   UNL     1      29.979  46.551  38.134  1.00  0.00     0.001 A 
HETATM   22  C   UNL     1      27.664  49.440  41.637  1.00  0.00     0.038 A 
HETATM   23  C   UNL     1      28.897  50.046  41.415  1.00  0.00     0.012 A 
BRANCH  19  24
HETATM   24  O   UNL     1      26.106  47.649  41.084  1.00  0.00    -0.355 OA
HETATM   25  C   UNL     1      24.997  48.105  40.322  1.00  0.00     0.210 C 
ENDBRANCH  19  24
ENDBRANCH   8  14
BRANCH  12  26
HETATM   26  N   UNL     1      33.710  50.502  43.105  1.00  0.00    -0.282 NA
HETATM   27  H   UNL     1      34.519  51.120  43.110  1.00  0.00     0.126 HD
HETATM   28  H   UNL     1      33.959  49.517  43.113  1.00  0.00     0.126 HD
ENDBRANCH  12  26
TORSDOF 3
ENDMDL
MODEL 5
REMARK VINA RESULT:      -7.3      3.265      6.922
REMARK  3 active torsions:
REMARK  status: ('A' for Active; 'I' for Inactive)
REMARK    1  A    between atoms: C_8  and  C_9 
REMARK    2  A    between atoms: C_16  and  O_17 
REMARK    3  A    between atoms: C_24  and  N_25 
ROOT
HETATM    1  C   UNL     1      31.170  48.823  42.816  1.00  0.00     0.073 C 
HETATM    2  C   UNL     1      31.563  49.764  41.739  1.00  0.00     0.062 A 
HETATM    3  N   UNL     1      32.767  50.360  41.762  1.00  0.00    -0.177 NA
HETATM    4  N   UNL     1      32.781  51.130  40.655  1.00  0.00    -0.256 N 
HETATM    5  H   UNL     1      33.600  51.694  40.461  1.00  0.00     0.191 HD
HETATM    6  C   UNL     1      31.635  51.031  39.935  1.00  0.00     0.175 A 
HETATM    7  C   UNL     1      30.821  50.151  40.598  1.00  0.00     0.034 A 
HETATM    8  C   UNL     1      29.463  49.840  40.064  1.00  0.00     0.106 A 
HETATM    9  C   UNL     1      29.192  50.654  38.795  1.00  0.00     0.081 A 
HETATM   10  C   UNL     1      27.892  50.530  38.225  1.00  0.00     0.100 C 
HETATM   11  N   UNL     1      26.835  50.438  37.754  1.00  0.00    -0.191 NA
HETATM   12  C   UNL     1      30.108  51.500  38.247  1.00  0.00     0.140 A 
HETATM   13  O   UNL     1      31.384  51.688  38.809  1.00  0.00    -0.279 OA
ENDROOT
BRANCH   8  14
HETATM   14  C   UNL     1      29.417  48.326  39.832  1.00  0.00    -0.033 A 
HETATM   15  C   UNL     1      28.277  47.534  40.180  1.00  0.00    -0.016 A 
HETATM   16  C   UNL     1      28.315  46.129  39.945  1.00  0.00     0.008 A 
HETATM   17  C   UNL     1      27.087  48.065  40.745  1.00  0.00     0.013 A 
HETATM   18  C   UNL     1      27.192  45.344  40.295  1.00  0.00     0.015 A 
HETATM   19  C   UNL     1      29.462  45.533  39.362  1.00  0.00     0.079 A 
HETATM   20  C   UNL     1      26.045  45.900  40.853  1.00  0.00     0.001 A 
HETATM   21  C   UNL     1      25.991  47.263  41.076  1.00  0.00     0.001 A 
HETATM   22  C   UNL     1      30.547  46.323  38.994  1.00  0.00     0.038 A 
HETATM   23  C   UNL     1      30.520  47.696  39.217  1.00  0.00     0.012 A 
BRANCH  19  24
HETATM   24  O   UNL     1      29.418  44.171  39.179  1.00  0.00    -0.355 OA
HETATM   25  C   UNL     1      29.429  43.679  37.845  1.00  0.00     0.210 C 
ENDBRANCH  19  24
ENDBRANCH   8  14
BRANCH  12  26
HETATM   26  N   UNL     1      29.912  52.262  37.117  1.00  0.00    -0.282 NA
HETATM   27  H   UNL     1      29.828  53.265  37.269  1.00  0.00     0.126 HD
HETATM   28  H   UNL     1      29.181  51.885  36.520  1.00  0.00     0.126 HD
ENDBRANCH  12  26
TORSDOF 3
ENDMDL
MODEL 6
REMARK VINA RESULT:      -7.1     14.102     16.115
REMARK  3 active torsions:
REMARK  status: ('A' for Active; 'I' for Inactive)
REMARK    1  A    between atoms: C_8  and  C_9 
REMARK    2  A    between atoms: C_16  and  O_17 
REMARK    3  A    between atoms: C_24  and  N_25 
ROOT
HETATM    1  C   UNL     1      22.807  50.188  47.572  1.00  0.00     0.073 C 
HETATM    2  C   UNL     1      22.533  48.847  48.145  1.00  0.00     0.062 A 
HETATM    3  N   UNL     1      23.448  48.239  48.920  1.00  0.00    -0.177 NA
HETATM    4  N   UNL     1      22.873  47.065  49.256  1.00  0.00    -0.256 N 
HETATM    5  H   UNL     1      23.389  46.417  49.839  1.00  0.00     0.191 HD
HETATM    6  C   UNL     1      21.631  46.920  48.729  1.00  0.00     0.175 A 
HETATM    7  C   UNL     1      21.369  48.056  48.008  1.00  0.00     0.034 A 
HETATM    8  C   UNL     1      20.074  48.197  47.281  1.00  0.00     0.106 A 
HETATM    9  C   UNL     1      19.225  46.934  47.456  1.00  0.00     0.081 A 
HETATM   10  C   UNL     1      17.996  46.887  46.736  1.00  0.00     0.100 C 
HETATM   11  N   UNL     1      16.994  46.839  46.152  1.00  0.00    -0.191 NA
HETATM   12  C   UNL     1      19.623  45.872  48.211  1.00  0.00     0.140 A 
HETATM   13  O   UNL     1      20.852  45.859  48.896  1.00  0.00    -0.279 OA
ENDROOT
BRANCH   8  14
HETATM   14  C   UNL     1      19.397  49.459  47.827  1.00  0.00    -0.033 A 
HETATM   15  C   UNL     1      18.736  50.400  46.977  1.00  0.00    -0.016 A 
HETATM   16  C   UNL     1      18.142  51.558  47.559  1.00  0.00     0.008 A 
HETATM   17  C   UNL     1      18.624  50.253  45.568  1.00  0.00     0.013 A 
HETATM   18  C   UNL     1      17.495  52.494  46.718  1.00  0.00     0.015 A 
HETATM   19  C   UNL     1      18.196  51.760  48.961  1.00  0.00     0.079 A 
HETATM   20  C   UNL     1      17.410  52.317  45.341  1.00  0.00     0.001 A 
HETATM   21  C   UNL     1      17.973  51.193  44.765  1.00  0.00     0.001 A 
HETATM   22  C   UNL     1      18.808  50.815  49.778  1.00  0.00     0.038 A 
HETATM   23  C   UNL     1      19.390  49.681  49.221  1.00  0.00     0.012 A 
BRANCH  19  24
HETATM   24  O   UNL     1      17.604  52.906  49.437  1.00  0.00    -0.355 OA
HETATM   25  C   UNL     1      16.308  52.798  50.009  1.00  0.00     0.210 C 
ENDBRANCH  19  24
ENDBRANCH   8  14
BRANCH  12  26
HETATM   26  N   UNL     1      18.906  44.710  48.392  1.00  0.00    -0.282 NA
HETATM   27  H   UNL     1      18.899  44.339  49.340  1.00  0.00     0.126 HD
HETATM   28  H   UNL     1      19.126  44.009  47.690  1.00  0.00     0.126 HD
ENDBRANCH  12  26
TORSDOF 3
ENDMDL
MODEL 7
REMARK VINA RESULT:      -7.0     25.058     26.811
REMARK  3 active torsions:
REMARK  status: ('A' for Active; 'I' for Inactive)
REMARK    1  A    between atoms: C_8  and  C_9 
REMARK    2  A    between atoms: C_16  and  O_17 
REMARK    3  A    between atoms: C_24  and  N_25 
ROOT
HETATM    1  C   UNL     1      42.122  43.293  65.243  1.00  0.00     0.073 C 
HETATM    2  C   UNL     1      41.110  44.276  64.784  1.00  0.00     0.062 A 
HETATM    3  N   UNL     1      41.492  45.467  64.293  1.00  0.00    -0.177 NA
HETATM    4  N   UNL     1      40.335  46.087  63.983  1.00  0.00    -0.256 N 
HETATM    5  H   UNL     1      40.369  47.024  63.598  1.00  0.00     0.191 HD
HETATM    6  C   UNL     1      39.244  45.326  64.253  1.00  0.00     0.175 A 
HETATM    7  C   UNL     1      39.702  44.141  64.767  1.00  0.00     0.034 A 
HETATM    8  C   UNL     1      38.735  43.086  65.186  1.00  0.00     0.106 A 
HETATM    9  C   UNL     1      37.296  43.572  64.986  1.00  0.00     0.081 A 
HETATM   10  C   UNL     1      36.261  42.701  65.434  1.00  0.00     0.100 C 
HETATM   11  N   UNL     1      35.410  42.000  65.798  1.00  0.00    -0.191 NA
HETATM   12  C   UNL     1      36.992  44.791  64.458  1.00  0.00     0.140 A 
HETATM   13  O   UNL     1      37.987  45.699  64.051  1.00  0.00    -0.279 OA
ENDROOT
BRANCH   8  14
HETATM   14  C   UNL     1      39.068  41.832  64.369  1.00  0.00    -0.033 A 
HETATM   15  C   UNL     1      39.715  40.694  64.945  1.00  0.00    -0.016 A 
HETATM   16  C   UNL     1      40.003  39.571  64.117  1.00  0.00     0.008 A 
HETATM   17  C   UNL     1      40.088  40.603  66.313  1.00  0.00     0.013 A 
HETATM   18  C   UNL     1      40.650  38.448  64.683  1.00  0.00     0.015 A 
HETATM   19  C   UNL     1      39.640  39.582  62.746  1.00  0.00     0.079 A 
HETATM   20  C   UNL     1      41.006  38.398  66.028  1.00  0.00     0.001 A 
HETATM   21  C   UNL     1      40.722  39.477  66.844  1.00  0.00     0.001 A 
HETATM   22  C   UNL     1      38.975  40.682  62.210  1.00  0.00     0.038 A 
HETATM   23  C   UNL     1      38.687  41.783  63.011  1.00  0.00     0.012 A 
BRANCH  19  24
HETATM   24  O   UNL     1      39.963  38.462  62.018  1.00  0.00    -0.355 OA
HETATM   25  C   UNL     1      39.389  38.321  60.725  1.00  0.00     0.210 C 
ENDBRANCH  19  24
ENDBRANCH   8  14
BRANCH  12  26
HETATM   26  N   UNL     1      35.720  45.281  64.267  1.00  0.00    -0.282 NA
HETATM   27  H   UNL     1      35.507  45.603  63.325  1.00  0.00     0.126 HD
HETATM   28  H   UNL     1      35.451  45.946  64.987  1.00  0.00     0.126 HD
ENDBRANCH  12  26
TORSDOF 3
ENDMDL
MODEL 8
REMARK VINA RESULT:      -6.9     14.697     16.636
REMARK  3 active torsions:
REMARK  status: ('A' for Active; 'I' for Inactive)
REMARK    1  A    between atoms: C_8  and  C_9 
REMARK    2  A    between atoms: C_16  and  O_17 
REMARK    3  A    between atoms: C_24  and  N_25 
ROOT
HETATM    1  C   UNL     1      19.697  46.399  48.737  1.00  0.00     0.073 C 
HETATM    2  C   UNL     1      18.681  45.999  47.734  1.00  0.00     0.062 A 
HETATM    3  N   UNL     1      18.079  44.800  47.816  1.00  0.00    -0.177 NA
HETATM    4  N   UNL     1      17.235  44.777  46.765  1.00  0.00    -0.256 N 
HETATM    5  H   UNL     1      16.669  43.951  46.609  1.00  0.00     0.191 HD
HETATM    6  C   UNL     1      17.278  45.919  46.034  1.00  0.00     0.175 A 
HETATM    7  C   UNL     1      18.197  46.741  46.632  1.00  0.00     0.034 A 
HETATM    8  C   UNL     1      18.492  48.082  46.048  1.00  0.00     0.106 A 
HETATM    9  C   UNL     1      17.678  48.296  44.768  1.00  0.00     0.081 A 
HETATM   10  C   UNL     1      17.929  49.500  44.047  1.00  0.00     0.100 C 
HETATM   11  N   UNL     1      18.127  50.476  43.451  1.00  0.00    -0.191 NA
HETATM   12  C   UNL     1      16.793  47.377  44.289  1.00  0.00     0.140 A 
HETATM   13  O   UNL     1      16.556  46.155  44.945  1.00  0.00    -0.279 OA
ENDROOT
BRANCH   8  14
HETATM   14  C   UNL     1      18.184  49.115  47.138  1.00  0.00    -0.033 A 
HETATM   15  C   UNL     1      19.209  49.878  47.779  1.00  0.00    -0.016 A 
HETATM   16  C   UNL     1      18.844  50.810  48.793  1.00  0.00     0.008 A 
HETATM   17  C   UNL     1      20.590  49.774  47.461  1.00  0.00     0.013 A 
HETATM   18  C   UNL     1      19.858  51.560  49.434  1.00  0.00     0.015 A 
HETATM   19  C   UNL     1      17.483  50.984  49.148  1.00  0.00     0.079 A 
HETATM   20  C   UNL     1      21.202  51.426  49.099  1.00  0.00     0.001 A 
HETATM   21  C   UNL     1      21.568  50.533  48.108  1.00  0.00     0.001 A 
HETATM   22  C   UNL     1      16.493  50.262  48.487  1.00  0.00     0.038 A 
HETATM   23  C   UNL     1      16.838  49.350  47.494  1.00  0.00     0.012 A 
BRANCH  19  24
HETATM   24  O   UNL     1      17.220  51.897  50.142  1.00  0.00    -0.355 OA
HETATM   25  C   UNL     1      16.070  52.721  50.001  1.00  0.00     0.210 C 
ENDBRANCH  19  24
ENDBRANCH   8  14
BRANCH  12  26
HETATM   26  N   UNL     1      16.047  47.512  43.140  1.00  0.00    -0.282 NA
HETATM   27  H   UNL     1      15.182  46.976  43.110  1.00  0.00     0.126 HD
HETATM   28  H   UNL     1      16.611  47.411  42.301  1.00  0.00     0.126 HD
ENDBRANCH  12  26
TORSDOF 3
ENDMDL
MODEL 9
REMARK VINA RESULT:      -6.8     14.051     16.354
REMARK  3 active torsions:
REMARK  status: ('A' for Active; 'I' for Inactive)
REMARK    1  A    between atoms: C_8  and  C_9 
REMARK    2  A    between atoms: C_16  and  O_17 
REMARK    3  A    between atoms: C_24  and  N_25 
ROOT
HETATM    1  C   UNL     1      16.447  52.003  46.960  1.00  0.00     0.073 C 
HETATM    2  C   UNL     1      17.205  52.020  48.235  1.00  0.00     0.062 A 
HETATM    3  N   UNL     1      16.639  52.501  49.355  1.00  0.00    -0.177 NA
HETATM    4  N   UNL     1      17.596  52.365  50.297  1.00  0.00    -0.256 N 
HETATM    5  H   UNL     1      17.401  52.676  51.241  1.00  0.00     0.191 HD
HETATM    6  C   UNL     1      18.734  51.808  49.811  1.00  0.00     0.175 A 
HETATM    7  C   UNL     1      18.521  51.563  48.480  1.00  0.00     0.034 A 
HETATM    8  C   UNL     1      19.605  50.965  47.647  1.00  0.00     0.106 A 
HETATM    9  C   UNL     1      20.867  50.753  48.489  1.00  0.00     0.081 A 
HETATM   10  C   UNL     1      22.019  50.274  47.801  1.00  0.00     0.100 C 
HETATM   11  N   UNL     1      22.964  49.886  47.249  1.00  0.00    -0.191 NA
HETATM   12  C   UNL     1      20.930  51.049  49.818  1.00  0.00     0.140 A 
HETATM   13  O   UNL     1      19.829  51.571  50.521  1.00  0.00    -0.279 OA
ENDROOT
BRANCH   8  14
HETATM   14  C   UNL     1      19.044  49.664  47.062  1.00  0.00    -0.033 A 
HETATM   15  C   UNL     1      18.683  49.539  45.684  1.00  0.00    -0.016 A 
HETATM   16  C   UNL     1      18.156  48.299  45.218  1.00  0.00     0.008 A 
HETATM   17  C   UNL     1      18.826  50.582  44.730  1.00  0.00     0.013 A 
HETATM   18  C   UNL     1      17.791  48.177  43.857  1.00  0.00     0.015 A 
HETATM   19  C   UNL     1      18.007  47.207  46.109  1.00  0.00     0.079 A 
HETATM   20  C   UNL     1      17.940  49.224  42.953  1.00  0.00     0.001 A 
HETATM   21  C   UNL     1      18.461  50.428  43.390  1.00  0.00     0.001 A 
HETATM   22  C   UNL     1      18.399  47.332  47.438  1.00  0.00     0.038 A 
HETATM   23  C   UNL     1      18.917  48.537  47.903  1.00  0.00     0.012 A 
BRANCH  19  24
HETATM   24  O   UNL     1      17.482  46.051  45.578  1.00  0.00    -0.355 OA
HETATM   25  C   UNL     1      17.967  44.811  46.076  1.00  0.00     0.210 C 
ENDBRANCH  19  24
ENDBRANCH   8  14
BRANCH  12  26
HETATM   26  N   UNL     1      22.040  50.889  50.617  1.00  0.00    -0.282 NA
HETATM   27  H   UNL     1      22.935  50.880  50.133  1.00  0.00     0.126 HD
HETATM   28  H   UNL     1      21.933  50.122  51.275  1.00  0.00     0.126 HD
ENDBRANCH  12  26
TORSDOF 3
ENDMDL
MODEL 10
REMARK VINA RESULT:      -6.8     14.612     16.537
REMARK  3 active torsions:
REMARK  status: ('A' for Active; 'I' for Inactive)
REMARK    1  A    between atoms: C_8  and  C_9 
REMARK    2  A    between atoms: C_16  and  O_17 
REMARK    3  A    between atoms: C_24  and  N_25 
ROOT
HETATM    1  C   UNL     1      16.385  47.352  48.691  1.00  0.00     0.073 C 
HETATM    2  C   UNL     1      17.720  46.733  48.503  1.00  0.00     0.062 A 
HETATM    3  N   UNL     1      17.827  45.434  48.174  1.00  0.00    -0.177 NA
HETATM    4  N   UNL     1      19.156  45.220  48.089  1.00  0.00    -0.256 N 
HETATM    5  H   UNL     1      19.489  44.291  47.860  1.00  0.00     0.191 HD
HETATM    6  C   UNL     1      19.884  46.337  48.342  1.00  0.00     0.175 A 
HETATM    7  C   UNL     1      18.992  47.342  48.608  1.00  0.00     0.034 A 
HETATM    8  C   UNL     1      19.486  48.709  48.948  1.00  0.00     0.106 A 
HETATM    9  C   UNL     1      21.017  48.730  48.977  1.00  0.00     0.081 A 
HETATM   10  C   UNL     1      21.630  49.951  49.382  1.00  0.00     0.100 C 
HETATM   11  N   UNL     1      22.139  50.940  49.712  1.00  0.00    -0.191 NA
HETATM   12  C   UNL     1      21.779  47.638  48.687  1.00  0.00     0.140 A 
HETATM   13  O   UNL     1      21.210  46.401  48.333  1.00  0.00    -0.279 OA
ENDROOT
BRANCH   8  14
HETATM   14  C   UNL     1      18.888  49.664  47.909  1.00  0.00    -0.033 A 
HETATM   15  C   UNL     1      17.933  50.671  48.257  1.00  0.00    -0.016 A 
HETATM   16  C   UNL     1      17.414  51.513  47.231  1.00  0.00     0.008 A 
HETATM   17  C   UNL     1      17.467  50.897  49.579  1.00  0.00     0.013 A 
HETATM   18  C   UNL     1      16.463  52.504  47.572  1.00  0.00     0.015 A 
HETATM   19  C   UNL     1      17.851  51.360  45.891  1.00  0.00     0.079 A 
HETATM   20  C   UNL     1      16.026  52.692  48.879  1.00  0.00     0.001 A 
HETATM   21  C   UNL     1      16.530  51.888  49.885  1.00  0.00     0.001 A 
HETATM   22  C   UNL     1      18.810  50.402  45.576  1.00  0.00     0.038 A 
HETATM   23  C   UNL     1      19.325  49.575  46.570  1.00  0.00     0.012 A 
BRANCH  19  24
HETATM   24  O   UNL     1      17.292  52.208  44.964  1.00  0.00    -0.355 OA
HETATM   25  C   UNL     1      17.311  51.808  43.600  1.00  0.00     0.210 C 
ENDBRANCH  19  24
ENDBRANCH   8  14
BRANCH  12  26
HETATM   26  N   UNL     1      23.155  47.598  48.709  1.00  0.00    -0.282 NA
HETATM   27  H   UNL     1      23.567  46.912  49.337  1.00  0.00     0.126 HD
HETATM   28  H   UNL     1      23.565  48.524  48.803  1.00  0.00     0.126 HD
ENDBRANCH  12  26
TORSDOF 3
ENDMDL
