MODEL 1
REMARK VINA RESULT:      -9.6      0.000      0.000
REMARK  5 active torsions:
REMARK  status: ('A' for Active; 'I' for Inactive)
REMARK    1  A    between atoms: C_6  and  N_7 
REMARK       I    between atoms: N_7  and  C_8 
REMARK    2  A    between atoms: C_8  and  C_9 
REMARK    3  A    between atoms: C_9  and  O_10 
REMARK    4  A    between atoms: O_10  and  C_11 
REMARK    5  A    between atoms: C_20  and  C_21 
ROOT
HETATM    1  C   UNL     1      26.862  43.584  49.810  1.00  0.00     0.073 C 
HETATM    2  C   UNL     1      26.574  44.059  51.186  1.00  0.00     0.065 A 
HETATM    3  N   UNL     1      26.711  43.224  52.224  1.00  0.00    -0.177 NA
HETATM    4  N   UNL     1      26.347  43.961  53.285  1.00  0.00    -0.262 N 
HETATM    5  H   UNL     1      26.402  43.535  54.206  1.00  0.00     0.191 HD
HETATM    6  C   UNL     1      25.978  45.243  52.973  1.00  0.00     0.137 A 
HETATM    7  C   UNL     1      26.125  45.341  51.602  1.00  0.00     0.046 A 
ENDROOT
BRANCH   6   8
HETATM    8  N   UNL     1      25.616  46.214  53.886  1.00  0.00    -0.309 N 
HETATM    9  C   UNL     1      26.434  47.048  54.603  1.00  0.00     0.247 C 
HETATM   10  O   UNL     1      25.942  48.024  55.174  1.00  0.00    -0.271 OA
HETATM   11  H   UNL     1      24.627  46.344  54.071  1.00  0.00     0.170 HD
BRANCH   9  12
HETATM   12  C   UNL     1      27.891  46.650  54.829  1.00  0.00     0.278 C 
BRANCH  12  13
HETATM   13  O   UNL     1      28.293  46.734  56.189  1.00  0.00    -0.342 OA
BRANCH  13  14
HETATM   14  C   UNL     1      29.283  45.861  56.563  1.00  0.00     0.072 A 
HETATM   15  C   UNL     1      29.662  44.940  55.583  1.00  0.00     0.082 A 
HETATM   16  C   UNL     1      30.659  44.006  55.858  1.00  0.00     0.157 A 
HETATM   17  F   UNL     1      31.023  43.138  54.905  1.00  0.00    -0.203 F 
HETATM   18  C   UNL     1      31.274  43.977  57.102  1.00  0.00     0.155 A 
HETATM   19  F   UNL     1      32.234  43.080  57.362  1.00  0.00    -0.203 F 
HETATM   20  C   UNL     1      30.898  44.877  58.090  1.00  0.00     0.048 A 
HETATM   21  C   UNL     1      29.900  45.820  57.822  1.00  0.00     0.040 A 
ENDBRANCH  13  14
ENDBRANCH  12  13
ENDBRANCH   9  12
ENDBRANCH   6   8
BRANCH   7  22
HETATM   22  C   UNL     1      25.678  46.476  50.818  1.00  0.00    -0.020 A 
HETATM   23  C   UNL     1      24.337  46.619  50.447  1.00  0.00     0.014 A 
HETATM   24  C   UNL     1      23.948  47.685  49.630  1.00  0.00     0.020 A 
HETATM   25  C   UNL     1      24.899  48.608  49.193  1.00  0.00     0.011 A 
HETATM   26 BR   UNL     1      24.376  50.035  48.070  1.00  0.00    -0.051 Br
HETATM   27  C   UNL     1      26.233  48.483  49.572  1.00  0.00     0.020 A 
HETATM   28  C   UNL     1      26.622  47.417  50.385  1.00  0.00     0.014 A 
ENDBRANCH   7  22
TORSDOF 5
ENDMDL
MODEL 2
REMARK VINA RESULT:      -8.9      4.863      8.369
REMARK  5 active torsions:
REMARK  status: ('A' for Active; 'I' for Inactive)
REMARK    1  A    between atoms: C_6  and  N_7 
REMARK       I    between atoms: N_7  and  C_8 
REMARK    2  A    between atoms: C_8  and  C_9 
REMARK    3  A    between atoms: C_9  and  O_10 
REMARK    4  A    between atoms: O_10  and  C_11 
REMARK    5  A    between atoms: C_20  and  C_21 
ROOT
HETATM    1  C   UNL     1      26.707  48.283  55.591  1.00  0.00     0.073 C 
HETATM    2  C   UNL     1      26.458  47.405  54.421  1.00  0.00     0.065 A 
HETATM    3  N   UNL     1      25.391  47.617  53.640  1.00  0.00    -0.177 NA
HETATM    4  N   UNL     1      25.461  46.642  52.720  1.00  0.00    -0.262 N 
HETATM    5  H   UNL     1      24.755  46.621  51.990  1.00  0.00     0.191 HD
HETATM    6  C   UNL     1      26.533  45.803  52.877  1.00  0.00     0.137 A 
HETATM    7  C   UNL     1      27.213  46.284  53.980  1.00  0.00     0.046 A 
ENDROOT
BRANCH   6   8
HETATM    8  N   UNL     1      26.860  44.760  52.035  1.00  0.00    -0.309 N 
HETATM    9  C   UNL     1      26.947  44.772  50.667  1.00  0.00     0.247 C 
HETATM   10  O   UNL     1      27.499  43.830  50.093  1.00  0.00    -0.271 OA
HETATM   11  H   UNL     1      27.061  43.858  52.454  1.00  0.00     0.170 HD
BRANCH   9  12
HETATM   12  C   UNL     1      26.201  45.849  49.881  1.00  0.00     0.278 C 
BRANCH  12  13
HETATM   13  O   UNL     1      26.831  47.121  49.934  1.00  0.00    -0.342 OA
BRANCH  13  14
HETATM   14  C   UNL     1      26.134  48.146  49.345  1.00  0.00     0.072 A 
HETATM   15  C   UNL     1      24.746  48.082  49.496  1.00  0.00     0.082 A 
HETATM   16  C   UNL     1      23.942  49.072  48.937  1.00  0.00     0.157 A 
HETATM   17  F   UNL     1      22.613  49.006  49.101  1.00  0.00    -0.203 F 
HETATM   18  C   UNL     1      24.506  50.119  48.222  1.00  0.00     0.155 A 
HETATM   19  F   UNL     1      23.730  51.071  47.687  1.00  0.00    -0.203 F 
HETATM   20  C   UNL     1      25.883  50.188  48.052  1.00  0.00     0.048 A 
HETATM   21  C   UNL     1      26.699  49.200  48.612  1.00  0.00     0.040 A 
ENDBRANCH  13  14
ENDBRANCH  12  13
ENDBRANCH   9  12
ENDBRANCH   6   8
BRANCH   7  22
HETATM   22  C   UNL     1      28.320  45.595  54.614  1.00  0.00    -0.020 A 
HETATM   23  C   UNL     1      28.605  44.256  54.323  1.00  0.00     0.014 A 
HETATM   24  C   UNL     1      29.633  43.597  55.002  1.00  0.00     0.020 A 
HETATM   25  C   UNL     1      30.380  44.280  55.964  1.00  0.00     0.011 A 
HETATM   26 BR   UNL     1      31.755  43.381  56.898  1.00  0.00    -0.051 Br
HETATM   27  C   UNL     1      30.115  45.617  56.247  1.00  0.00     0.020 A 
HETATM   28  C   UNL     1      29.086  46.274  55.571  1.00  0.00     0.014 A 
ENDBRANCH   7  22
TORSDOF 5
ENDMDL
MODEL 3
REMARK VINA RESULT:      -8.6     13.483     15.792
REMARK  5 active torsions:
REMARK  status: ('A' for Active; 'I' for Inactive)
REMARK    1  A    between atoms: C_6  and  N_7 
REMARK       I    between atoms: N_7  and  C_8 
REMARK    2  A    between atoms: C_8  and  C_9 
REMARK    3  A    between atoms: C_9  and  O_10 
REMARK    4  A    between atoms: O_10  and  C_11 
REMARK    5  A    between atoms: C_20  and  C_21 
ROOT
HETATM    1  C   UNL     1      32.166  51.880  44.792  1.00  0.00     0.073 C 
HETATM    2  C   UNL     1      33.358  51.696  43.927  1.00  0.00     0.065 A 
HETATM    3  N   UNL     1      34.457  52.431  44.137  1.00  0.00    -0.177 NA
HETATM    4  N   UNL     1      35.304  52.032  43.176  1.00  0.00    -0.262 N 
HETATM    5  H   UNL     1      36.234  52.442  43.157  1.00  0.00     0.191 HD
HETATM    6  C   UNL     1      34.794  51.066  42.349  1.00  0.00     0.137 A 
HETATM    7  C   UNL     1      33.520  50.816  42.823  1.00  0.00     0.046 A 
ENDROOT
BRANCH   6   8
HETATM    8  N   UNL     1      35.482  50.451  41.322  1.00  0.00    -0.309 N 
HETATM    9  C   UNL     1      35.727  50.931  40.062  1.00  0.00     0.247 C 
HETATM   10  O   UNL     1      36.572  50.369  39.360  1.00  0.00    -0.271 OA
HETATM   11  H   UNL     1      35.859  49.525  41.493  1.00  0.00     0.170 HD
BRANCH   9  12
HETATM   12  C   UNL     1      34.827  52.025  39.492  1.00  0.00     0.278 C 
BRANCH  12  13
HETATM   13  O   UNL     1      33.845  51.534  38.591  1.00  0.00    -0.342 OA
BRANCH  13  14
HETATM   14  C   UNL     1      32.547  51.844  38.912  1.00  0.00     0.072 A 
HETATM   15  C   UNL     1      32.398  52.822  39.899  1.00  0.00     0.082 A 
HETATM   16  C   UNL     1      31.123  53.212  40.302  1.00  0.00     0.157 A 
HETATM   17  F   UNL     1      30.994  54.161  41.239  1.00  0.00    -0.203 F 
HETATM   18  C   UNL     1      29.996  52.630  39.738  1.00  0.00     0.155 A 
HETATM   19  F   UNL     1      28.772  53.009  40.125  1.00  0.00    -0.203 F 
HETATM   20  C   UNL     1      30.129  51.647  38.766  1.00  0.00     0.048 A 
HETATM   21  C   UNL     1      31.406  51.251  38.352  1.00  0.00     0.040 A 
ENDBRANCH  13  14
ENDBRANCH  12  13
ENDBRANCH   9  12
ENDBRANCH   6   8
BRANCH   7  22
HETATM   22  C   UNL     1      32.550  49.984  42.139  1.00  0.00    -0.020 A 
HETATM   23  C   UNL     1      31.175  50.203  42.282  1.00  0.00     0.014 A 
HETATM   24  C   UNL     1      30.263  49.340  41.669  1.00  0.00     0.020 A 
HETATM   25  C   UNL     1      30.726  48.265  40.908  1.00  0.00     0.011 A 
HETATM   26 BR   UNL     1      29.491  47.085  40.099  1.00  0.00    -0.051 Br
HETATM   27  C   UNL     1      32.092  48.050  40.746  1.00  0.00     0.020 A 
HETATM   28  C   UNL     1      33.003  48.910  41.361  1.00  0.00     0.014 A 
ENDBRANCH   7  22
TORSDOF 5
ENDMDL
MODEL 4
REMARK VINA RESULT:      -8.5      2.650      3.812
REMARK  5 active torsions:
REMARK  status: ('A' for Active; 'I' for Inactive)
REMARK    1  A    between atoms: C_6  and  N_7 
REMARK       I    between atoms: N_7  and  C_8 
REMARK    2  A    between atoms: C_8  and  C_9 
REMARK    3  A    between atoms: C_9  and  O_10 
REMARK    4  A    between atoms: O_10  and  C_11 
REMARK    5  A    between atoms: C_20  and  C_21 
ROOT
HETATM    1  C   UNL     1      25.807  47.663  49.815  1.00  0.00     0.073 C 
HETATM    2  C   UNL     1      25.758  47.034  51.158  1.00  0.00     0.065 A 
HETATM    3  N   UNL     1      25.975  47.774  52.252  1.00  0.00    -0.177 NA
HETATM    4  N   UNL     1      25.886  46.896  53.263  1.00  0.00    -0.262 N 
HETATM    5  H   UNL     1      25.989  47.245  54.212  1.00  0.00     0.191 HD
HETATM    6  C   UNL     1      25.622  45.612  52.864  1.00  0.00     0.137 A 
HETATM    7  C   UNL     1      25.522  45.671  51.487  1.00  0.00     0.046 A 
ENDROOT
BRANCH   6   8
HETATM    8  N   UNL     1      25.428  44.538  53.710  1.00  0.00    -0.309 N 
HETATM    9  C   UNL     1      26.377  43.778  54.343  1.00  0.00     0.247 C 
HETATM   10  O   UNL     1      26.031  43.028  55.259  1.00  0.00    -0.271 OA
HETATM   11  H   UNL     1      24.474  44.250  53.899  1.00  0.00     0.170 HD
BRANCH   9  12
HETATM   12  C   UNL     1      27.798  43.738  53.783  1.00  0.00     0.278 C 
BRANCH  12  13
HETATM   13  O   UNL     1      28.577  44.869  54.144  1.00  0.00    -0.342 OA
BRANCH  13  14
HETATM   14  C   UNL     1      29.436  44.678  55.197  1.00  0.00     0.072 A 
HETATM   15  C   UNL     1      29.376  45.653  56.196  1.00  0.00     0.082 A 
HETATM   16  C   UNL     1      30.207  45.557  57.310  1.00  0.00     0.157 A 
HETATM   17  F   UNL     1      30.129  46.491  58.267  1.00  0.00    -0.203 F 
HETATM   18  C   UNL     1      31.102  44.504  57.432  1.00  0.00     0.155 A 
HETATM   19  F   UNL     1      31.898  44.413  58.506  1.00  0.00    -0.203 F 
HETATM   20  C   UNL     1      31.183  43.535  56.441  1.00  0.00     0.048 A 
HETATM   21  C   UNL     1      30.351  43.621  55.320  1.00  0.00     0.040 A 
ENDBRANCH  13  14
ENDBRANCH  12  13
ENDBRANCH   9  12
ENDBRANCH   6   8
BRANCH   7  22
HETATM   22  C   UNL     1      25.422  44.506  50.631  1.00  0.00    -0.020 A 
HETATM   23  C   UNL     1      24.184  43.916  50.349  1.00  0.00     0.014 A 
HETATM   24  C   UNL     1      24.125  42.750  49.579  1.00  0.00     0.020 A 
HETATM   25  C   UNL     1      25.301  42.183  49.086  1.00  0.00     0.011 A 
HETATM   26 BR   UNL     1      25.222  40.594  48.066  1.00  0.00    -0.051 Br
HETATM   27  C   UNL     1      26.535  42.773  49.347  1.00  0.00     0.020 A 
HETATM   28  C   UNL     1      26.594  43.935  50.119  1.00  0.00     0.014 A 
ENDBRANCH   7  22
TORSDOF 5
ENDMDL
MODEL 5
REMARK VINA RESULT:      -8.5     12.893     14.875
REMARK  5 active torsions:
REMARK  status: ('A' for Active; 'I' for Inactive)
REMARK    1  A    between atoms: C_6  and  N_7 
REMARK       I    between atoms: N_7  and  C_8 
REMARK    2  A    between atoms: C_8  and  C_9 
REMARK    3  A    between atoms: C_9  and  O_10 
REMARK    4  A    between atoms: O_10  and  C_11 
REMARK    5  A    between atoms: C_20  and  C_21 
ROOT
HETATM    1  C   UNL     1      28.009  45.473  40.386  1.00  0.00     0.073 C 
HETATM    2  C   UNL     1      27.463  46.816  40.703  1.00  0.00     0.065 A 
HETATM    3  N   UNL     1      26.154  47.057  40.563  1.00  0.00    -0.177 NA
HETATM    4  N   UNL     1      26.021  48.349  40.900  1.00  0.00    -0.262 N 
HETATM    5  H   UNL     1      25.089  48.752  40.897  1.00  0.00     0.191 HD
HETATM    6  C   UNL     1      27.198  48.957  41.252  1.00  0.00     0.137 A 
HETATM    7  C   UNL     1      28.163  47.973  41.142  1.00  0.00     0.046 A 
ENDROOT
BRANCH   6   8
HETATM    8  N   UNL     1      27.323  50.260  41.691  1.00  0.00    -0.309 N 
HETATM    9  C   UNL     1      27.392  51.403  40.938  1.00  0.00     0.247 C 
HETATM   10  O   UNL     1      27.242  52.495  41.492  1.00  0.00    -0.271 OA
HETATM   11  H   UNL     1      27.379  50.419  42.691  1.00  0.00     0.170 HD
BRANCH   9  12
HETATM   12  C   UNL     1      27.832  51.310  39.478  1.00  0.00     0.278 C 
BRANCH  12  13
HETATM   13  O   UNL     1      28.650  52.395  39.067  1.00  0.00    -0.342 OA
BRANCH  13  14
HETATM   14  C   UNL     1      29.981  52.101  38.910  1.00  0.00     0.072 A 
HETATM   15  C   UNL     1      30.791  52.420  40.003  1.00  0.00     0.082 A 
HETATM   16  C   UNL     1      32.159  52.164  39.950  1.00  0.00     0.157 A 
HETATM   17  F   UNL     1      32.922  52.461  41.011  1.00  0.00    -0.203 F 
HETATM   18  C   UNL     1      32.728  51.602  38.816  1.00  0.00     0.155 A 
HETATM   19  F   UNL     1      34.044  51.355  38.770  1.00  0.00    -0.203 F 
HETATM   20  C   UNL     1      31.938  51.293  37.717  1.00  0.00     0.048 A 
HETATM   21  C   UNL     1      30.563  51.543  37.762  1.00  0.00     0.040 A 
ENDBRANCH  13  14
ENDBRANCH  12  13
ENDBRANCH   9  12
ENDBRANCH   6   8
BRANCH   7  22
HETATM   22  C   UNL     1      29.587  48.219  41.252  1.00  0.00    -0.020 A 
HETATM   23  C   UNL     1      30.167  48.601  42.467  1.00  0.00     0.014 A 
HETATM   24  C   UNL     1      31.531  48.902  42.527  1.00  0.00     0.020 A 
HETATM   25  C   UNL     1      32.313  48.812  41.375  1.00  0.00     0.011 A 
HETATM   26 BR   UNL     1      34.152  49.241  41.451  1.00  0.00    -0.051 Br
HETATM   27  C   UNL     1      31.748  48.415  40.165  1.00  0.00     0.020 A 
HETATM   28  C   UNL     1      30.386  48.118  40.105  1.00  0.00     0.014 A 
ENDBRANCH   7  22
TORSDOF 5
ENDMDL
MODEL 6
REMARK VINA RESULT:      -8.5     13.338     14.916
REMARK  5 active torsions:
REMARK  status: ('A' for Active; 'I' for Inactive)
REMARK    1  A    between atoms: C_6  and  N_7 
REMARK       I    between atoms: N_7  and  C_8 
REMARK    2  A    between atoms: C_8  and  C_9 
REMARK    3  A    between atoms: C_9  and  O_10 
REMARK    4  A    between atoms: O_10  and  C_11 
REMARK    5  A    between atoms: C_20  and  C_21 
ROOT
HETATM    1  C   UNL     1      27.267  49.949  38.171  1.00  0.00     0.073 C 
HETATM    2  C   UNL     1      28.715  49.775  38.443  1.00  0.00     0.065 A 
HETATM    3  N   UNL     1      29.591  50.694  38.018  1.00  0.00    -0.177 NA
HETATM    4  N   UNL     1      30.783  50.211  38.403  1.00  0.00    -0.262 N 
HETATM    5  H   UNL     1      31.611  50.769  38.209  1.00  0.00     0.191 HD
HETATM    6  C   UNL     1      30.713  49.011  39.060  1.00  0.00     0.137 A 
HETATM    7  C   UNL     1      29.367  48.703  39.111  1.00  0.00     0.046 A 
ENDROOT
BRANCH   6   8
HETATM    8  N   UNL     1      31.786  48.335  39.603  1.00  0.00    -0.309 N 
HETATM    9  C   UNL     1      32.009  48.016  40.918  1.00  0.00     0.247 C 
HETATM   10  O   UNL     1      32.882  47.190  41.195  1.00  0.00    -0.271 OA
HETATM   11  H   UNL     1      32.520  48.028  38.973  1.00  0.00     0.170 HD
BRANCH   9  12
HETATM   12  C   UNL     1      31.305  48.820  42.010  1.00  0.00     0.278 C 
BRANCH  12  13
HETATM   13  O   UNL     1      31.937  50.059  42.292  1.00  0.00    -0.342 OA
BRANCH  13  14
HETATM   14  C   UNL     1      31.353  51.161  41.718  1.00  0.00     0.072 A 
HETATM   15  C   UNL     1      29.960  51.210  41.816  1.00  0.00     0.082 A 
HETATM   16  C   UNL     1      29.264  52.285  41.266  1.00  0.00     0.157 A 
HETATM   17  F   UNL     1      27.930  52.328  41.379  1.00  0.00    -0.203 F 
HETATM   18  C   UNL     1      29.943  53.304  40.613  1.00  0.00     0.155 A 
HETATM   19  F   UNL     1      29.271  54.337  40.088  1.00  0.00    -0.203 F 
HETATM   20  C   UNL     1      31.326  53.261  40.496  1.00  0.00     0.048 A 
HETATM   21  C   UNL     1      32.034  52.188  41.047  1.00  0.00     0.040 A 
ENDBRANCH  13  14
ENDBRANCH  12  13
ENDBRANCH   9  12
ENDBRANCH   6   8
BRANCH   7  22
HETATM   22  C   UNL     1      28.844  47.429  39.567  1.00  0.00    -0.020 A 
HETATM   23  C   UNL     1      29.167  46.235  38.913  1.00  0.00     0.014 A 
HETATM   24  C   UNL     1      28.590  45.032  39.330  1.00  0.00     0.020 A 
HETATM   25  C   UNL     1      27.699  45.024  40.404  1.00  0.00     0.011 A 
HETATM   26 BR   UNL     1      26.902  43.401  40.953  1.00  0.00    -0.051 Br
HETATM   27  C   UNL     1      27.385  46.206  41.072  1.00  0.00     0.020 A 
HETATM   28  C   UNL     1      27.959  47.407  40.653  1.00  0.00     0.014 A 
ENDBRANCH   7  22
TORSDOF 5
ENDMDL
MODEL 7
REMARK VINA RESULT:      -8.2     13.613     15.427
REMARK  5 active torsions:
REMARK  status: ('A' for Active; 'I' for Inactive)
REMARK    1  A    between atoms: C_6  and  N_7 
REMARK       I    between atoms: N_7  and  C_8 
REMARK    2  A    between atoms: C_8  and  C_9 
REMARK    3  A    between atoms: C_9  and  O_10 
REMARK    4  A    between atoms: O_10  and  C_11 
REMARK    5  A    between atoms: C_20  and  C_21 
ROOT
HETATM    1  C   UNL     1      32.761  47.683  41.573  1.00  0.00     0.073 C 
HETATM    2  C   UNL     1      32.222  48.906  40.927  1.00  0.00     0.065 A 
HETATM    3  N   UNL     1      31.320  48.801  39.943  1.00  0.00    -0.177 NA
HETATM    4  N   UNL     1      31.082  50.071  39.581  1.00  0.00    -0.262 N 
HETATM    5  H   UNL     1      30.393  50.241  38.855  1.00  0.00     0.191 HD
HETATM    6  C   UNL     1      31.799  50.997  40.293  1.00  0.00     0.137 A 
HETATM    7  C   UNL     1      32.550  50.263  41.191  1.00  0.00     0.046 A 
ENDROOT
BRANCH   6   8
HETATM    8  N   UNL     1      31.696  52.366  40.152  1.00  0.00    -0.309 N 
HETATM    9  C   UNL     1      31.028  53.252  40.957  1.00  0.00     0.247 C 
HETATM   10  O   UNL     1      31.251  54.459  40.835  1.00  0.00    -0.271 OA
HETATM   11  H   UNL     1      32.159  52.797  39.358  1.00  0.00     0.170 HD
BRANCH   9  12
HETATM   12  C   UNL     1      29.897  52.743  41.849  1.00  0.00     0.278 C 
BRANCH  12  13
HETATM   13  O   UNL     1      28.607  52.931  41.286  1.00  0.00    -0.342 OA
BRANCH  13  14
HETATM   14  C   UNL     1      28.160  51.908  40.488  1.00  0.00     0.072 A 
HETATM   15  C   UNL     1      27.769  50.753  41.170  1.00  0.00     0.082 A 
HETATM   16  C   UNL     1      27.300  49.652  40.456  1.00  0.00     0.157 A 
HETATM   17  F   UNL     1      26.915  48.555  41.123  1.00  0.00    -0.203 F 
HETATM   18  C   UNL     1      27.225  49.689  39.071  1.00  0.00     0.155 A 
HETATM   19  F   UNL     1      26.771  48.630  38.388  1.00  0.00    -0.203 F 
HETATM   20  C   UNL     1      27.623  50.826  38.379  1.00  0.00     0.048 A 
HETATM   21  C   UNL     1      28.093  51.937  39.087  1.00  0.00     0.040 A 
ENDBRANCH  13  14
ENDBRANCH  12  13
ENDBRANCH   9  12
ENDBRANCH   6   8
BRANCH   7  22
HETATM   22  C   UNL     1      33.590  50.828  42.030  1.00  0.00    -0.020 A 
HETATM   23  C   UNL     1      33.289  51.416  43.264  1.00  0.00     0.014 A 
HETATM   24  C   UNL     1      34.302  52.016  44.017  1.00  0.00     0.020 A 
HETATM   25  C   UNL     1      35.613  52.021  43.540  1.00  0.00     0.011 A 
HETATM   26 BR   UNL     1      36.978  52.853  44.548  1.00  0.00    -0.051 Br
HETATM   27  C   UNL     1      35.925  51.423  42.321  1.00  0.00     0.020 A 
HETATM   28  C   UNL     1      34.913  50.826  41.568  1.00  0.00     0.014 A 
ENDBRANCH   7  22
TORSDOF 5
ENDMDL
MODEL 8
REMARK VINA RESULT:      -8.0     13.085     15.192
REMARK  5 active torsions:
REMARK  status: ('A' for Active; 'I' for Inactive)
REMARK    1  A    between atoms: C_6  and  N_7 
REMARK       I    between atoms: N_7  and  C_8 
REMARK    2  A    between atoms: C_8  and  C_9 
REMARK    3  A    between atoms: C_9  and  O_10 
REMARK    4  A    between atoms: O_10  and  C_11 
REMARK    5  A    between atoms: C_20  and  C_21 
ROOT
HETATM    1  C   UNL     1      26.096  49.538  38.684  1.00  0.00     0.073 C 
HETATM    2  C   UNL     1      26.973  49.629  39.877  1.00  0.00     0.065 A 
HETATM    3  N   UNL     1      26.995  50.751  40.608  1.00  0.00    -0.177 NA
HETATM    4  N   UNL     1      27.900  50.497  41.567  1.00  0.00    -0.262 N 
HETATM    5  H   UNL     1      28.064  51.212  42.271  1.00  0.00     0.191 HD
HETATM    6  C   UNL     1      28.467  49.253  41.484  1.00  0.00     0.137 A 
HETATM    7  C   UNL     1      27.872  48.654  40.390  1.00  0.00     0.046 A 
ENDROOT
BRANCH   6   8
HETATM    8  N   UNL     1      29.379  48.731  42.379  1.00  0.00    -0.309 N 
HETATM    9  C   UNL     1      30.747  48.805  42.334  1.00  0.00     0.247 C 
HETATM   10  O   UNL     1      31.397  48.512  43.340  1.00  0.00    -0.271 OA
HETATM   11  H   UNL     1      29.019  48.218  43.177  1.00  0.00     0.170 HD
BRANCH   9  12
HETATM   12  C   UNL     1      31.435  49.068  40.996  1.00  0.00     0.278 C 
BRANCH  12  13
HETATM   13  O   UNL     1      31.774  50.433  40.796  1.00  0.00    -0.342 OA
BRANCH  13  14
HETATM   14  C   UNL     1      30.936  51.129  39.960  1.00  0.00     0.072 A 
HETATM   15  C   UNL     1      30.515  52.370  40.444  1.00  0.00     0.082 A 
HETATM   16  C   UNL     1      29.662  53.160  39.676  1.00  0.00     0.157 A 
HETATM   17  F   UNL     1      29.276  54.354  40.146  1.00  0.00    -0.203 F 
HETATM   18  C   UNL     1      29.218  52.720  38.437  1.00  0.00     0.155 A 
HETATM   19  F   UNL     1      28.400  53.483  37.701  1.00  0.00    -0.203 F 
HETATM   20  C   UNL     1      29.618  51.483  37.950  1.00  0.00     0.048 A 
HETATM   21  C   UNL     1      30.477  50.684  38.712  1.00  0.00     0.040 A 
ENDBRANCH  13  14
ENDBRANCH  12  13
ENDBRANCH   9  12
ENDBRANCH   6   8
BRANCH   7  22
HETATM   22  C   UNL     1      28.299  47.388  39.827  1.00  0.00    -0.020 A 
HETATM   23  C   UNL     1      29.110  47.336  38.688  1.00  0.00     0.014 A 
HETATM   24  C   UNL     1      29.447  46.101  38.126  1.00  0.00     0.020 A 
HETATM   25  C   UNL     1      28.979  44.922  38.708  1.00  0.00     0.011 A 
HETATM   26 BR   UNL     1      29.415  43.254  37.933  1.00  0.00    -0.051 Br
HETATM   27  C   UNL     1      28.185  44.964  39.851  1.00  0.00     0.020 A 
HETATM   28  C   UNL     1      27.847  46.197  40.411  1.00  0.00     0.014 A 
ENDBRANCH   7  22
TORSDOF 5
ENDMDL
MODEL 9
REMARK VINA RESULT:      -8.0      5.155      7.987
REMARK  5 active torsions:
REMARK  status: ('A' for Active; 'I' for Inactive)
REMARK    1  A    between atoms: C_6  and  N_7 
REMARK       I    between atoms: N_7  and  C_8 
REMARK    2  A    between atoms: C_8  and  C_9 
REMARK    3  A    between atoms: C_9  and  O_10 
REMARK    4  A    between atoms: O_10  and  C_11 
REMARK    5  A    between atoms: C_20  and  C_21 
ROOT
HETATM    1  C   UNL     1      26.253  47.363  51.467  1.00  0.00     0.073 C 
HETATM    2  C   UNL     1      25.660  46.028  51.205  1.00  0.00     0.065 A 
HETATM    3  N   UNL     1      24.539  45.924  50.479  1.00  0.00    -0.177 NA
HETATM    4  N   UNL     1      24.277  44.608  50.469  1.00  0.00    -0.262 N 
HETATM    5  H   UNL     1      23.472  44.284  49.942  1.00  0.00     0.191 HD
HETATM    6  C   UNL     1      25.186  43.853  51.164  1.00  0.00     0.137 A 
HETATM    7  C   UNL     1      26.112  44.756  51.651  1.00  0.00     0.046 A 
ENDROOT
BRANCH   6   8
HETATM    8  N   UNL     1      25.173  42.476  51.259  1.00  0.00    -0.309 N 
HETATM    9  C   UNL     1      25.815  41.566  50.461  1.00  0.00     0.247 C 
HETATM   10  O   UNL     1      25.906  40.396  50.838  1.00  0.00    -0.271 OA
HETATM   11  H   UNL     1      24.622  42.059  52.002  1.00  0.00     0.170 HD
BRANCH   9  12
HETATM   12  C   UNL     1      26.236  41.977  49.051  1.00  0.00     0.278 C 
BRANCH  12  13
HETATM   13  O   UNL     1      27.612  41.748  48.785  1.00  0.00    -0.342 OA
BRANCH  13  14
HETATM   14  C   UNL     1      27.906  40.531  48.221  1.00  0.00     0.072 A 
HETATM   15  C   UNL     1      28.752  39.717  48.978  1.00  0.00     0.082 A 
HETATM   16  C   UNL     1      29.116  38.460  48.499  1.00  0.00     0.157 A 
HETATM   17  F   UNL     1      29.917  37.683  49.241  1.00  0.00    -0.203 F 
HETATM   18  C   UNL     1      28.652  38.013  47.270  1.00  0.00     0.155 A 
HETATM   19  F   UNL     1      29.001  36.803  46.813  1.00  0.00    -0.203 F 
HETATM   20  C   UNL     1      27.821  38.817  46.501  1.00  0.00     0.048 A 
HETATM   21  C   UNL     1      27.448  40.079  46.975  1.00  0.00     0.040 A 
ENDBRANCH  13  14
ENDBRANCH  12  13
ENDBRANCH   9  12
ENDBRANCH   6   8
BRANCH   7  22
HETATM   22  C   UNL     1      27.160  44.414  52.593  1.00  0.00    -0.020 A 
HETATM   23  C   UNL     1      27.075  44.783  53.940  1.00  0.00     0.014 A 
HETATM   24  C   UNL     1      28.132  44.503  54.810  1.00  0.00     0.020 A 
HETATM   25  C   UNL     1      29.269  43.848  54.333  1.00  0.00     0.011 A 
HETATM   26 BR   UNL     1      30.708  43.490  55.504  1.00  0.00    -0.051 Br
HETATM   27  C   UNL     1      29.355  43.461  52.998  1.00  0.00     0.020 A 
HETATM   28  C   UNL     1      28.300  43.744  52.129  1.00  0.00     0.014 A 
ENDBRANCH   7  22
TORSDOF 5
ENDMDL
MODEL 10
REMARK VINA RESULT:      -7.9     13.113     15.050
REMARK  5 active torsions:
REMARK  status: ('A' for Active; 'I' for Inactive)
REMARK    1  A    between atoms: C_6  and  N_7 
REMARK       I    between atoms: N_7  and  C_8 
REMARK    2  A    between atoms: C_8  and  C_9 
REMARK    3  A    between atoms: C_9  and  O_10 
REMARK    4  A    between atoms: O_10  and  C_11 
REMARK    5  A    between atoms: C_20  and  C_21 
ROOT
HETATM    1  C   UNL     1      28.490  53.371  37.931  1.00  0.00     0.073 C 
HETATM    2  C   UNL     1      28.626  51.915  38.182  1.00  0.00     0.065 A 
HETATM    3  N   UNL     1      27.540  51.132  38.181  1.00  0.00    -0.177 NA
HETATM    4  N   UNL     1      28.018  49.910  38.466  1.00  0.00    -0.262 N 
HETATM    5  H   UNL     1      27.364  49.133  38.489  1.00  0.00     0.191 HD
HETATM    6  C   UNL     1      29.375  49.873  38.653  1.00  0.00     0.137 A 
HETATM    7  C   UNL     1      29.805  51.172  38.463  1.00  0.00     0.046 A 
ENDROOT
BRANCH   6   8
HETATM    8  N   UNL     1      30.115  48.734  38.900  1.00  0.00    -0.309 N 
HETATM    9  C   UNL     1      30.315  48.098  40.098  1.00  0.00     0.247 C 
HETATM   10  O   UNL     1      30.784  46.957  40.100  1.00  0.00    -0.271 OA
HETATM   11  H   UNL     1      30.584  48.295  38.115  1.00  0.00     0.170 HD
BRANCH   9  12
HETATM   12  C   UNL     1      30.129  48.879  41.397  1.00  0.00     0.278 C 
BRANCH  12  13
HETATM   13  O   UNL     1      31.073  48.536  42.400  1.00  0.00    -0.342 OA
BRANCH  13  14
HETATM   14  C   UNL     1      32.142  49.390  42.517  1.00  0.00     0.072 A 
HETATM   15  C   UNL     1      31.973  50.427  43.439  1.00  0.00     0.082 A 
HETATM   16  C   UNL     1      32.996  51.352  43.636  1.00  0.00     0.157 A 
HETATM   17  F   UNL     1      32.827  52.333  44.533  1.00  0.00    -0.203 F 
HETATM   18  C   UNL     1      34.179  51.258  42.918  1.00  0.00     0.155 A 
HETATM   19  F   UNL     1      35.162  52.148  43.111  1.00  0.00    -0.203 F 
HETATM   20  C   UNL     1      34.355  50.241  41.989  1.00  0.00     0.048 A 
HETATM   21  C   UNL     1      33.335  49.305  41.786  1.00  0.00     0.040 A 
ENDBRANCH  13  14
ENDBRANCH  12  13
ENDBRANCH   9  12
ENDBRANCH   6   8
BRANCH   7  22
HETATM   22  C   UNL     1      31.154  51.628  38.737  1.00  0.00    -0.020 A 
HETATM   23  C   UNL     1      32.250  51.114  38.036  1.00  0.00     0.014 A 
HETATM   24  C   UNL     1      33.546  51.518  38.370  1.00  0.00     0.020 A 
HETATM   25  C   UNL     1      33.742  52.441  39.399  1.00  0.00     0.011 A 
HETATM   26 BR   UNL     1      35.495  52.970  39.866  1.00  0.00    -0.051 Br
HETATM   27  C   UNL     1      32.655  52.971  40.091  1.00  0.00     0.020 A 
HETATM   28  C   UNL     1      31.362  52.564  39.758  1.00  0.00     0.014 A 
ENDBRANCH   7  22
TORSDOF 5
ENDMDL
