MODEL 1
REMARK VINA RESULT:      -8.3      0.000      0.000
REMARK  7 active torsions:
REMARK  status: ('A' for Active; 'I' for Inactive)
REMARK    1  A    between atoms: O_2  and  C_3 
REMARK    2  A    between atoms: C_6  and  C_7 
REMARK    3  A    between atoms: C_7  and  N_8 
REMARK    4  A    between atoms: N_8  and  C_11 
REMARK    5  A    between atoms: C_11  and  C_12 
REMARK    6  A    between atoms: C_11  and  C_20 
REMARK       I    between atoms: C_12  and  N_13 
REMARK    7  A    between atoms: N_13  and  C_14 
ROOT
HETATM    1  C   UNL     1      28.055  43.729  53.788  1.00  0.00     0.310 C 
ENDROOT
BRANCH   1   2
HETATM    2  N   UNL     1      26.849  43.050  54.409  1.00  0.00    -0.054 N 
HETATM    3  H   UNL     1      27.172  42.699  55.324  1.00  0.00     0.278 HD
HETATM    4  H   UNL     1      26.554  42.237  53.861  1.00  0.00     0.278 HD
BRANCH   2   5
HETATM    5  C   UNL     1      25.668  43.910  54.703  1.00  0.00     0.272 C 
BRANCH   5   6
HETATM    6  C   UNL     1      25.489  44.946  53.632  1.00  0.00    -0.033 A 
HETATM    7  C   UNL     1      24.984  44.585  52.373  1.00  0.00     0.011 A 
HETATM    8  C   UNL     1      24.840  45.541  51.361  1.00  0.00     0.037 A 
HETATM    9  C   UNL     1      25.200  46.867  51.593  1.00  0.00     0.068 A 
HETATM   10  C   UNL     1      25.715  47.225  52.841  1.00  0.00     0.037 A 
HETATM   11  C   UNL     1      25.861  46.278  53.855  1.00  0.00     0.011 A 
BRANCH   9  12
HETATM   12  O   UNL     1      25.109  47.895  50.699  1.00  0.00    -0.356 OA
HETATM   13  C   UNL     1      24.044  47.842  49.757  1.00  0.00     0.210 C 
ENDBRANCH   9  12
ENDBRANCH   5   6
ENDBRANCH   2   5
ENDBRANCH   1   2
BRANCH   1  14
HETATM   14  C   UNL     1      28.462  42.995  52.488  1.00  0.00     0.259 C 
HETATM   15  N   UNL     1      27.585  42.036  52.042  1.00  0.00    -0.304 N 
HETATM   16  H   UNL     1      26.724  41.805  52.522  1.00  0.00     0.171 HD
HETATM   17  O   UNL     1      29.552  43.296  51.995  1.00  0.00    -0.270 OA
BRANCH  15  18
HETATM   18  C   UNL     1      27.785  41.385  50.855  1.00  0.00     0.172 A 
HETATM   19  S   UNL     1      27.054  42.134  49.508  1.00  0.00    -0.062 SA
HETATM   20  C   UNL     1      27.699  40.901  48.503  1.00  0.00     0.072 A 
HETATM   21  C   UNL     1      28.424  40.014  49.272  1.00  0.00     0.126 A 
HETATM   22  N   UNL     1      28.474  40.301  50.623  1.00  0.00    -0.236 NA
ENDBRANCH  15  18
ENDBRANCH   1  14
BRANCH   1  23
HETATM   23  C   UNL     1      29.161  43.976  54.792  1.00  0.00    -0.019 A 
HETATM   24  C   UNL     1      29.238  45.222  55.441  1.00  0.00     0.010 A 
HETATM   25  C   UNL     1      30.225  45.466  56.396  1.00  0.00     0.001 A 
HETATM   26  C   UNL     1      31.142  44.471  56.723  1.00  0.00     0.000 A 
HETATM   27  C   UNL     1      31.075  43.228  56.097  1.00  0.00     0.001 A 
HETATM   28  C   UNL     1      30.089  42.978  55.141  1.00  0.00     0.010 A 
ENDBRANCH   1  23
TORSDOF 7
ENDMDL
MODEL 2
REMARK VINA RESULT:      -8.0      3.000      6.801
REMARK  7 active torsions:
REMARK  status: ('A' for Active; 'I' for Inactive)
REMARK    1  A    between atoms: O_2  and  C_3 
REMARK    2  A    between atoms: C_6  and  C_7 
REMARK    3  A    between atoms: C_7  and  N_8 
REMARK    4  A    between atoms: N_8  and  C_11 
REMARK    5  A    between atoms: C_11  and  C_12 
REMARK    6  A    between atoms: C_11  and  C_20 
REMARK       I    between atoms: C_12  and  N_13 
REMARK    7  A    between atoms: N_13  and  C_14 
ROOT
HETATM    1  C   UNL     1      26.108  45.363  52.163  1.00  0.00     0.310 C 
ENDROOT
BRANCH   1   2
HETATM    2  N   UNL     1      25.424  45.275  53.514  1.00  0.00    -0.054 N 
HETATM    3  H   UNL     1      24.419  45.169  53.307  1.00  0.00     0.278 HD
HETATM    4  H   UNL     1      25.534  46.142  54.046  1.00  0.00     0.278 HD
BRANCH   2   5
HETATM    5  C   UNL     1      25.781  44.112  54.375  1.00  0.00     0.272 C 
BRANCH   5   6
HETATM    6  C   UNL     1      27.248  44.121  54.693  1.00  0.00    -0.033 A 
HETATM    7  C   UNL     1      28.055  43.024  54.351  1.00  0.00     0.011 A 
HETATM    8  C   UNL     1      29.418  43.015  54.668  1.00  0.00     0.037 A 
HETATM    9  C   UNL     1      29.991  44.099  55.331  1.00  0.00     0.068 A 
HETATM   10  C   UNL     1      29.187  45.185  55.682  1.00  0.00     0.037 A 
HETATM   11  C   UNL     1      27.827  45.202  55.370  1.00  0.00     0.011 A 
BRANCH   9  12
HETATM   12  O   UNL     1      31.301  44.219  55.695  1.00  0.00    -0.356 OA
HETATM   13  C   UNL     1      31.700  43.581  56.903  1.00  0.00     0.210 C 
ENDBRANCH   9  12
ENDBRANCH   5   6
ENDBRANCH   2   5
ENDBRANCH   1   2
BRANCH   1  14
HETATM   14  C   UNL     1      25.868  46.760  51.541  1.00  0.00     0.259 C 
HETATM   15  N   UNL     1      26.360  46.942  50.270  1.00  0.00    -0.304 N 
HETATM   16  H   UNL     1      26.857  46.222  49.759  1.00  0.00     0.171 HD
HETATM   17  O   UNL     1      25.304  47.597  52.249  1.00  0.00    -0.270 OA
BRANCH  15  18
HETATM   18  C   UNL     1      26.129  48.098  49.577  1.00  0.00     0.172 A 
HETATM   19  S   UNL     1      27.538  48.892  49.038  1.00  0.00    -0.062 SA
HETATM   20  C   UNL     1      26.553  50.096  48.311  1.00  0.00     0.072 A 
HETATM   21  C   UNL     1      25.225  49.799  48.534  1.00  0.00     0.126 A 
HETATM   22  N   UNL     1      24.986  48.645  49.258  1.00  0.00    -0.236 NA
ENDBRANCH  15  18
ENDBRANCH   1  14
BRANCH   1  23
HETATM   23  C   UNL     1      25.798  44.174  51.278  1.00  0.00    -0.019 A 
HETATM   24  C   UNL     1      26.854  43.388  50.784  1.00  0.00     0.010 A 
HETATM   25  C   UNL     1      26.597  42.267  49.995  1.00  0.00     0.001 A 
HETATM   26  C   UNL     1      25.285  41.909  49.696  1.00  0.00     0.000 A 
HETATM   27  C   UNL     1      24.227  42.670  50.185  1.00  0.00     0.001 A 
HETATM   28  C   UNL     1      24.478  43.793  50.974  1.00  0.00     0.010 A 
ENDBRANCH   1  23
TORSDOF 7
ENDMDL
MODEL 3
REMARK VINA RESULT:      -7.8      1.869      2.374
REMARK  7 active torsions:
REMARK  status: ('A' for Active; 'I' for Inactive)
REMARK    1  A    between atoms: O_2  and  C_3 
REMARK    2  A    between atoms: C_6  and  C_7 
REMARK    3  A    between atoms: C_7  and  N_8 
REMARK    4  A    between atoms: N_8  and  C_11 
REMARK    5  A    between atoms: C_11  and  C_12 
REMARK    6  A    between atoms: C_11  and  C_20 
REMARK       I    between atoms: C_12  and  N_13 
REMARK    7  A    between atoms: N_13  and  C_14 
ROOT
HETATM    1  C   UNL     1      27.893  42.876  52.815  1.00  0.00     0.310 C 
ENDROOT
BRANCH   1   2
HETATM    2  N   UNL     1      26.409  43.086  53.048  1.00  0.00    -0.054 N 
HETATM    3  H   UNL     1      26.340  43.931  53.637  1.00  0.00     0.278 HD
HETATM    4  H   UNL     1      26.001  42.312  53.580  1.00  0.00     0.278 HD
BRANCH   2   5
HETATM    5  C   UNL     1      25.571  43.364  51.848  1.00  0.00     0.272 C 
BRANCH   5   6
HETATM    6  C   UNL     1      25.824  44.753  51.337  1.00  0.00    -0.033 A 
HETATM    7  C   UNL     1      26.508  44.950  50.128  1.00  0.00     0.011 A 
HETATM    8  C   UNL     1      26.770  46.243  49.660  1.00  0.00     0.037 A 
HETATM    9  C   UNL     1      26.355  47.352  50.394  1.00  0.00     0.068 A 
HETATM   10  C   UNL     1      25.685  47.157  51.604  1.00  0.00     0.037 A 
HETATM   11  C   UNL     1      25.420  45.871  52.077  1.00  0.00     0.011 A 
BRANCH   9  12
HETATM   12  O   UNL     1      26.543  48.661  50.052  1.00  0.00    -0.356 OA
HETATM   13  C   UNL     1      27.442  48.929  48.983  1.00  0.00     0.210 C 
ENDBRANCH   9  12
ENDBRANCH   5   6
ENDBRANCH   2   5
ENDBRANCH   1   2
BRANCH   1  14
HETATM   14  C   UNL     1      28.171  41.388  52.491  1.00  0.00     0.259 C 
HETATM   15  N   UNL     1      28.557  41.119  51.199  1.00  0.00    -0.304 N 
HETATM   16  H   UNL     1      28.653  41.834  50.488  1.00  0.00     0.171 HD
HETATM   17  O   UNL     1      27.977  40.574  53.396  1.00  0.00    -0.270 OA
BRANCH  15  18
HETATM   18  C   UNL     1      28.923  39.858  50.814  1.00  0.00     0.172 A 
HETATM   19  S   UNL     1      28.566  39.486  49.189  1.00  0.00    -0.062 SA
HETATM   20  C   UNL     1      29.265  37.934  49.417  1.00  0.00     0.072 A 
HETATM   21  C   UNL     1      29.718  37.821  50.715  1.00  0.00     0.126 A 
HETATM   22  N   UNL     1      29.524  38.933  51.513  1.00  0.00    -0.236 NA
ENDBRANCH  15  18
ENDBRANCH   1  14
BRANCH   1  23
HETATM   23  C   UNL     1      28.743  43.493  53.907  1.00  0.00    -0.019 A 
HETATM   24  C   UNL     1      29.964  42.888  54.254  1.00  0.00     0.010 A 
HETATM   25  C   UNL     1      30.784  43.452  55.231  1.00  0.00     0.001 A 
HETATM   26  C   UNL     1      30.403  44.630  55.868  1.00  0.00     0.000 A 
HETATM   27  C   UNL     1      29.202  45.248  55.529  1.00  0.00     0.001 A 
HETATM   28  C   UNL     1      28.377  44.687  54.553  1.00  0.00     0.010 A 
ENDBRANCH   1  23
TORSDOF 7
ENDMDL
MODEL 4
REMARK VINA RESULT:      -7.8      2.335      6.416
REMARK  7 active torsions:
REMARK  status: ('A' for Active; 'I' for Inactive)
REMARK    1  A    between atoms: O_2  and  C_3 
REMARK    2  A    between atoms: C_6  and  C_7 
REMARK    3  A    between atoms: C_7  and  N_8 
REMARK    4  A    between atoms: N_8  and  C_11 
REMARK    5  A    between atoms: C_11  and  C_12 
REMARK    6  A    between atoms: C_11  and  C_20 
REMARK       I    between atoms: C_12  and  N_13 
REMARK    7  A    between atoms: N_13  and  C_14 
ROOT
HETATM    1  C   UNL     1      25.282  46.919  50.891  1.00  0.00     0.310 C 
ENDROOT
BRANCH   1   2
HETATM    2  N   UNL     1      26.290  47.133  52.004  1.00  0.00    -0.054 N 
HETATM    3  H   UNL     1      26.424  48.154  52.060  1.00  0.00     0.278 HD
HETATM    4  H   UNL     1      27.197  46.721  51.771  1.00  0.00     0.278 HD
BRANCH   2   5
HETATM    5  C   UNL     1      25.884  46.706  53.373  1.00  0.00     0.272 C 
BRANCH   5   6
HETATM    6  C   UNL     1      27.063  46.172  54.131  1.00  0.00    -0.033 A 
HETATM    7  C   UNL     1      27.745  46.986  55.049  1.00  0.00     0.011 A 
HETATM    8  C   UNL     1      28.862  46.502  55.739  1.00  0.00     0.037 A 
HETATM    9  C   UNL     1      29.313  45.202  55.521  1.00  0.00     0.068 A 
HETATM   10  C   UNL     1      28.643  44.395  54.599  1.00  0.00     0.037 A 
HETATM   11  C   UNL     1      27.528  44.870  53.906  1.00  0.00     0.011 A 
BRANCH   9  12
HETATM   12  O   UNL     1      30.382  44.607  56.127  1.00  0.00    -0.356 OA
HETATM   13  C   UNL     1      30.759  43.317  55.659  1.00  0.00     0.210 C 
ENDBRANCH   9  12
ENDBRANCH   5   6
ENDBRANCH   2   5
ENDBRANCH   1   2
BRANCH   1  14
HETATM   14  C   UNL     1      25.351  45.457  50.391  1.00  0.00     0.259 C 
HETATM   15  N   UNL     1      26.590  44.863  50.444  1.00  0.00    -0.304 N 
HETATM   16  H   UNL     1      27.418  45.338  50.781  1.00  0.00     0.171 HD
HETATM   17  O   UNL     1      24.309  44.969  49.946  1.00  0.00    -0.270 OA
BRANCH  15  18
HETATM   18  C   UNL     1      26.762  43.545  50.121  1.00  0.00     0.172 A 
HETATM   19  S   UNL     1      26.677  42.477  51.447  1.00  0.00    -0.062 SA
HETATM   20  C   UNL     1      26.925  41.161  50.371  1.00  0.00     0.072 A 
HETATM   21  C   UNL     1      27.052  41.639  49.084  1.00  0.00     0.126 A 
HETATM   22  N   UNL     1      26.951  43.010  48.944  1.00  0.00    -0.236 NA
ENDBRANCH  15  18
ENDBRANCH   1  14
BRANCH   1  23
HETATM   23  C   UNL     1      25.356  47.995  49.828  1.00  0.00    -0.019 A 
HETATM   24  C   UNL     1      24.167  48.495  49.268  1.00  0.00     0.010 A 
HETATM   25  C   UNL     1      24.204  49.510  48.312  1.00  0.00     0.001 A 
HETATM   26  C   UNL     1      25.423  50.045  47.908  1.00  0.00     0.000 A 
HETATM   27  C   UNL     1      26.610  49.568  48.459  1.00  0.00     0.001 A 
HETATM   28  C   UNL     1      26.580  48.553  49.415  1.00  0.00     0.010 A 
ENDBRANCH   1  23
TORSDOF 7
ENDMDL
MODEL 5
REMARK VINA RESULT:      -7.7      1.534      2.154
REMARK  7 active torsions:
REMARK  status: ('A' for Active; 'I' for Inactive)
REMARK    1  A    between atoms: O_2  and  C_3 
REMARK    2  A    between atoms: C_6  and  C_7 
REMARK    3  A    between atoms: C_7  and  N_8 
REMARK    4  A    between atoms: N_8  and  C_11 
REMARK    5  A    between atoms: C_11  and  C_12 
REMARK    6  A    between atoms: C_11  and  C_20 
REMARK       I    between atoms: C_12  and  N_13 
REMARK    7  A    between atoms: N_13  and  C_14 
ROOT
HETATM    1  C   UNL     1      28.449  44.886  54.429  1.00  0.00     0.310 C 
ENDROOT
BRANCH   1   2
HETATM    2  N   UNL     1      27.223  45.686  54.825  1.00  0.00    -0.054 N 
HETATM    3  H   UNL     1      27.415  46.031  55.778  1.00  0.00     0.278 HD
HETATM    4  H   UNL     1      26.391  45.092  54.881  1.00  0.00     0.278 HD
BRANCH   2   5
HETATM    5  C   UNL     1      26.918  46.898  54.014  1.00  0.00     0.272 C 
BRANCH   5   6
HETATM    6  C   UNL     1      26.164  46.526  52.770  1.00  0.00    -0.033 A 
HETATM    7  C   UNL     1      26.296  47.295  51.604  1.00  0.00     0.011 A 
HETATM    8  C   UNL     1      25.575  46.969  50.449  1.00  0.00     0.037 A 
HETATM    9  C   UNL     1      24.715  45.872  50.446  1.00  0.00     0.068 A 
HETATM   10  C   UNL     1      24.574  45.113  51.610  1.00  0.00     0.037 A 
HETATM   11  C   UNL     1      25.289  45.433  52.765  1.00  0.00     0.011 A 
BRANCH   9  12
HETATM   12  O   UNL     1      23.960  45.444  49.392  1.00  0.00    -0.356 OA
HETATM   13  C   UNL     1      22.986  46.348  48.882  1.00  0.00     0.210 C 
ENDBRANCH   9  12
ENDBRANCH   5   6
ENDBRANCH   2   5
ENDBRANCH   1   2
BRANCH   1  14
HETATM   14  C   UNL     1      28.021  43.588  53.704  1.00  0.00     0.259 C 
HETATM   15  N   UNL     1      28.417  43.477  52.392  1.00  0.00    -0.304 N 
HETATM   16  H   UNL     1      28.950  44.191  51.911  1.00  0.00     0.171 HD
HETATM   17  O   UNL     1      27.326  42.795  54.343  1.00  0.00    -0.270 OA
BRANCH  15  18
HETATM   18  C   UNL     1      28.182  42.337  51.673  1.00  0.00     0.172 A 
HETATM   19  S   UNL     1      27.048  42.518  50.413  1.00  0.00    -0.062 SA
HETATM   20  C   UNL     1      27.282  40.868  49.998  1.00  0.00     0.072 A 
HETATM   21  C   UNL     1      28.209  40.307  50.851  1.00  0.00     0.126 A 
HETATM   22  N   UNL     1      28.728  41.158  51.809  1.00  0.00    -0.236 NA
ENDBRANCH  15  18
ENDBRANCH   1  14
BRANCH   1  23
HETATM   23  C   UNL     1      29.427  44.722  55.574  1.00  0.00    -0.019 A 
HETATM   24  C   UNL     1      30.370  43.679  55.530  1.00  0.00     0.010 A 
HETATM   25  C   UNL     1      31.306  43.524  56.553  1.00  0.00     0.001 A 
HETATM   26  C   UNL     1      31.319  44.409  57.628  1.00  0.00     0.000 A 
HETATM   27  C   UNL     1      30.398  45.453  57.682  1.00  0.00     0.001 A 
HETATM   28  C   UNL     1      29.460  45.613  56.662  1.00  0.00     0.010 A 
ENDBRANCH   1  23
TORSDOF 7
ENDMDL
MODEL 6
REMARK VINA RESULT:      -7.7      2.416      5.510
REMARK  7 active torsions:
REMARK  status: ('A' for Active; 'I' for Inactive)
REMARK    1  A    between atoms: O_2  and  C_3 
REMARK    2  A    between atoms: C_6  and  C_7 
REMARK    3  A    between atoms: C_7  and  N_8 
REMARK    4  A    between atoms: N_8  and  C_11 
REMARK    5  A    between atoms: C_11  and  C_12 
REMARK    6  A    between atoms: C_11  and  C_20 
REMARK       I    between atoms: C_12  and  N_13 
REMARK    7  A    between atoms: N_13  and  C_14 
ROOT
HETATM    1  C   UNL     1      27.304  42.167  51.667  1.00  0.00     0.310 C 
ENDROOT
BRANCH   1   2
HETATM    2  N   UNL     1      28.747  42.404  52.072  1.00  0.00    -0.054 N 
HETATM    3  H   UNL     1      28.855  43.430  52.114  1.00  0.00     0.278 HD
HETATM    4  H   UNL     1      29.397  42.060  51.360  1.00  0.00     0.278 HD
BRANCH   2   5
HETATM    5  C   UNL     1      29.162  41.901  53.412  1.00  0.00     0.272 C 
BRANCH   5   6
HETATM    6  C   UNL     1      29.414  43.045  54.351  1.00  0.00    -0.033 A 
HETATM    7  C   UNL     1      28.497  44.105  54.439  1.00  0.00     0.011 A 
HETATM    8  C   UNL     1      28.739  45.187  55.292  1.00  0.00     0.037 A 
HETATM    9  C   UNL     1      29.898  45.225  56.066  1.00  0.00     0.068 A 
HETATM   10  C   UNL     1      30.816  44.178  55.970  1.00  0.00     0.037 A 
HETATM   11  C   UNL     1      30.582  43.095  55.121  1.00  0.00     0.011 A 
BRANCH   9  12
HETATM   12  O   UNL     1      30.252  46.215  56.937  1.00  0.00    -0.356 OA
HETATM   13  C   UNL     1      30.547  45.828  58.274  1.00  0.00     0.210 C 
ENDBRANCH   9  12
ENDBRANCH   5   6
ENDBRANCH   2   5
ENDBRANCH   1   2
BRANCH   1  14
HETATM   14  C   UNL     1      27.227  41.006  50.647  1.00  0.00     0.259 C 
HETATM   15  N   UNL     1      28.364  40.781  49.908  1.00  0.00    -0.304 N 
HETATM   16  H   UNL     1      29.207  41.334  50.005  1.00  0.00     0.171 HD
HETATM   17  O   UNL     1      26.147  40.418  50.551  1.00  0.00    -0.270 OA
BRANCH  15  18
HETATM   18  C   UNL     1      28.453  39.725  49.043  1.00  0.00     0.172 A 
HETATM   19  S   UNL     1      27.918  40.063  47.460  1.00  0.00    -0.062 SA
HETATM   20  C   UNL     1      28.320  38.456  47.007  1.00  0.00     0.072 A 
HETATM   21  C   UNL     1      28.834  37.786  48.098  1.00  0.00     0.126 A 
HETATM   22  N   UNL     1      28.913  38.523  49.266  1.00  0.00    -0.236 NA
ENDBRANCH  15  18
ENDBRANCH   1  14
BRANCH   1  23
HETATM   23  C   UNL     1      26.594  43.447  51.279  1.00  0.00    -0.019 A 
HETATM   24  C   UNL     1      25.378  43.777  51.904  1.00  0.00     0.010 A 
HETATM   25  C   UNL     1      24.719  44.966  51.592  1.00  0.00     0.001 A 
HETATM   26  C   UNL     1      25.266  45.845  50.661  1.00  0.00     0.000 A 
HETATM   27  C   UNL     1      26.474  45.538  50.040  1.00  0.00     0.001 A 
HETATM   28  C   UNL     1      27.138  44.351  50.348  1.00  0.00     0.010 A 
ENDBRANCH   1  23
TORSDOF 7
ENDMDL
MODEL 7
REMARK VINA RESULT:      -7.5      6.934      9.538
REMARK  7 active torsions:
REMARK  status: ('A' for Active; 'I' for Inactive)
REMARK    1  A    between atoms: O_2  and  C_3 
REMARK    2  A    between atoms: C_6  and  C_7 
REMARK    3  A    between atoms: C_7  and  N_8 
REMARK    4  A    between atoms: N_8  and  C_11 
REMARK    5  A    between atoms: C_11  and  C_12 
REMARK    6  A    between atoms: C_11  and  C_20 
REMARK       I    between atoms: C_12  and  N_13 
REMARK    7  A    between atoms: N_13  and  C_14 
ROOT
HETATM    1  C   UNL     1      22.814  49.240  48.781  1.00  0.00     0.310 C 
ENDROOT
BRANCH   1   2
HETATM    2  N   UNL     1      22.160  49.763  50.045  1.00  0.00    -0.054 N 
HETATM    3  H   UNL     1      22.893  49.729  50.769  1.00  0.00     0.278 HD
HETATM    4  H   UNL     1      21.400  49.150  50.354  1.00  0.00     0.278 HD
BRANCH   2   5
HETATM    5  C   UNL     1      21.684  51.175  50.023  1.00  0.00     0.272 C 
BRANCH   5   6
HETATM    6  C   UNL     1      20.237  51.239  49.628  1.00  0.00    -0.033 A 
HETATM    7  C   UNL     1      19.817  52.114  48.614  1.00  0.00     0.011 A 
HETATM    8  C   UNL     1      18.466  52.197  48.259  1.00  0.00     0.037 A 
HETATM    9  C   UNL     1      17.519  51.411  48.913  1.00  0.00     0.068 A 
HETATM   10  C   UNL     1      17.934  50.550  49.930  1.00  0.00     0.037 A 
HETATM   11  C   UNL     1      19.280  50.461  50.290  1.00  0.00     0.011 A 
BRANCH   9  12
HETATM   12  O   UNL     1      16.177  51.393  48.664  1.00  0.00    -0.356 OA
HETATM   13  C   UNL     1      15.681  52.325  47.710  1.00  0.00     0.210 C 
ENDBRANCH   9  12
ENDBRANCH   5   6
ENDBRANCH   2   5
ENDBRANCH   1   2
BRANCH   1  14
HETATM   14  C   UNL     1      21.986  48.067  48.204  1.00  0.00     0.259 C 
HETATM   15  N   UNL     1      20.956  47.615  48.995  1.00  0.00    -0.304 N 
HETATM   16  H   UNL     1      20.742  48.007  49.904  1.00  0.00     0.171 HD
HETATM   17  O   UNL     1      22.346  47.611  47.117  1.00  0.00    -0.270 OA
BRANCH  15  18
HETATM   18  C   UNL     1      20.093  46.649  48.556  1.00  0.00     0.172 A 
HETATM   19  S   UNL     1      18.569  47.235  48.066  1.00  0.00    -0.062 SA
HETATM   20  C   UNL     1      18.108  45.630  47.665  1.00  0.00     0.072 A 
HETATM   21  C   UNL     1      19.153  44.772  47.934  1.00  0.00     0.126 A 
HETATM   22  N   UNL     1      20.295  45.364  48.441  1.00  0.00    -0.236 NA
ENDBRANCH  15  18
ENDBRANCH   1  14
BRANCH   1  23
HETATM   23  C   UNL     1      24.297  48.988  48.959  1.00  0.00    -0.019 A 
HETATM   24  C   UNL     1      24.723  47.860  49.682  1.00  0.00     0.010 A 
HETATM   25  C   UNL     1      26.082  47.584  49.833  1.00  0.00     0.001 A 
HETATM   26  C   UNL     1      27.033  48.423  49.259  1.00  0.00     0.000 A 
HETATM   27  C   UNL     1      26.629  49.539  48.531  1.00  0.00     0.001 A 
HETATM   28  C   UNL     1      25.271  49.820  48.377  1.00  0.00     0.010 A 
ENDBRANCH   1  23
TORSDOF 7
ENDMDL
MODEL 8
REMARK VINA RESULT:      -7.5     13.720     15.337
REMARK  7 active torsions:
REMARK  status: ('A' for Active; 'I' for Inactive)
REMARK    1  A    between atoms: O_2  and  C_3 
REMARK    2  A    between atoms: C_6  and  C_7 
REMARK    3  A    between atoms: C_7  and  N_8 
REMARK    4  A    between atoms: N_8  and  C_11 
REMARK    5  A    between atoms: C_11  and  C_12 
REMARK    6  A    between atoms: C_11  and  C_20 
REMARK       I    between atoms: C_12  and  N_13 
REMARK    7  A    between atoms: N_13  and  C_14 
ROOT
HETATM    1  C   UNL     1      27.555  50.650  39.389  1.00  0.00     0.310 C 
ENDROOT
BRANCH   1   2
HETATM    2  N   UNL     1      27.141  51.174  40.751  1.00  0.00    -0.054 N 
HETATM    3  H   UNL     1      27.509  50.492  41.432  1.00  0.00     0.278 HD
HETATM    4  H   UNL     1      26.122  51.183  40.854  1.00  0.00     0.278 HD
BRANCH   2   5
HETATM    5  C   UNL     1      27.696  52.494  41.164  1.00  0.00     0.272 C 
BRANCH   5   6
HETATM    6  C   UNL     1      29.191  52.424  41.281  1.00  0.00    -0.033 A 
HETATM    7  C   UNL     1      30.005  53.215  40.455  1.00  0.00     0.011 A 
HETATM    8  C   UNL     1      31.399  53.135  40.541  1.00  0.00     0.037 A 
HETATM    9  C   UNL     1      31.997  52.264  41.449  1.00  0.00     0.068 A 
HETATM   10  C   UNL     1      31.189  51.467  42.263  1.00  0.00     0.037 A 
HETATM   11  C   UNL     1      29.797  51.541  42.183  1.00  0.00     0.011 A 
BRANCH   9  12
HETATM   12  O   UNL     1      33.339  52.090  41.636  1.00  0.00    -0.356 OA
HETATM   13  C   UNL     1      33.741  51.124  42.600  1.00  0.00     0.210 C 
ENDBRANCH   9  12
ENDBRANCH   5   6
ENDBRANCH   2   5
ENDBRANCH   1   2
BRANCH   1  14
HETATM   14  C   UNL     1      26.316  50.125  38.626  1.00  0.00     0.259 C 
HETATM   15  N   UNL     1      25.176  49.961  39.376  1.00  0.00    -0.304 N 
HETATM   16  H   UNL     1      25.131  50.160  40.368  1.00  0.00     0.171 HD
HETATM   17  O   UNL     1      26.469  49.855  37.432  1.00  0.00    -0.270 OA
BRANCH  15  18
HETATM   18  C   UNL     1      23.991  49.596  38.798  1.00  0.00     0.172 A 
HETATM   19  S   UNL     1      23.653  47.926  38.878  1.00  0.00    -0.062 SA
HETATM   20  C   UNL     1      22.166  48.214  38.069  1.00  0.00     0.072 A 
HETATM   21  C   UNL     1      22.041  49.561  37.802  1.00  0.00     0.126 A 
HETATM   22  N   UNL     1      23.092  50.352  38.228  1.00  0.00    -0.236 NA
ENDBRANCH  15  18
ENDBRANCH   1  14
BRANCH   1  23
HETATM   23  C   UNL     1      28.741  49.711  39.467  1.00  0.00    -0.019 A 
HETATM   24  C   UNL     1      29.907  50.012  38.741  1.00  0.00     0.010 A 
HETATM   25  C   UNL     1      31.027  49.184  38.820  1.00  0.00     0.001 A 
HETATM   26  C   UNL     1      31.003  48.051  39.629  1.00  0.00     0.000 A 
HETATM   27  C   UNL     1      29.859  47.744  40.363  1.00  0.00     0.001 A 
HETATM   28  C   UNL     1      28.736  48.568  40.287  1.00  0.00     0.010 A 
ENDBRANCH   1  23
TORSDOF 7
ENDMDL
MODEL 9
REMARK VINA RESULT:      -7.4      2.491      6.362
REMARK  7 active torsions:
REMARK  status: ('A' for Active; 'I' for Inactive)
REMARK    1  A    between atoms: O_2  and  C_3 
REMARK    2  A    between atoms: C_6  and  C_7 
REMARK    3  A    between atoms: C_7  and  N_8 
REMARK    4  A    between atoms: N_8  and  C_11 
REMARK    5  A    between atoms: C_11  and  C_12 
REMARK    6  A    between atoms: C_11  and  C_20 
REMARK       I    between atoms: C_12  and  N_13 
REMARK    7  A    between atoms: N_13  and  C_14 
ROOT
HETATM    1  C   UNL     1      25.215  46.097  51.482  1.00  0.00     0.310 C 
ENDROOT
BRANCH   1   2
HETATM    2  N   UNL     1      26.480  45.880  52.291  1.00  0.00    -0.054 N 
HETATM    3  H   UNL     1      26.409  46.527  53.091  1.00  0.00     0.278 HD
HETATM    4  H   UNL     1      27.313  46.145  51.759  1.00  0.00     0.278 HD
BRANCH   2   5
HETATM    5  C   UNL     1      26.677  44.527  52.885  1.00  0.00     0.272 C 
BRANCH   5   6
HETATM    6  C   UNL     1      27.852  44.527  53.818  1.00  0.00    -0.033 A 
HETATM    7  C   UNL     1      28.723  43.427  53.862  1.00  0.00     0.011 A 
HETATM    8  C   UNL     1      29.805  43.409  54.749  1.00  0.00     0.037 A 
HETATM    9  C   UNL     1      30.029  44.487  55.604  1.00  0.00     0.068 A 
HETATM   10  C   UNL     1      29.157  45.576  55.570  1.00  0.00     0.037 A 
HETATM   11  C   UNL     1      28.075  45.602  54.688  1.00  0.00     0.011 A 
BRANCH   9  12
HETATM   12  O   UNL     1      31.044  44.598  56.511  1.00  0.00    -0.356 OA
HETATM   13  C   UNL     1      31.621  43.389  56.990  1.00  0.00     0.210 C 
ENDBRANCH   9  12
ENDBRANCH   5   6
ENDBRANCH   2   5
ENDBRANCH   1   2
BRANCH   1  14
HETATM   14  C   UNL     1      24.738  44.754  50.878  1.00  0.00     0.259 C 
HETATM   15  N   UNL     1      25.416  44.326  49.762  1.00  0.00    -0.304 N 
HETATM   16  H   UNL     1      26.178  44.845  49.342  1.00  0.00     0.171 HD
HETATM   17  O   UNL     1      23.769  44.213  51.415  1.00  0.00    -0.270 OA
BRANCH  15  18
HETATM   18  C   UNL     1      25.153  43.110  49.192  1.00  0.00     0.172 A 
HETATM   19  S   UNL     1      26.146  41.841  49.750  1.00  0.00    -0.062 SA
HETATM   20  C   UNL     1      25.296  40.758  48.724  1.00  0.00     0.072 A 
HETATM   21  C   UNL     1      24.320  41.448  48.036  1.00  0.00     0.126 A 
HETATM   22  N   UNL     1      24.238  42.800  48.314  1.00  0.00    -0.236 NA
ENDBRANCH  15  18
ENDBRANCH   1  14
BRANCH   1  23
HETATM   23  C   UNL     1      25.335  47.259  50.520  1.00  0.00    -0.019 A 
HETATM   24  C   UNL     1      26.610  47.764  50.204  1.00  0.00     0.010 A 
HETATM   25  C   UNL     1      26.754  48.811  49.294  1.00  0.00     0.001 A 
HETATM   26  C   UNL     1      25.633  49.364  48.681  1.00  0.00     0.000 A 
HETATM   27  C   UNL     1      24.364  48.870  48.975  1.00  0.00     0.001 A 
HETATM   28  C   UNL     1      24.214  47.822  49.884  1.00  0.00     0.010 A 
ENDBRANCH   1  23
TORSDOF 7
ENDMDL
MODEL 10
REMARK VINA RESULT:      -7.4      2.502      6.087
REMARK  7 active torsions:
REMARK  status: ('A' for Active; 'I' for Inactive)
REMARK    1  A    between atoms: O_2  and  C_3 
REMARK    2  A    between atoms: C_6  and  C_7 
REMARK    3  A    between atoms: C_7  and  N_8 
REMARK    4  A    between atoms: N_8  and  C_11 
REMARK    5  A    between atoms: C_11  and  C_12 
REMARK    6  A    between atoms: C_11  and  C_20 
REMARK       I    between atoms: C_12  and  N_13 
REMARK    7  A    between atoms: N_13  and  C_14 
ROOT
HETATM    1  C   UNL     1      28.358  42.975  53.056  1.00  0.00     0.310 C 
ENDROOT
BRANCH   1   2
HETATM    2  N   UNL     1      29.223  41.961  52.334  1.00  0.00    -0.054 N 
HETATM    3  H   UNL     1      30.159  42.045  52.759  1.00  0.00     0.278 HD
HETATM    4  H   UNL     1      29.320  42.191  51.341  1.00  0.00     0.278 HD
BRANCH   2   5
HETATM    5  C   UNL     1      28.844  40.527  52.478  1.00  0.00     0.272 C 
BRANCH   5   6
HETATM    6  C   UNL     1      28.929  39.822  51.156  1.00  0.00    -0.033 A 
HETATM    7  C   UNL     1      28.308  40.366  50.021  1.00  0.00     0.011 A 
HETATM    8  C   UNL     1      28.361  39.700  48.791  1.00  0.00     0.037 A 
HETATM    9  C   UNL     1      29.033  38.484  48.680  1.00  0.00     0.068 A 
HETATM   10  C   UNL     1      29.641  37.936  49.811  1.00  0.00     0.037 A 
HETATM   11  C   UNL     1      29.592  38.593  51.042  1.00  0.00     0.011 A 
BRANCH   9  12
HETATM   12  O   UNL     1      29.162  37.736  47.546  1.00  0.00    -0.356 OA
HETATM   13  C   UNL     1      27.992  37.089  47.058  1.00  0.00     0.210 C 
ENDBRANCH   9  12
ENDBRANCH   5   6
ENDBRANCH   2   5
ENDBRANCH   1   2
BRANCH   1  14
HETATM   14  C   UNL     1      27.610  43.858  52.029  1.00  0.00     0.259 C 
HETATM   15  N   UNL     1      26.318  44.193  52.356  1.00  0.00    -0.304 N 
HETATM   16  H   UNL     1      25.863  43.887  53.208  1.00  0.00     0.171 HD
HETATM   17  O   UNL     1      28.215  44.143  50.993  1.00  0.00    -0.270 OA
BRANCH  15  18
HETATM   18  C   UNL     1      25.585  45.047  51.577  1.00  0.00     0.172 A 
HETATM   19  S   UNL     1      25.769  46.695  51.972  1.00  0.00    -0.062 SA
HETATM   20  C   UNL     1      24.696  47.096  50.693  1.00  0.00     0.072 A 
HETATM   21  C   UNL     1      24.281  45.942  50.063  1.00  0.00     0.126 A 
HETATM   22  N   UNL     1      24.800  44.766  50.572  1.00  0.00    -0.236 NA
ENDBRANCH  15  18
ENDBRANCH   1  14
BRANCH   1  23
HETATM   23  C   UNL     1      29.113  43.709  54.145  1.00  0.00    -0.019 A 
HETATM   24  C   UNL     1      28.629  44.946  54.607  1.00  0.00     0.010 A 
HETATM   25  C   UNL     1      29.285  45.627  55.632  1.00  0.00     0.001 A 
HETATM   26  C   UNL     1      30.425  45.083  56.216  1.00  0.00     0.000 A 
HETATM   27  C   UNL     1      30.913  43.854  55.777  1.00  0.00     0.001 A 
HETATM   28  C   UNL     1      30.261  43.168  54.752  1.00  0.00     0.010 A 
ENDBRANCH   1  23
TORSDOF 7
ENDMDL
