MODEL 1
REMARK VINA RESULT:     -10.1      0.000      0.000
REMARK  7 active torsions:
REMARK  status: ('A' for Active; 'I' for Inactive)
REMARK    1  A    between atoms: C_7  and  C_8 
REMARK    2  A    between atoms: C_11  and  N_12 
REMARK       I    between atoms: N_12  and  C_13 
REMARK    3  A    between atoms: C_13  and  C_14 
REMARK    4  A    between atoms: C_14  and  N_15 
REMARK    5  A    between atoms: N_15  and  C_16 
REMARK    6  A    between atoms: C_17  and  O_18 
REMARK    7  A    between atoms: C_22  and  N_23 
REMARK       I    between atoms: N_23  and  C_24 
ROOT
HETATM    1  N   UNL     1      24.496  44.002  48.040  1.00  0.00    -0.325 N 
HETATM    2  C   UNL     1      23.337  44.556  47.588  1.00  0.00     0.244 C 
HETATM    3  O   UNL     1      23.099  44.341  46.388  1.00  0.00    -0.271 OA
HETATM    4  H   UNL     1      24.909  43.461  47.288  1.00  0.00     0.169 HD
ENDROOT
BRANCH   2   5
HETATM    5  C   UNL     1      22.374  45.409  48.426  1.00  0.00     0.170 C 
HETATM    6  C   UNL     1      21.669  44.562  49.491  1.00  0.00     0.042 C 
BRANCH   5   7
HETATM    7  N   UNL     1      22.914  46.613  49.069  1.00  0.00    -0.375 N 
HETATM    8  H   UNL     1      23.810  46.443  49.529  1.00  0.00     0.160 HD
BRANCH   7   9
HETATM    9  C   UNL     1      22.865  47.940  48.652  1.00  0.00     0.064 A 
HETATM   10  C   UNL     1      23.994  48.752  48.929  1.00  0.00     0.094 A 
HETATM   11  C   UNL     1      23.960  50.125  48.681  1.00  0.00     0.041 A 
HETATM   12  C   UNL     1      22.799  50.719  48.177  1.00  0.00     0.032 A 
HETATM   13  C   UNL     1      21.673  49.947  47.911  1.00  0.00     0.037 A 
HETATM   14  C   UNL     1      21.732  48.559  48.116  1.00  0.00     0.061 A 
BRANCH  10  15
HETATM   15  O   UNL     1      25.083  48.077  49.439  1.00  0.00    -0.354 OA
HETATM   16  C   UNL     1      26.360  48.669  49.241  1.00  0.00     0.210 C 
ENDBRANCH  10  15
BRANCH  13  17
HETATM   17  N   UNL     1      20.458  50.459  47.418  1.00  0.00    -0.327 N 
HETATM   18  C   UNL     1      19.498  51.257  47.966  1.00  0.00     0.218 C 
HETATM   19  C   UNL     1      19.509  51.600  49.428  1.00  0.00     0.117 C 
HETATM   20  O   UNL     1      18.581  51.654  47.241  1.00  0.00    -0.274 OA
HETATM   21  H   UNL     1      20.196  50.168  46.482  1.00  0.00     0.169 HD
ENDBRANCH  13  17
ENDBRANCH   7   9
ENDBRANCH   5   7
ENDBRANCH   2   5
BRANCH   1  22
HETATM   22  C   UNL     1      25.164  43.913  49.269  1.00  0.00     0.034 A 
HETATM   23  C   UNL     1      24.969  42.947  50.249  1.00  0.00     0.030 A 
HETATM   24  C   UNL     1      25.780  42.914  51.399  1.00  0.00     0.016 A 
HETATM   25  C   UNL     1      26.787  43.865  51.609  1.00  0.00    -0.000 A 
HETATM   26  C   UNL     1      26.925  44.878  50.652  1.00  0.00     0.016 A 
HETATM   27  C   UNL     1      26.128  44.902  49.504  1.00  0.00     0.030 A 
BRANCH  25  28
HETATM   28  C   UNL     1      27.709  43.857  52.762  1.00  0.00     0.109 A 
HETATM   29  N   UNL     1      27.826  44.865  53.603  1.00  0.00    -0.240 NA
HETATM   30  C   UNL     1      28.820  44.618  54.531  1.00  0.00     0.075 A 
HETATM   31  C   UNL     1      29.470  43.393  54.395  1.00  0.00     0.036 A 
HETATM   32  C   UNL     1      29.219  45.488  55.563  1.00  0.00     0.033 A 
HETATM   33  C   UNL     1      30.513  43.006  55.257  1.00  0.00     0.028 A 
HETATM   34  S   UNL     1      28.784  42.544  53.066  1.00  0.00    -0.067 SA
HETATM   35  C   UNL     1      30.906  43.888  56.277  1.00  0.00    -0.061 A 
HETATM   36  C   UNL     1      32.017  43.519  57.218  1.00  0.00     0.048 C 
HETATM   37  C   UNL     1      30.257  45.115  56.426  1.00  0.00     0.009 A 
ENDBRANCH  25  28
ENDBRANCH   1  22
TORSDOF 7
ENDMDL
MODEL 2
REMARK VINA RESULT:      -9.9      1.947      3.625
REMARK  7 active torsions:
REMARK  status: ('A' for Active; 'I' for Inactive)
REMARK    1  A    between atoms: C_7  and  C_8 
REMARK    2  A    between atoms: C_11  and  N_12 
REMARK       I    between atoms: N_12  and  C_13 
REMARK    3  A    between atoms: C_13  and  C_14 
REMARK    4  A    between atoms: C_14  and  N_15 
REMARK    5  A    between atoms: N_15  and  C_16 
REMARK    6  A    between atoms: C_17  and  O_18 
REMARK    7  A    between atoms: C_22  and  N_23 
REMARK       I    between atoms: N_23  and  C_24 
ROOT
HETATM    1  N   UNL     1      21.977  43.714  48.390  1.00  0.00    -0.325 N 
HETATM    2  C   UNL     1      21.135  44.575  47.753  1.00  0.00     0.244 C 
HETATM    3  O   UNL     1      20.106  44.047  47.300  1.00  0.00    -0.271 OA
HETATM    4  H   UNL     1      21.544  42.797  48.411  1.00  0.00     0.169 HD
ENDROOT
BRANCH   2   5
HETATM    5  C   UNL     1      21.385  46.076  47.552  1.00  0.00     0.170 C 
HETATM    6  C   UNL     1      20.542  46.627  46.397  1.00  0.00     0.042 C 
BRANCH   5   7
HETATM    7  N   UNL     1      21.217  46.956  48.714  1.00  0.00    -0.375 N 
HETATM    8  H   UNL     1      21.260  46.449  49.600  1.00  0.00     0.160 HD
BRANCH   7   9
HETATM    9  C   UNL     1      21.671  48.256  48.916  1.00  0.00     0.064 A 
HETATM   10  C   UNL     1      20.715  49.228  49.307  1.00  0.00     0.094 A 
HETATM   11  C   UNL     1      21.061  50.577  49.380  1.00  0.00     0.041 A 
HETATM   12  C   UNL     1      22.355  50.989  49.046  1.00  0.00     0.032 A 
HETATM   13  C   UNL     1      23.308  50.059  48.646  1.00  0.00     0.037 A 
HETATM   14  C   UNL     1      22.965  48.697  48.623  1.00  0.00     0.061 A 
BRANCH  10  15
HETATM   15  O   UNL     1      19.464  48.725  49.600  1.00  0.00    -0.354 OA
HETATM   16  C   UNL     1      18.834  49.208  50.779  1.00  0.00     0.210 C 
ENDBRANCH  10  15
BRANCH  13  17
HETATM   17  N   UNL     1      24.626  50.381  48.276  1.00  0.00    -0.327 N 
HETATM   18  C   UNL     1      25.822  49.752  48.460  1.00  0.00     0.218 C 
HETATM   19  C   UNL     1      25.944  48.557  49.363  1.00  0.00     0.117 C 
HETATM   20  O   UNL     1      26.822  50.217  47.907  1.00  0.00    -0.274 OA
HETATM   21  H   UNL     1      24.755  51.271  47.806  1.00  0.00     0.169 HD
ENDBRANCH  13  17
ENDBRANCH   7   9
ENDBRANCH   5   7
ENDBRANCH   2   5
BRANCH   1  22
HETATM   22  C   UNL     1      23.188  43.813  49.087  1.00  0.00     0.034 A 
HETATM   23  C   UNL     1      24.210  44.724  48.847  1.00  0.00     0.030 A 
HETATM   24  C   UNL     1      25.337  44.782  49.689  1.00  0.00     0.016 A 
HETATM   25  C   UNL     1      25.479  43.910  50.776  1.00  0.00    -0.000 A 
HETATM   26  C   UNL     1      24.481  42.946  50.965  1.00  0.00     0.016 A 
HETATM   27  C   UNL     1      23.356  42.899  50.135  1.00  0.00     0.030 A 
BRANCH  25  28
HETATM   28  C   UNL     1      26.605  43.952  51.731  1.00  0.00     0.109 A 
HETATM   29  N   UNL     1      27.689  43.212  51.607  1.00  0.00    -0.240 NA
HETATM   30  C   UNL     1      28.533  43.393  52.685  1.00  0.00     0.075 A 
HETATM   31  C   UNL     1      28.084  44.295  53.648  1.00  0.00     0.036 A 
HETATM   32  C   UNL     1      29.769  42.748  52.882  1.00  0.00     0.033 A 
HETATM   33  C   UNL     1      28.829  44.573  54.809  1.00  0.00     0.028 A 
HETATM   34  S   UNL     1      26.563  44.925  53.152  1.00  0.00    -0.067 SA
HETATM   35  C   UNL     1      30.056  43.916  54.996  1.00  0.00    -0.061 A 
HETATM   36  C   UNL     1      30.883  44.179  56.222  1.00  0.00     0.048 C 
HETATM   37  C   UNL     1      30.518  43.015  54.034  1.00  0.00     0.009 A 
ENDBRANCH  25  28
ENDBRANCH   1  22
TORSDOF 7
ENDMDL
MODEL 3
REMARK VINA RESULT:      -9.6      3.423     10.430
REMARK  7 active torsions:
REMARK  status: ('A' for Active; 'I' for Inactive)
REMARK    1  A    between atoms: C_7  and  C_8 
REMARK    2  A    between atoms: C_11  and  N_12 
REMARK       I    between atoms: N_12  and  C_13 
REMARK    3  A    between atoms: C_13  and  C_14 
REMARK    4  A    between atoms: C_14  and  N_15 
REMARK    5  A    between atoms: N_15  and  C_16 
REMARK    6  A    between atoms: C_17  and  O_18 
REMARK    7  A    between atoms: C_22  and  N_23 
REMARK       I    between atoms: N_23  and  C_24 
ROOT
HETATM    1  N   UNL     1      27.394  44.939  50.331  1.00  0.00    -0.325 N 
HETATM    2  C   UNL     1      27.689  43.913  51.176  1.00  0.00     0.244 C 
HETATM    3  O   UNL     1      28.896  43.621  51.228  1.00  0.00    -0.271 OA
HETATM    4  H   UNL     1      28.260  45.301  49.949  1.00  0.00     0.169 HD
ENDROOT
BRANCH   2   5
HETATM    5  C   UNL     1      26.667  43.121  52.004  1.00  0.00     0.170 C 
HETATM    6  C   UNL     1      26.869  41.612  51.835  1.00  0.00     0.042 C 
BRANCH   5   7
HETATM    7  N   UNL     1      26.573  43.422  53.437  1.00  0.00    -0.375 N 
HETATM    8  H   UNL     1      26.203  42.639  53.979  1.00  0.00     0.160 HD
BRANCH   7   9
HETATM    9  C   UNL     1      27.427  44.166  54.247  1.00  0.00     0.064 A 
HETATM   10  C   UNL     1      27.152  45.550  54.386  1.00  0.00     0.094 A 
HETATM   11  C   UNL     1      28.045  46.389  55.053  1.00  0.00     0.041 A 
HETATM   12  C   UNL     1      29.236  45.875  55.573  1.00  0.00     0.032 A 
HETATM   13  C   UNL     1      29.538  44.524  55.438  1.00  0.00     0.037 A 
HETATM   14  C   UNL     1      28.610  43.677  54.809  1.00  0.00     0.061 A 
BRANCH  10  15
HETATM   15  O   UNL     1      25.961  45.964  53.825  1.00  0.00    -0.354 OA
HETATM   16  C   UNL     1      25.828  47.351  53.543  1.00  0.00     0.210 C 
ENDBRANCH  10  15
BRANCH  13  17
HETATM   17  N   UNL     1      30.716  43.922  55.914  1.00  0.00    -0.327 N 
HETATM   18  C   UNL     1      31.340  43.935  57.126  1.00  0.00     0.218 C 
HETATM   19  C   UNL     1      30.901  44.865  58.221  1.00  0.00     0.117 C 
HETATM   20  O   UNL     1      32.316  43.198  57.293  1.00  0.00    -0.274 OA
HETATM   21  H   UNL     1      31.253  43.390  55.237  1.00  0.00     0.169 HD
ENDBRANCH  13  17
ENDBRANCH   7   9
ENDBRANCH   5   7
ENDBRANCH   2   5
BRANCH   1  22
HETATM   22  C   UNL     1      26.243  45.651  49.967  1.00  0.00     0.034 A 
HETATM   23  C   UNL     1      24.989  45.117  49.697  1.00  0.00     0.030 A 
HETATM   24  C   UNL     1      23.888  45.956  49.440  1.00  0.00     0.016 A 
HETATM   25  C   UNL     1      24.023  47.350  49.420  1.00  0.00    -0.000 A 
HETATM   26  C   UNL     1      25.306  47.876  49.619  1.00  0.00     0.016 A 
HETATM   27  C   UNL     1      26.395  47.042  49.887  1.00  0.00     0.030 A 
BRANCH  25  28
HETATM   28  C   UNL     1      22.903  48.290  49.214  1.00  0.00     0.109 A 
HETATM   29  N   UNL     1      21.692  47.907  48.859  1.00  0.00    -0.240 NA
HETATM   30  C   UNL     1      20.872  49.000  48.656  1.00  0.00     0.075 A 
HETATM   31  C   UNL     1      21.470  50.241  48.866  1.00  0.00     0.036 A 
HETATM   32  C   UNL     1      19.523  48.955  48.256  1.00  0.00     0.033 A 
HETATM   33  C   UNL     1      20.765  51.445  48.686  1.00  0.00     0.028 A 
HETATM   34  S   UNL     1      23.104  49.996  49.343  1.00  0.00    -0.067 SA
HETATM   35  C   UNL     1      19.422  51.385  48.279  1.00  0.00    -0.061 A 
HETATM   36  C   UNL     1      18.631  52.644  48.070  1.00  0.00     0.048 C 
HETATM   37  C   UNL     1      18.811  50.146  48.072  1.00  0.00     0.009 A 
ENDBRANCH  25  28
ENDBRANCH   1  22
TORSDOF 7
ENDMDL
MODEL 4
REMARK VINA RESULT:      -9.3      3.431      9.784
REMARK  7 active torsions:
REMARK  status: ('A' for Active; 'I' for Inactive)
REMARK    1  A    between atoms: C_7  and  C_8 
REMARK    2  A    between atoms: C_11  and  N_12 
REMARK       I    between atoms: N_12  and  C_13 
REMARK    3  A    between atoms: C_13  and  C_14 
REMARK    4  A    between atoms: C_14  and  N_15 
REMARK    5  A    between atoms: N_15  and  C_16 
REMARK    6  A    between atoms: C_17  and  O_18 
REMARK    7  A    between atoms: C_22  and  N_23 
REMARK       I    between atoms: N_23  and  C_24 
ROOT
HETATM    1  N   UNL     1      26.717  41.805  49.987  1.00  0.00    -0.325 N 
HETATM    2  C   UNL     1      27.434  41.408  51.075  1.00  0.00     0.244 C 
HETATM    3  O   UNL     1      28.103  40.376  50.902  1.00  0.00    -0.271 OA
HETATM    4  H   UNL     1      26.933  41.183  49.216  1.00  0.00     0.169 HD
ENDROOT
BRANCH   2   5
HETATM    5  C   UNL     1      27.440  42.111  52.440  1.00  0.00     0.170 C 
HETATM    6  C   UNL     1      27.943  41.174  53.543  1.00  0.00     0.042 C 
BRANCH   5   7
HETATM    7  N   UNL     1      28.159  43.386  52.546  1.00  0.00    -0.375 N 
HETATM    8  H   UNL     1      28.011  43.989  51.734  1.00  0.00     0.160 HD
BRANCH   7   9
HETATM    9  C   UNL     1      28.395  44.182  53.662  1.00  0.00     0.064 A 
HETATM   10  C   UNL     1      27.649  45.383  53.777  1.00  0.00     0.094 A 
HETATM   11  C   UNL     1      27.937  46.305  54.783  1.00  0.00     0.041 A 
HETATM   12  C   UNL     1      28.983  46.065  55.678  1.00  0.00     0.032 A 
HETATM   13  C   UNL     1      29.740  44.902  55.580  1.00  0.00     0.037 A 
HETATM   14  C   UNL     1      29.412  43.955  54.595  1.00  0.00     0.061 A 
BRANCH  10  15
HETATM   15  O   UNL     1      26.650  45.536  52.837  1.00  0.00    -0.354 OA
HETATM   16  C   UNL     1      25.726  46.595  53.046  1.00  0.00     0.210 C 
ENDBRANCH  10  15
BRANCH  13  17
HETATM   17  N   UNL     1      30.819  44.583  56.424  1.00  0.00    -0.327 N 
HETATM   18  C   UNL     1      31.013  44.707  57.768  1.00  0.00     0.218 C 
HETATM   19  C   UNL     1      30.049  45.472  58.629  1.00  0.00     0.117 C 
HETATM   20  O   UNL     1      32.033  44.218  58.261  1.00  0.00    -0.274 OA
HETATM   21  H   UNL     1      31.649  44.216  55.971  1.00  0.00     0.169 HD
ENDBRANCH  13  17
ENDBRANCH   7   9
ENDBRANCH   5   7
ENDBRANCH   2   5
BRANCH   1  22
HETATM   22  C   UNL     1      25.881  42.881  49.663  1.00  0.00     0.034 A 
HETATM   23  C   UNL     1      24.518  42.821  49.403  1.00  0.00     0.030 A 
HETATM   24  C   UNL     1      23.772  43.996  49.188  1.00  0.00     0.016 A 
HETATM   25  C   UNL     1      24.380  45.258  49.202  1.00  0.00    -0.000 A 
HETATM   26  C   UNL     1      25.767  45.302  49.391  1.00  0.00     0.016 A 
HETATM   27  C   UNL     1      26.503  44.136  49.617  1.00  0.00     0.030 A 
BRANCH  25  28
HETATM   28  C   UNL     1      23.652  46.532  49.042  1.00  0.00     0.109 A 
HETATM   29  N   UNL     1      24.204  47.712  49.243  1.00  0.00    -0.240 NA
HETATM   30  C   UNL     1      23.270  48.721  49.103  1.00  0.00     0.075 A 
HETATM   31  C   UNL     1      21.982  48.300  48.784  1.00  0.00     0.036 A 
HETATM   32  C   UNL     1      23.514  50.099  49.265  1.00  0.00     0.033 A 
HETATM   33  C   UNL     1      20.921  49.210  48.623  1.00  0.00     0.028 A 
HETATM   34  S   UNL     1      21.975  46.585  48.648  1.00  0.00    -0.067 SA
HETATM   35  C   UNL     1      21.177  50.580  48.795  1.00  0.00    -0.061 A 
HETATM   36  C   UNL     1      20.075  51.588  48.637  1.00  0.00     0.048 C 
HETATM   37  C   UNL     1      22.467  51.014  49.109  1.00  0.00     0.009 A 
ENDBRANCH  25  28
ENDBRANCH   1  22
TORSDOF 7
ENDMDL
MODEL 5
REMARK VINA RESULT:      -9.2      3.419     10.782
REMARK  7 active torsions:
REMARK  status: ('A' for Active; 'I' for Inactive)
REMARK    1  A    between atoms: C_7  and  C_8 
REMARK    2  A    between atoms: C_11  and  N_12 
REMARK       I    between atoms: N_12  and  C_13 
REMARK    3  A    between atoms: C_13  and  C_14 
REMARK    4  A    between atoms: C_14  and  N_15 
REMARK    5  A    between atoms: N_15  and  C_16 
REMARK    6  A    between atoms: C_17  and  O_18 
REMARK    7  A    between atoms: C_22  and  N_23 
REMARK       I    between atoms: N_23  and  C_24 
ROOT
HETATM    1  N   UNL     1      25.761  45.320  49.365  1.00  0.00    -0.325 N 
HETATM    2  C   UNL     1      26.075  44.197  50.069  1.00  0.00     0.244 C 
HETATM    3  O   UNL     1      27.173  43.695  49.774  1.00  0.00    -0.271 OA
HETATM    4  H   UNL     1      26.545  45.553  48.766  1.00  0.00     0.169 HD
ENDROOT
BRANCH   2   5
HETATM    5  C   UNL     1      25.184  43.535  51.129  1.00  0.00     0.170 C 
HETATM    6  C   UNL     1      24.142  42.616  50.482  1.00  0.00     0.042 C 
BRANCH   5   7
HETATM    7  N   UNL     1      25.846  42.799  52.212  1.00  0.00    -0.375 N 
HETATM    8  H   UNL     1      25.519  41.834  52.289  1.00  0.00     0.160 HD
BRANCH   7   9
HETATM    9  C   UNL     1      27.165  42.864  52.653  1.00  0.00     0.064 A 
HETATM   10  C   UNL     1      28.018  41.782  52.319  1.00  0.00     0.094 A 
HETATM   11  C   UNL     1      29.305  41.701  52.851  1.00  0.00     0.041 A 
HETATM   12  C   UNL     1      29.760  42.678  53.741  1.00  0.00     0.032 A 
HETATM   13  C   UNL     1      28.938  43.743  54.097  1.00  0.00     0.037 A 
HETATM   14  C   UNL     1      27.662  43.843  53.518  1.00  0.00     0.061 A 
BRANCH  10  15
HETATM   15  O   UNL     1      27.473  40.861  51.447  1.00  0.00    -0.354 OA
HETATM   16  C   UNL     1      28.323  40.359  50.425  1.00  0.00     0.210 C 
ENDBRANCH  10  15
BRANCH  13  17
HETATM   17  N   UNL     1      29.303  44.762  54.995  1.00  0.00    -0.327 N 
HETATM   18  C   UNL     1      30.276  44.857  55.945  1.00  0.00     0.218 C 
HETATM   19  C   UNL     1      31.090  43.661  56.351  1.00  0.00     0.117 C 
HETATM   20  O   UNL     1      30.444  45.942  56.508  1.00  0.00    -0.274 OA
HETATM   21  H   UNL     1      28.726  45.597  54.984  1.00  0.00     0.169 HD
ENDBRANCH  13  17
ENDBRANCH   7   9
ENDBRANCH   5   7
ENDBRANCH   2   5
BRANCH   1  22
HETATM   22  C   UNL     1      24.712  46.248  49.355  1.00  0.00     0.034 A 
HETATM   23  C   UNL     1      24.773  47.572  49.773  1.00  0.00     0.030 A 
HETATM   24  C   UNL     1      23.668  48.430  49.616  1.00  0.00     0.016 A 
HETATM   25  C   UNL     1      22.465  47.974  49.061  1.00  0.00    -0.000 A 
HETATM   26  C   UNL     1      22.389  46.619  48.713  1.00  0.00     0.016 A 
HETATM   27  C   UNL     1      23.492  45.773  48.857  1.00  0.00     0.030 A 
BRANCH  25  28
HETATM   28  C   UNL     1      21.287  48.830  48.815  1.00  0.00     0.109 A 
HETATM   29  N   UNL     1      21.330  50.147  48.848  1.00  0.00    -0.240 NA
HETATM   30  C   UNL     1      20.069  50.683  48.666  1.00  0.00     0.075 A 
HETATM   31  C   UNL     1      19.047  49.754  48.485  1.00  0.00     0.036 A 
HETATM   32  C   UNL     1      19.750  52.054  48.661  1.00  0.00     0.033 A 
HETATM   33  C   UNL     1      17.709  50.148  48.302  1.00  0.00     0.028 A 
HETATM   34  S   UNL     1      19.719  48.172  48.537  1.00  0.00    -0.067 SA
HETATM   35  C   UNL     1      17.404  51.519  48.307  1.00  0.00    -0.061 A 
HETATM   36  C   UNL     1      15.989  51.986  48.119  1.00  0.00     0.048 C 
HETATM   37  C   UNL     1      18.422  52.459  48.481  1.00  0.00     0.009 A 
ENDBRANCH  25  28
ENDBRANCH   1  22
TORSDOF 7
ENDMDL
MODEL 6
REMARK VINA RESULT:      -9.2      5.096      9.036
REMARK  7 active torsions:
REMARK  status: ('A' for Active; 'I' for Inactive)
REMARK    1  A    between atoms: C_7  and  C_8 
REMARK    2  A    between atoms: C_11  and  N_12 
REMARK       I    between atoms: N_12  and  C_13 
REMARK    3  A    between atoms: C_13  and  C_14 
REMARK    4  A    between atoms: C_14  and  N_15 
REMARK    5  A    between atoms: N_15  and  C_16 
REMARK    6  A    between atoms: C_17  and  O_18 
REMARK    7  A    between atoms: C_22  and  N_23 
REMARK       I    between atoms: N_23  and  C_24 
ROOT
HETATM    1  N   UNL     1      16.899  52.256  49.747  1.00  0.00    -0.325 N 
HETATM    2  C   UNL     1      15.647  52.123  49.226  1.00  0.00     0.244 C 
HETATM    3  O   UNL     1      14.780  52.809  49.792  1.00  0.00    -0.271 OA
HETATM    4  H   UNL     1      16.870  52.957  50.479  1.00  0.00     0.169 HD
ENDROOT
BRANCH   2   5
HETATM    5  C   UNL     1      15.264  51.203  48.059  1.00  0.00     0.170 C 
HETATM    6  C   UNL     1      15.772  51.760  46.725  1.00  0.00     0.042 C 
BRANCH   5   7
HETATM    7  N   UNL     1      15.649  49.790  48.151  1.00  0.00    -0.375 N 
HETATM    8  H   UNL     1      14.946  49.222  48.628  1.00  0.00     0.160 HD
BRANCH   7   9
HETATM    9  C   UNL     1      16.327  48.993  47.234  1.00  0.00     0.064 A 
HETATM   10  C   UNL     1      15.552  48.114  46.435  1.00  0.00     0.094 A 
HETATM   11  C   UNL     1      16.169  47.178  45.605  1.00  0.00     0.041 A 
HETATM   12  C   UNL     1      17.563  47.081  45.570  1.00  0.00     0.032 A 
HETATM   13  C   UNL     1      18.347  47.921  46.354  1.00  0.00     0.037 A 
HETATM   14  C   UNL     1      17.719  48.894  47.148  1.00  0.00     0.061 A 
BRANCH  10  15
HETATM   15  O   UNL     1      14.187  48.276  46.552  1.00  0.00    -0.354 OA
HETATM   16  C   UNL     1      13.485  48.695  45.390  1.00  0.00     0.210 C 
ENDBRANCH  10  15
BRANCH  13  17
HETATM   17  N   UNL     1      19.752  47.886  46.395  1.00  0.00    -0.327 N 
HETATM   18  C   UNL     1      20.641  47.194  47.163  1.00  0.00     0.218 C 
HETATM   19  C   UNL     1      20.189  46.402  48.358  1.00  0.00     0.117 C 
HETATM   20  O   UNL     1      21.841  47.271  46.887  1.00  0.00    -0.274 OA
HETATM   21  H   UNL     1      20.235  48.515  45.762  1.00  0.00     0.169 HD
ENDBRANCH  13  17
ENDBRANCH   7   9
ENDBRANCH   5   7
ENDBRANCH   2   5
BRANCH   1  22
HETATM   22  C   UNL     1      18.176  51.761  49.451  1.00  0.00     0.034 A 
HETATM   23  C   UNL     1      19.090  52.310  48.560  1.00  0.00     0.030 A 
HETATM   24  C   UNL     1      20.383  51.769  48.429  1.00  0.00     0.016 A 
HETATM   25  C   UNL     1      20.782  50.648  49.169  1.00  0.00    -0.000 A 
HETATM   26  C   UNL     1      19.829  50.057  50.008  1.00  0.00     0.016 A 
HETATM   27  C   UNL     1      18.550  50.604  50.146  1.00  0.00     0.030 A 
BRANCH  25  28
HETATM   28  C   UNL     1      22.137  50.063  49.124  1.00  0.00     0.109 A 
HETATM   29  N   UNL     1      22.456  48.927  49.713  1.00  0.00    -0.240 NA
HETATM   30  C   UNL     1      23.806  48.667  49.579  1.00  0.00     0.075 A 
HETATM   31  C   UNL     1      24.529  49.623  48.868  1.00  0.00     0.036 A 
HETATM   32  C   UNL     1      24.486  47.549  50.099  1.00  0.00     0.033 A 
HETATM   33  C   UNL     1      25.916  49.502  48.661  1.00  0.00     0.028 A 
HETATM   34  S   UNL     1      23.455  50.864  48.356  1.00  0.00    -0.067 SA
HETATM   35  C   UNL     1      26.582  48.386  49.193  1.00  0.00    -0.061 A 
HETATM   36  C   UNL     1      28.062  48.218  49.000  1.00  0.00     0.048 C 
HETATM   37  C   UNL     1      25.865  47.419  49.901  1.00  0.00     0.009 A 
ENDBRANCH  25  28
ENDBRANCH   1  22
TORSDOF 7
ENDMDL
MODEL 7
REMARK VINA RESULT:      -9.1      3.514      9.932
REMARK  7 active torsions:
REMARK  status: ('A' for Active; 'I' for Inactive)
REMARK    1  A    between atoms: C_7  and  C_8 
REMARK    2  A    between atoms: C_11  and  N_12 
REMARK       I    between atoms: N_12  and  C_13 
REMARK    3  A    between atoms: C_13  and  C_14 
REMARK    4  A    between atoms: C_14  and  N_15 
REMARK    5  A    between atoms: N_15  and  C_16 
REMARK    6  A    between atoms: C_17  and  O_18 
REMARK    7  A    between atoms: C_22  and  N_23 
REMARK       I    between atoms: N_23  and  C_24 
ROOT
HETATM    1  N   UNL     1      25.833  45.153  49.208  1.00  0.00    -0.325 N 
HETATM    2  C   UNL     1      26.213  44.053  49.916  1.00  0.00     0.244 C 
HETATM    3  O   UNL     1      27.269  43.529  49.523  1.00  0.00    -0.271 OA
HETATM    4  H   UNL     1      26.548  45.355  48.519  1.00  0.00     0.169 HD
ENDROOT
BRANCH   2   5
HETATM    5  C   UNL     1      25.439  43.441  51.091  1.00  0.00     0.170 C 
HETATM    6  C   UNL     1      24.541  42.291  50.623  1.00  0.00     0.042 C 
BRANCH   5   7
HETATM    7  N   UNL     1      26.212  42.986  52.252  1.00  0.00    -0.375 N 
HETATM    8  H   UNL     1      26.517  42.014  52.165  1.00  0.00     0.160 HD
BRANCH   7   9
HETATM    9  C   UNL     1      27.133  43.679  53.032  1.00  0.00     0.064 A 
HETATM   10  C   UNL     1      28.394  43.068  53.251  1.00  0.00     0.094 A 
HETATM   11  C   UNL     1      29.310  43.625  54.143  1.00  0.00     0.041 A 
HETATM   12  C   UNL     1      28.983  44.786  54.851  1.00  0.00     0.032 A 
HETATM   13  C   UNL     1      27.747  45.398  54.667  1.00  0.00     0.037 A 
HETATM   14  C   UNL     1      26.851  44.858  53.729  1.00  0.00     0.061 A 
BRANCH  10  15
HETATM   15  O   UNL     1      28.616  41.919  52.519  1.00  0.00    -0.354 OA
HETATM   16  C   UNL     1      28.624  40.691  53.234  1.00  0.00     0.210 C 
ENDBRANCH  10  15
BRANCH  13  17
HETATM   17  N   UNL     1      27.326  46.556  55.344  1.00  0.00    -0.327 N 
HETATM   18  C   UNL     1      26.414  47.525  55.047  1.00  0.00     0.218 C 
HETATM   19  C   UNL     1      25.776  47.606  53.689  1.00  0.00     0.117 C 
HETATM   20  O   UNL     1      26.158  48.374  55.905  1.00  0.00    -0.274 OA
HETATM   21  H   UNL     1      27.799  46.760  56.219  1.00  0.00     0.169 HD
ENDBRANCH  13  17
ENDBRANCH   7   9
ENDBRANCH   5   7
ENDBRANCH   2   5
BRANCH   1  22
HETATM   22  C   UNL     1      24.795  46.092  49.278  1.00  0.00     0.034 A 
HETATM   23  C   UNL     1      24.887  47.395  49.749  1.00  0.00     0.030 A 
HETATM   24  C   UNL     1      23.787  48.270  49.670  1.00  0.00     0.016 A 
HETATM   25  C   UNL     1      22.559  47.851  49.142  1.00  0.00    -0.000 A 
HETATM   26  C   UNL     1      22.454  46.514  48.739  1.00  0.00     0.016 A 
HETATM   27  C   UNL     1      23.551  45.651  48.805  1.00  0.00     0.030 A 
BRANCH  25  28
HETATM   28  C   UNL     1      21.384  48.730  48.977  1.00  0.00     0.109 A 
HETATM   29  N   UNL     1      21.472  50.033  48.796  1.00  0.00    -0.240 NA
HETATM   30  C   UNL     1      20.217  50.609  48.759  1.00  0.00     0.075 A 
HETATM   31  C   UNL     1      19.151  49.725  48.908  1.00  0.00     0.036 A 
HETATM   32  C   UNL     1      19.945  51.981  48.596  1.00  0.00     0.033 A 
HETATM   33  C   UNL     1      17.814  50.166  48.905  1.00  0.00     0.028 A 
HETATM   34  S   UNL     1      19.771  48.131  49.087  1.00  0.00    -0.067 SA
HETATM   35  C   UNL     1      17.558  51.538  48.750  1.00  0.00    -0.061 A 
HETATM   36  C   UNL     1      16.148  52.055  48.744  1.00  0.00     0.048 C 
HETATM   37  C   UNL     1      18.620  52.432  48.592  1.00  0.00     0.009 A 
ENDBRANCH  25  28
ENDBRANCH   1  22
TORSDOF 7
ENDMDL
MODEL 8
REMARK VINA RESULT:      -9.1      1.315      1.671
REMARK  7 active torsions:
REMARK  status: ('A' for Active; 'I' for Inactive)
REMARK    1  A    between atoms: C_7  and  C_8 
REMARK    2  A    between atoms: C_11  and  N_12 
REMARK       I    between atoms: N_12  and  C_13 
REMARK    3  A    between atoms: C_13  and  C_14 
REMARK    4  A    between atoms: C_14  and  N_15 
REMARK    5  A    between atoms: N_15  and  C_16 
REMARK    6  A    between atoms: C_17  and  O_18 
REMARK    7  A    between atoms: C_22  and  N_23 
REMARK       I    between atoms: N_23  and  C_24 
ROOT
HETATM    1  N   UNL     1      24.824  43.395  48.144  1.00  0.00    -0.325 N 
HETATM    2  C   UNL     1      23.682  43.867  47.571  1.00  0.00     0.244 C 
HETATM    3  O   UNL     1      23.470  43.445  46.422  1.00  0.00    -0.271 OA
HETATM    4  H   UNL     1      25.250  42.728  47.509  1.00  0.00     0.169 HD
ENDROOT
BRANCH   2   5
HETATM    5  C   UNL     1      22.706  44.858  48.221  1.00  0.00     0.170 C 
HETATM    6  C   UNL     1      22.005  44.232  49.432  1.00  0.00     0.042 C 
BRANCH   5   7
HETATM    7  N   UNL     1      23.232  46.171  48.614  1.00  0.00    -0.375 N 
HETATM    8  H   UNL     1      24.187  46.326  48.287  1.00  0.00     0.160 HD
BRANCH   7   9
HETATM    9  C   UNL     1      22.581  47.398  48.700  1.00  0.00     0.064 A 
HETATM   10  C   UNL     1      23.338  48.508  49.152  1.00  0.00     0.094 A 
HETATM   11  C   UNL     1      22.722  49.732  49.410  1.00  0.00     0.041 A 
HETATM   12  C   UNL     1      21.340  49.871  49.247  1.00  0.00     0.032 A 
HETATM   13  C   UNL     1      20.571  48.794  48.818  1.00  0.00     0.037 A 
HETATM   14  C   UNL     1      21.207  47.580  48.512  1.00  0.00     0.061 A 
BRANCH  10  15
HETATM   15  O   UNL     1      24.689  48.267  49.299  1.00  0.00    -0.354 OA
HETATM   16  C   UNL     1      25.578  49.262  48.811  1.00  0.00     0.210 C 
ENDBRANCH  10  15
BRANCH  13  17
HETATM   17  N   UNL     1      19.176  48.836  48.640  1.00  0.00    -0.327 N 
HETATM   18  C   UNL     1      18.385  49.204  47.593  1.00  0.00     0.218 C 
HETATM   19  C   UNL     1      18.959  49.882  46.381  1.00  0.00     0.117 C 
HETATM   20  O   UNL     1      17.169  49.014  47.680  1.00  0.00    -0.274 OA
HETATM   21  H   UNL     1      18.614  48.578  49.445  1.00  0.00     0.169 HD
ENDBRANCH  13  17
ENDBRANCH   7   9
ENDBRANCH   5   7
ENDBRANCH   2   5
BRANCH   1  22
HETATM   22  C   UNL     1      25.460  43.521  49.385  1.00  0.00     0.034 A 
HETATM   23  C   UNL     1      25.469  42.582  50.410  1.00  0.00     0.030 A 
HETATM   24  C   UNL     1      26.234  42.791  51.573  1.00  0.00     0.016 A 
HETATM   25  C   UNL     1      26.988  43.959  51.749  1.00  0.00    -0.000 A 
HETATM   26  C   UNL     1      26.913  44.932  50.745  1.00  0.00     0.016 A 
HETATM   27  C   UNL     1      26.163  44.716  49.585  1.00  0.00     0.030 A 
BRANCH  25  28
HETATM   28  C   UNL     1      27.855  44.219  52.916  1.00  0.00     0.109 A 
HETATM   29  N   UNL     1      28.874  43.450  53.246  1.00  0.00    -0.240 NA
HETATM   30  C   UNL     1      29.453  43.882  54.424  1.00  0.00     0.075 A 
HETATM   31  C   UNL     1      28.865  45.006  54.999  1.00  0.00     0.036 A 
HETATM   32  C   UNL     1      30.550  43.283  55.071  1.00  0.00     0.033 A 
HETATM   33  C   UNL     1      29.335  45.555  56.207  1.00  0.00     0.028 A 
HETATM   34  S   UNL     1      27.560  45.521  54.004  1.00  0.00    -0.067 SA
HETATM   35  C   UNL     1      30.425  44.942  56.845  1.00  0.00    -0.061 A 
HETATM   36  C   UNL     1      30.959  45.490  58.138  1.00  0.00     0.048 C 
HETATM   37  C   UNL     1      31.026  43.818  56.274  1.00  0.00     0.009 A 
ENDBRANCH  25  28
ENDBRANCH   1  22
TORSDOF 7
ENDMDL
MODEL 9
REMARK VINA RESULT:      -9.1      1.821      2.849
REMARK  7 active torsions:
REMARK  status: ('A' for Active; 'I' for Inactive)
REMARK    1  A    between atoms: C_7  and  C_8 
REMARK    2  A    between atoms: C_11  and  N_12 
REMARK       I    between atoms: N_12  and  C_13 
REMARK    3  A    between atoms: C_13  and  C_14 
REMARK    4  A    between atoms: C_14  and  N_15 
REMARK    5  A    between atoms: N_15  and  C_16 
REMARK    6  A    between atoms: C_17  and  O_18 
REMARK    7  A    between atoms: C_22  and  N_23 
REMARK       I    between atoms: N_23  and  C_24 
ROOT
HETATM    1  N   UNL     1      24.057  44.513  48.583  1.00  0.00    -0.325 N 
HETATM    2  C   UNL     1      23.109  45.312  48.018  1.00  0.00     0.244 C 
HETATM    3  O   UNL     1      22.648  44.885  46.947  1.00  0.00    -0.271 OA
HETATM    4  H   UNL     1      24.149  43.676  48.017  1.00  0.00     0.169 HD
ENDROOT
BRANCH   2   5
HETATM    5  C   UNL     1      22.625  46.653  48.587  1.00  0.00     0.170 C 
HETATM    6  C   UNL     1      23.774  47.421  49.249  1.00  0.00     0.042 C 
BRANCH   5   7
HETATM    7  N   UNL     1      21.919  47.563  47.678  1.00  0.00    -0.375 N 
HETATM    8  H   UNL     1      22.271  47.511  46.720  1.00  0.00     0.160 HD
BRANCH   7   9
HETATM    9  C   UNL     1      20.574  47.920  47.646  1.00  0.00     0.064 A 
HETATM   10  C   UNL     1      19.811  47.487  46.532  1.00  0.00     0.094 A 
HETATM   11  C   UNL     1      18.501  47.932  46.353  1.00  0.00     0.041 A 
HETATM   12  C   UNL     1      17.933  48.831  47.261  1.00  0.00     0.032 A 
HETATM   13  C   UNL     1      18.665  49.283  48.354  1.00  0.00     0.037 A 
HETATM   14  C   UNL     1      19.965  48.791  48.555  1.00  0.00     0.061 A 
BRANCH  10  15
HETATM   15  O   UNL     1      20.464  46.616  45.685  1.00  0.00    -0.354 OA
HETATM   16  C   UNL     1      19.657  45.708  44.947  1.00  0.00     0.210 C 
ENDBRANCH  10  15
BRANCH  13  17
HETATM   17  N   UNL     1      18.184  50.196  49.309  1.00  0.00    -0.327 N 
HETATM   18  C   UNL     1      18.205  51.558  49.383  1.00  0.00     0.218 C 
HETATM   19  C   UNL     1      19.013  52.380  48.420  1.00  0.00     0.117 C 
HETATM   20  O   UNL     1      17.582  52.106  50.297  1.00  0.00    -0.274 OA
HETATM   21  H   UNL     1      17.760  49.796  50.139  1.00  0.00     0.169 HD
ENDBRANCH  13  17
ENDBRANCH   7   9
ENDBRANCH   5   7
ENDBRANCH   2   5
BRANCH   1  22
HETATM   22  C   UNL     1      24.815  44.519  49.761  1.00  0.00     0.034 A 
HETATM   23  C   UNL     1      24.333  44.385  51.057  1.00  0.00     0.030 A 
HETATM   24  C   UNL     1      25.216  44.306  52.150  1.00  0.00     0.016 A 
HETATM   25  C   UNL     1      26.603  44.388  51.974  1.00  0.00    -0.000 A 
HETATM   26  C   UNL     1      27.076  44.598  50.672  1.00  0.00     0.016 A 
HETATM   27  C   UNL     1      26.198  44.662  49.586  1.00  0.00     0.030 A 
BRANCH  25  28
HETATM   28  C   UNL     1      27.589  44.257  53.066  1.00  0.00     0.109 A 
HETATM   29  N   UNL     1      27.790  45.190  53.975  1.00  0.00    -0.240 NA
HETATM   30  C   UNL     1      28.825  44.836  54.820  1.00  0.00     0.075 A 
HETATM   31  C   UNL     1      29.419  43.606  54.551  1.00  0.00     0.036 A 
HETATM   32  C   UNL     1      29.315  45.607  55.892  1.00  0.00     0.033 A 
HETATM   33  C   UNL     1      30.494  43.116  55.316  1.00  0.00     0.028 A 
HETATM   34  S   UNL     1      28.628  42.890  53.202  1.00  0.00    -0.067 SA
HETATM   35  C   UNL     1      30.977  43.900  56.377  1.00  0.00    -0.061 A 
HETATM   36  C   UNL     1      32.125  43.421  57.218  1.00  0.00     0.048 C 
HETATM   37  C   UNL     1      30.384  45.133  56.659  1.00  0.00     0.009 A 
ENDBRANCH  25  28
ENDBRANCH   1  22
TORSDOF 7
ENDMDL
MODEL 10
REMARK VINA RESULT:      -9.0      4.383      7.388
REMARK  7 active torsions:
REMARK  status: ('A' for Active; 'I' for Inactive)
REMARK    1  A    between atoms: C_7  and  C_8 
REMARK    2  A    between atoms: C_11  and  N_12 
REMARK       I    between atoms: N_12  and  C_13 
REMARK    3  A    between atoms: C_13  and  C_14 
REMARK    4  A    between atoms: C_14  and  N_15 
REMARK    5  A    between atoms: N_15  and  C_16 
REMARK    6  A    between atoms: C_17  and  O_18 
REMARK    7  A    between atoms: C_22  and  N_23 
REMARK       I    between atoms: N_23  and  C_24 
ROOT
HETATM    1  N   UNL     1      23.910  43.686  48.544  1.00  0.00    -0.325 N 
HETATM    2  C   UNL     1      23.211  42.761  47.828  1.00  0.00     0.244 C 
HETATM    3  O   UNL     1      22.374  43.241  47.046  1.00  0.00    -0.271 OA
HETATM    4  H   UNL     1      23.629  44.610  48.235  1.00  0.00     0.169 HD
ENDROOT
BRANCH   2   5
HETATM    5  C   UNL     1      23.373  41.239  47.947  1.00  0.00     0.170 C 
HETATM    6  C   UNL     1      22.070  40.515  47.592  1.00  0.00     0.042 C 
BRANCH   5   7
HETATM    7  N   UNL     1      24.472  40.611  47.204  1.00  0.00    -0.375 N 
HETATM    8  H   UNL     1      24.280  40.541  46.203  1.00  0.00     0.160 HD
BRANCH   7   9
HETATM    9  C   UNL     1      25.847  40.720  47.393  1.00  0.00     0.064 A 
HETATM   10  C   UNL     1      26.652  40.894  46.238  1.00  0.00     0.094 A 
HETATM   11  C   UNL     1      28.043  40.858  46.330  1.00  0.00     0.041 A 
HETATM   12  C   UNL     1      28.660  40.625  47.563  1.00  0.00     0.032 A 
HETATM   13  C   UNL     1      27.894  40.437  48.708  1.00  0.00     0.037 A 
HETATM   14  C   UNL     1      26.496  40.525  48.616  1.00  0.00     0.061 A 
BRANCH  10  15
HETATM   15  O   UNL     1      25.950  41.100  45.068  1.00  0.00    -0.354 OA
HETATM   16  C   UNL     1      26.707  41.437  43.913  1.00  0.00     0.210 C 
ENDBRANCH  10  15
BRANCH  13  17
HETATM   17  N   UNL     1      28.426  40.183  49.986  1.00  0.00    -0.327 N 
HETATM   18  C   UNL     1      29.021  39.090  50.542  1.00  0.00     0.218 C 
HETATM   19  C   UNL     1      29.032  37.764  49.837  1.00  0.00     0.117 C 
HETATM   20  O   UNL     1      29.511  39.199  51.669  1.00  0.00    -0.274 OA
HETATM   21  H   UNL     1      28.334  40.931  50.666  1.00  0.00     0.169 HD
ENDBRANCH  13  17
ENDBRANCH   7   9
ENDBRANCH   5   7
ENDBRANCH   2   5
BRANCH   1  22
HETATM   22  C   UNL     1      24.954  43.665  49.478  1.00  0.00     0.034 A 
HETATM   23  C   UNL     1      26.267  44.062  49.261  1.00  0.00     0.030 A 
HETATM   24  C   UNL     1      27.198  44.085  50.318  1.00  0.00     0.016 A 
HETATM   25  C   UNL     1      26.840  43.686  51.612  1.00  0.00    -0.000 A 
HETATM   26  C   UNL     1      25.534  43.218  51.804  1.00  0.00     0.016 A 
HETATM   27  C   UNL     1      24.609  43.208  50.757  1.00  0.00     0.030 A 
BRANCH  25  28
HETATM   28  C   UNL     1      27.746  43.739  52.777  1.00  0.00     0.109 A 
HETATM   29  N   UNL     1      27.846  44.788  53.569  1.00  0.00    -0.240 NA
HETATM   30  C   UNL     1      28.828  44.592  54.522  1.00  0.00     0.075 A 
HETATM   31  C   UNL     1      29.484  43.364  54.456  1.00  0.00     0.036 A 
HETATM   32  C   UNL     1      29.209  45.513  55.515  1.00  0.00     0.033 A 
HETATM   33  C   UNL     1      30.516  43.025  55.350  1.00  0.00     0.028 A 
HETATM   34  S   UNL     1      28.820  42.448  53.161  1.00  0.00    -0.067 SA
HETATM   35  C   UNL     1      30.891  43.958  56.331  1.00  0.00    -0.061 A 
HETATM   36  C   UNL     1      31.990  43.640  57.304  1.00  0.00     0.048 C 
HETATM   37  C   UNL     1      30.235  45.188  56.410  1.00  0.00     0.009 A 
ENDBRANCH  25  28
ENDBRANCH   1  22
TORSDOF 7
ENDMDL
