MODEL 1
REMARK VINA RESULT:      -9.3      0.000      0.000
REMARK  10 active torsions:
REMARK  status: ('A' for Active; 'I' for Inactive)
REMARK    1  A    between atoms: C_2  and  O_3 
REMARK    2  A    between atoms: O_3  and  C_4 
REMARK    3  A    between atoms: C_6  and  O_7 
REMARK    4  A    between atoms: O_7  and  C_8 
REMARK    5  A    between atoms: C_11  and  C_12 
REMARK       I    between atoms: C_12  and  N_13 
REMARK    6  A    between atoms: N_13  and  C_14 
REMARK    7  A    between atoms: C_14  and  N_15 
REMARK    8  A    between atoms: N_15  and  C_16 
REMARK    9  A    between atoms: C_18  and  C_19 
REMARK   10  A    between atoms: C_28  and  O_29 
ROOT
HETATM    1  N   UNL     1      24.243  47.444  50.632  1.00  0.00    -0.333 N 
HETATM    2  H   UNL     1      23.554  47.827  51.283  1.00  0.00     0.168 HD
ENDROOT
BRANCH   1   3
HETATM    3  C   UNL     1      24.533  48.291  49.590  1.00  0.00     0.179 C 
HETATM    4  S   UNL     1      26.021  48.803  49.023  1.00  0.00    -0.040 SA
BRANCH   3   5
HETATM    5  N   UNL     1      23.434  48.802  48.923  1.00  0.00    -0.299 N 
HETATM    6  C   UNL     1      22.717  49.966  49.176  1.00  0.00     0.258 C 
HETATM    7  O   UNL     1      23.114  50.844  49.939  1.00  0.00    -0.267 OA
HETATM    8  H   UNL     1      23.077  48.145  48.246  1.00  0.00     0.171 HD
BRANCH   6   9
HETATM    9  C   UNL     1      21.407  50.119  48.474  1.00  0.00     0.037 A 
HETATM   10  C   UNL     1      20.686  51.304  48.685  1.00  0.00     0.054 A 
HETATM   11  C   UNL     1      19.435  51.481  48.095  1.00  0.00     0.072 A 
HETATM   12  C   UNL     1      18.890  50.463  47.305  1.00  0.00     0.073 A 
HETATM   13  C   UNL     1      19.602  49.288  47.076  1.00  0.00     0.072 A 
HETATM   14  C   UNL     1      20.868  49.127  47.644  1.00  0.00     0.054 A 
BRANCH  11  15
HETATM   15  O   UNL     1      18.635  52.584  48.225  1.00  0.00    -0.351 OA
BRANCH  15  16
HETATM   16  C   UNL     1      17.244  52.358  48.447  1.00  0.00     0.171 C 
HETATM   17  C   UNL     1      16.960  52.619  49.915  1.00  0.00     0.034 C 
ENDBRANCH  15  16
ENDBRANCH  11  15
BRANCH  13  18
HETATM   18  O   UNL     1      19.184  48.228  46.319  1.00  0.00    -0.351 OA
BRANCH  18  19
HETATM   19  C   UNL     1      19.306  46.930  46.900  1.00  0.00     0.171 C 
HETATM   20  C   UNL     1      18.098  46.702  47.792  1.00  0.00     0.034 C 
ENDBRANCH  18  19
ENDBRANCH  13  18
ENDBRANCH   6   9
ENDBRANCH   3   5
ENDBRANCH   1   3
BRANCH   1  21
HETATM   21  C   UNL     1      24.744  46.166  50.966  1.00  0.00     0.035 A 
HETATM   22  C   UNL     1      25.719  46.102  51.975  1.00  0.00     0.046 A 
HETATM   23  C   UNL     1      26.259  44.873  52.405  1.00  0.00     0.036 A 
HETATM   24  C   UNL     1      25.750  43.695  51.823  1.00  0.00     0.084 A 
HETATM   25  C   UNL     1      24.763  43.733  50.832  1.00  0.00    -0.026 A 
HETATM   26  C   UNL     1      24.229  42.467  50.224  1.00  0.00     0.051 C 
HETATM   27  C   UNL     1      24.272  44.976  50.412  1.00  0.00     0.039 A 
BRANCH  23  28
HETATM   28  C   UNL     1      27.316  44.788  53.435  1.00  0.00     0.112 A 
HETATM   29  S   UNL     1      27.484  45.954  54.688  1.00  0.00    -0.067 SA
HETATM   30  C   UNL     1      28.889  45.149  55.270  1.00  0.00     0.035 A 
HETATM   31  C   UNL     1      29.136  44.036  54.468  1.00  0.00     0.075 A 
HETATM   32  C   UNL     1      29.716  45.479  56.356  1.00  0.00     0.021 A 
HETATM   33  N   UNL     1      28.248  43.851  53.422  1.00  0.00    -0.239 NA
HETATM   34  C   UNL     1      30.242  43.215  54.767  1.00  0.00     0.033 A 
HETATM   35  C   UNL     1      31.070  43.530  55.848  1.00  0.00     0.002 A 
HETATM   36  C   UNL     1      30.810  44.651  56.630  1.00  0.00     0.002 A 
ENDBRANCH  23  28
BRANCH  24  37
HETATM   37  O   UNL     1      26.189  42.448  52.204  1.00  0.00    -0.359 OA
HETATM   38  H   UNL     1      26.411  41.944  51.392  1.00  0.00     0.218 HD
ENDBRANCH  24  37
ENDBRANCH   1  21
TORSDOF 10
ENDMDL
MODEL 2
REMARK VINA RESULT:      -9.3      2.601     11.353
REMARK  10 active torsions:
REMARK  status: ('A' for Active; 'I' for Inactive)
REMARK    1  A    between atoms: C_2  and  O_3 
REMARK    2  A    between atoms: O_3  and  C_4 
REMARK    3  A    between atoms: C_6  and  O_7 
REMARK    4  A    between atoms: O_7  and  C_8 
REMARK    5  A    between atoms: C_11  and  C_12 
REMARK       I    between atoms: C_12  and  N_13 
REMARK    6  A    between atoms: N_13  and  C_14 
REMARK    7  A    between atoms: C_14  and  N_15 
REMARK    8  A    between atoms: N_15  and  C_16 
REMARK    9  A    between atoms: C_18  and  C_19 
REMARK   10  A    between atoms: C_28  and  O_29 
ROOT
HETATM    1  N   UNL     1      24.588  46.405  50.925  1.00  0.00    -0.333 N 
HETATM    2  H   UNL     1      24.088  46.530  51.807  1.00  0.00     0.168 HD
ENDROOT
BRANCH   1   3
HETATM    3  C   UNL     1      25.152  45.158  50.794  1.00  0.00     0.179 C 
HETATM    4  S   UNL     1      24.957  44.029  49.577  1.00  0.00    -0.040 SA
BRANCH   3   5
HETATM    5  N   UNL     1      25.994  44.782  51.827  1.00  0.00    -0.299 N 
HETATM    6  C   UNL     1      26.476  45.541  52.886  1.00  0.00     0.258 C 
HETATM    7  O   UNL     1      26.029  46.649  53.174  1.00  0.00    -0.267 OA
HETATM    8  H   UNL     1      26.369  43.857  51.676  1.00  0.00     0.171 HD
BRANCH   6   9
HETATM    9  C   UNL     1      27.592  44.952  53.687  1.00  0.00     0.037 A 
HETATM   10  C   UNL     1      28.230  45.777  54.625  1.00  0.00     0.054 A 
HETATM   11  C   UNL     1      29.310  45.296  55.366  1.00  0.00     0.072 A 
HETATM   12  C   UNL     1      29.767  43.990  55.157  1.00  0.00     0.073 A 
HETATM   13  C   UNL     1      29.133  43.157  54.240  1.00  0.00     0.072 A 
HETATM   14  C   UNL     1      28.033  43.633  53.521  1.00  0.00     0.054 A 
BRANCH  11  15
HETATM   15  O   UNL     1      30.016  45.999  56.305  1.00  0.00    -0.351 OA
BRANCH  15  16
HETATM   16  C   UNL     1      29.514  45.988  57.641  1.00  0.00     0.171 C 
HETATM   17  C   UNL     1      30.528  45.269  58.512  1.00  0.00     0.034 C 
ENDBRANCH  15  16
ENDBRANCH  11  15
BRANCH  13  18
HETATM   18  O   UNL     1      29.477  41.864  53.954  1.00  0.00    -0.351 OA
BRANCH  18  19
HETATM   19  C   UNL     1      28.452  41.024  53.423  1.00  0.00     0.171 C 
HETATM   20  C   UNL     1      28.954  40.448  52.110  1.00  0.00     0.034 C 
ENDBRANCH  18  19
ENDBRANCH  13  18
ENDBRANCH   6   9
ENDBRANCH   3   5
ENDBRANCH   1   3
BRANCH   1  21
HETATM   21  C   UNL     1      24.561  47.515  50.052  1.00  0.00     0.035 A 
HETATM   22  C   UNL     1      23.301  48.018  49.691  1.00  0.00     0.046 A 
HETATM   23  C   UNL     1      23.165  49.141  48.852  1.00  0.00     0.036 A 
HETATM   24  C   UNL     1      24.343  49.785  48.423  1.00  0.00     0.084 A 
HETATM   25  C   UNL     1      25.610  49.316  48.788  1.00  0.00    -0.026 A 
HETATM   26  C   UNL     1      26.856  50.014  48.325  1.00  0.00     0.051 C 
HETATM   27  C   UNL     1      25.703  48.178  49.601  1.00  0.00     0.039 A 
BRANCH  23  28
HETATM   28  C   UNL     1      21.847  49.660  48.427  1.00  0.00     0.112 A 
HETATM   29  S   UNL     1      20.794  48.774  47.395  1.00  0.00    -0.067 SA
HETATM   30  C   UNL     1      19.676  50.082  47.388  1.00  0.00     0.035 A 
HETATM   31  C   UNL     1      20.181  51.112  48.180  1.00  0.00     0.075 A 
HETATM   32  C   UNL     1      18.441  50.193  46.727  1.00  0.00     0.021 A 
HETATM   33  N   UNL     1      21.419  50.867  48.750  1.00  0.00    -0.239 NA
HETATM   34  C   UNL     1      19.423  52.291  48.329  1.00  0.00     0.033 A 
HETATM   35  C   UNL     1      18.190  52.411  47.680  1.00  0.00     0.002 A 
HETATM   36  C   UNL     1      17.709  51.374  46.887  1.00  0.00     0.002 A 
ENDBRANCH  23  28
BRANCH  24  37
HETATM   37  O   UNL     1      24.310  50.911  47.633  1.00  0.00    -0.359 OA
HETATM   38  H   UNL     1      23.615  50.782  46.952  1.00  0.00     0.218 HD
ENDBRANCH  24  37
ENDBRANCH   1  21
TORSDOF 10
ENDMDL
MODEL 3
REMARK VINA RESULT:      -9.3      0.450      2.668
REMARK  10 active torsions:
REMARK  status: ('A' for Active; 'I' for Inactive)
REMARK    1  A    between atoms: C_2  and  O_3 
REMARK    2  A    between atoms: O_3  and  C_4 
REMARK    3  A    between atoms: C_6  and  O_7 
REMARK    4  A    between atoms: O_7  and  C_8 
REMARK    5  A    between atoms: C_11  and  C_12 
REMARK       I    between atoms: C_12  and  N_13 
REMARK    6  A    between atoms: N_13  and  C_14 
REMARK    7  A    between atoms: C_14  and  N_15 
REMARK    8  A    between atoms: N_15  and  C_16 
REMARK    9  A    between atoms: C_18  and  C_19 
REMARK   10  A    between atoms: C_28  and  O_29 
ROOT
HETATM    1  N   UNL     1      24.245  47.624  50.645  1.00  0.00    -0.333 N 
HETATM    2  H   UNL     1      23.636  48.054  51.343  1.00  0.00     0.168 HD
ENDROOT
BRANCH   1   3
HETATM    3  C   UNL     1      24.482  48.433  49.560  1.00  0.00     0.179 C 
HETATM    4  S   UNL     1      25.938  48.877  48.867  1.00  0.00    -0.040 SA
BRANCH   3   5
HETATM    5  N   UNL     1      23.352  48.966  48.964  1.00  0.00    -0.299 N 
HETATM    6  C   UNL     1      22.711  50.172  49.223  1.00  0.00     0.258 C 
HETATM    7  O   UNL     1      23.210  51.063  49.907  1.00  0.00    -0.267 OA
HETATM    8  H   UNL     1      22.911  48.298  48.351  1.00  0.00     0.171 HD
BRANCH   6   9
HETATM    9  C   UNL     1      21.353  50.356  48.627  1.00  0.00     0.037 A 
HETATM   10  C   UNL     1      20.924  49.419  47.674  1.00  0.00     0.054 A 
HETATM   11  C   UNL     1      19.686  49.568  47.048  1.00  0.00     0.072 A 
HETATM   12  C   UNL     1      18.879  50.667  47.361  1.00  0.00     0.073 A 
HETATM   13  C   UNL     1      19.286  51.595  48.316  1.00  0.00     0.072 A 
HETATM   14  C   UNL     1      20.514  51.426  48.962  1.00  0.00     0.054 A 
BRANCH  11  15
HETATM   15  O   UNL     1      19.158  48.729  46.104  1.00  0.00    -0.351 OA
BRANCH  15  16
HETATM   16  C   UNL     1      18.932  47.374  46.490  1.00  0.00     0.171 C 
HETATM   17  C   UNL     1      19.729  46.485  45.553  1.00  0.00     0.034 C 
ENDBRANCH  15  16
ENDBRANCH  11  15
BRANCH  13  18
HETATM   18  O   UNL     1      18.586  52.701  48.714  1.00  0.00    -0.351 OA
BRANCH  18  19
HETATM   19  C   UNL     1      17.638  52.521  49.767  1.00  0.00     0.171 C 
HETATM   20  C   UNL     1      16.248  52.672  49.173  1.00  0.00     0.034 C 
ENDBRANCH  18  19
ENDBRANCH  13  18
ENDBRANCH   6   9
ENDBRANCH   3   5
ENDBRANCH   1   3
BRANCH   1  21
HETATM   21  C   UNL     1      24.711  46.329  50.965  1.00  0.00     0.035 A 
HETATM   22  C   UNL     1      25.698  46.230  51.960  1.00  0.00     0.046 A 
HETATM   23  C   UNL     1      26.206  44.983  52.376  1.00  0.00     0.036 A 
HETATM   24  C   UNL     1      25.653  43.824  51.796  1.00  0.00     0.084 A 
HETATM   25  C   UNL     1      24.653  43.897  50.820  1.00  0.00    -0.026 A 
HETATM   26  C   UNL     1      24.072  42.652  50.214  1.00  0.00     0.051 C 
HETATM   27  C   UNL     1      24.195  45.157  50.413  1.00  0.00     0.039 A 
BRANCH  23  28
HETATM   28  C   UNL     1      27.275  44.861  53.390  1.00  0.00     0.112 A 
HETATM   29  S   UNL     1      27.482  46.002  54.659  1.00  0.00    -0.067 SA
HETATM   30  C   UNL     1      28.878  45.161  55.209  1.00  0.00     0.035 A 
HETATM   31  C   UNL     1      29.093  44.057  54.386  1.00  0.00     0.075 A 
HETATM   32  C   UNL     1      29.726  45.457  56.290  1.00  0.00     0.021 A 
HETATM   33  N   UNL     1      28.188  43.906  53.349  1.00  0.00    -0.239 NA
HETATM   34  C   UNL     1      30.187  43.210  54.656  1.00  0.00     0.033 A 
HETATM   35  C   UNL     1      31.035  43.491  55.732  1.00  0.00     0.002 A 
HETATM   36  C   UNL     1      30.807  44.603  56.535  1.00  0.00     0.002 A 
ENDBRANCH  23  28
BRANCH  24  37
HETATM   37  O   UNL     1      26.059  42.562  52.165  1.00  0.00    -0.359 OA
HETATM   38  H   UNL     1      25.257  42.030  52.356  1.00  0.00     0.218 HD
ENDBRANCH  24  37
ENDBRANCH   1  21
TORSDOF 10
ENDMDL
MODEL 4
REMARK VINA RESULT:      -9.1      3.125      5.287
REMARK  10 active torsions:
REMARK  status: ('A' for Active; 'I' for Inactive)
REMARK    1  A    between atoms: C_2  and  O_3 
REMARK    2  A    between atoms: O_3  and  C_4 
REMARK    3  A    between atoms: C_6  and  O_7 
REMARK    4  A    between atoms: O_7  and  C_8 
REMARK    5  A    between atoms: C_11  and  C_12 
REMARK       I    between atoms: C_12  and  N_13 
REMARK    6  A    between atoms: N_13  and  C_14 
REMARK    7  A    between atoms: C_14  and  N_15 
REMARK    8  A    between atoms: N_15  and  C_16 
REMARK    9  A    between atoms: C_18  and  C_19 
REMARK   10  A    between atoms: C_28  and  O_29 
ROOT
HETATM    1  N   UNL     1      24.650  41.206  49.175  1.00  0.00    -0.333 N 
HETATM    2  H   UNL     1      23.858  40.680  49.551  1.00  0.00     0.168 HD
ENDROOT
BRANCH   1   3
HETATM    3  C   UNL     1      24.292  42.096  48.192  1.00  0.00     0.179 C 
HETATM    4  S   UNL     1      23.761  41.797  46.634  1.00  0.00    -0.040 SA
BRANCH   3   5
HETATM    5  N   UNL     1      24.398  43.432  48.539  1.00  0.00    -0.299 N 
HETATM    6  C   UNL     1      23.787  44.118  49.581  1.00  0.00     0.258 C 
HETATM    7  O   UNL     1      23.203  43.553  50.504  1.00  0.00    -0.267 OA
HETATM    8  H   UNL     1      24.906  43.953  47.840  1.00  0.00     0.171 HD
BRANCH   6   9
HETATM    9  C   UNL     1      23.861  45.610  49.543  1.00  0.00     0.037 A 
HETATM   10  C   UNL     1      22.741  46.308  49.065  1.00  0.00     0.054 A 
HETATM   11  C   UNL     1      22.772  47.699  48.961  1.00  0.00     0.072 A 
HETATM   12  C   UNL     1      23.931  48.396  49.318  1.00  0.00     0.073 A 
HETATM   13  C   UNL     1      25.042  47.716  49.809  1.00  0.00     0.072 A 
HETATM   14  C   UNL     1      24.998  46.326  49.940  1.00  0.00     0.054 A 
BRANCH  11  15
HETATM   15  O   UNL     1      21.752  48.492  48.508  1.00  0.00    -0.351 OA
BRANCH  15  16
HETATM   16  C   UNL     1      21.678  49.818  49.028  1.00  0.00     0.171 C 
HETATM   17  C   UNL     1      21.217  50.732  47.907  1.00  0.00     0.034 C 
ENDBRANCH  15  16
ENDBRANCH  11  15
BRANCH  13  18
HETATM   18  O   UNL     1      26.225  48.282  50.199  1.00  0.00    -0.351 OA
BRANCH  18  19
HETATM   19  C   UNL     1      27.223  48.453  49.193  1.00  0.00     0.171 C 
HETATM   20  C   UNL     1      27.132  49.880  48.682  1.00  0.00     0.034 C 
ENDBRANCH  18  19
ENDBRANCH  13  18
ENDBRANCH   6   9
ENDBRANCH   3   5
ENDBRANCH   1   3
BRANCH   1  21
HETATM   21  C   UNL     1      25.901  40.916  49.764  1.00  0.00     0.035 A 
HETATM   22  C   UNL     1      26.325  41.747  50.814  1.00  0.00     0.046 A 
HETATM   23  C   UNL     1      27.541  41.523  51.489  1.00  0.00     0.036 A 
HETATM   24  C   UNL     1      28.303  40.400  51.112  1.00  0.00     0.084 A 
HETATM   25  C   UNL     1      27.890  39.545  50.084  1.00  0.00    -0.026 A 
HETATM   26  C   UNL     1      28.713  38.349  49.696  1.00  0.00     0.051 C 
HETATM   27  C   UNL     1      26.688  39.818  49.418  1.00  0.00     0.039 A 
BRANCH  23  28
HETATM   28  C   UNL     1      28.025  42.412  52.568  1.00  0.00     0.112 A 
HETATM   29  S   UNL     1      27.249  43.895  52.963  1.00  0.00    -0.067 SA
HETATM   30  C   UNL     1      28.454  44.229  54.145  1.00  0.00     0.035 A 
HETATM   31  C   UNL     1      29.372  43.179  54.163  1.00  0.00     0.075 A 
HETATM   32  C   UNL     1      28.583  45.340  54.995  1.00  0.00     0.021 A 
HETATM   33  N   UNL     1      29.127  42.164  53.254  1.00  0.00    -0.239 NA
HETATM   34  C   UNL     1      30.450  43.233  55.069  1.00  0.00     0.033 A 
HETATM   35  C   UNL     1      30.586  44.332  55.923  1.00  0.00     0.002 A 
HETATM   36  C   UNL     1      29.664  45.373  55.882  1.00  0.00     0.002 A 
ENDBRANCH  23  28
BRANCH  24  37
HETATM   37  O   UNL     1      29.486  40.080  51.738  1.00  0.00    -0.359 OA
HETATM   38  H   UNL     1      30.179  39.990  51.049  1.00  0.00     0.218 HD
ENDBRANCH  24  37
ENDBRANCH   1  21
TORSDOF 10
ENDMDL
MODEL 5
REMARK VINA RESULT:      -9.0      1.802      2.164
REMARK  10 active torsions:
REMARK  status: ('A' for Active; 'I' for Inactive)
REMARK    1  A    between atoms: C_2  and  O_3 
REMARK    2  A    between atoms: O_3  and  C_4 
REMARK    3  A    between atoms: C_6  and  O_7 
REMARK    4  A    between atoms: O_7  and  C_8 
REMARK    5  A    between atoms: C_11  and  C_12 
REMARK       I    between atoms: C_12  and  N_13 
REMARK    6  A    between atoms: N_13  and  C_14 
REMARK    7  A    between atoms: C_14  and  N_15 
REMARK    8  A    between atoms: N_15  and  C_16 
REMARK    9  A    between atoms: C_18  and  C_19 
REMARK   10  A    between atoms: C_28  and  O_29 
ROOT
HETATM    1  N   UNL     1      24.961  45.341  49.203  1.00  0.00    -0.333 N 
HETATM    2  H   UNL     1      24.606  45.071  48.284  1.00  0.00     0.168 HD
ENDROOT
BRANCH   1   3
HETATM    3  C   UNL     1      24.734  46.663  49.505  1.00  0.00     0.179 C 
HETATM    4  S   UNL     1      25.835  47.880  49.828  1.00  0.00    -0.040 SA
BRANCH   3   5
HETATM    5  N   UNL     1      23.402  47.034  49.560  1.00  0.00    -0.299 N 
HETATM    6  C   UNL     1      22.464  47.089  48.536  1.00  0.00     0.258 C 
HETATM    7  O   UNL     1      22.652  46.589  47.429  1.00  0.00    -0.267 OA
HETATM    8  H   UNL     1      23.166  47.418  50.463  1.00  0.00     0.171 HD
BRANCH   6   9
HETATM    9  C   UNL     1      21.182  47.797  48.832  1.00  0.00     0.037 A 
HETATM   10  C   UNL     1      21.253  49.148  49.205  1.00  0.00     0.054 A 
HETATM   11  C   UNL     1      20.092  49.847  49.540  1.00  0.00     0.072 A 
HETATM   12  C   UNL     1      18.858  49.190  49.520  1.00  0.00     0.073 A 
HETATM   13  C   UNL     1      18.772  47.854  49.137  1.00  0.00     0.072 A 
HETATM   14  C   UNL     1      19.933  47.166  48.774  1.00  0.00     0.054 A 
BRANCH  11  15
HETATM   15  O   UNL     1      20.029  51.160  49.922  1.00  0.00    -0.351 OA
BRANCH  15  16
HETATM   16  C   UNL     1      18.791  51.839  49.714  1.00  0.00     0.171 C 
HETATM   17  C   UNL     1      18.894  52.598  48.403  1.00  0.00     0.034 C 
ENDBRANCH  15  16
ENDBRANCH  11  15
BRANCH  13  18
HETATM   18  O   UNL     1      17.629  47.107  49.068  1.00  0.00    -0.351 OA
BRANCH  18  19
HETATM   19  C   UNL     1      16.494  47.717  48.451  1.00  0.00     0.171 C 
HETATM   20  C   UNL     1      16.636  47.554  46.948  1.00  0.00     0.034 C 
ENDBRANCH  18  19
ENDBRANCH  13  18
ENDBRANCH   6   9
ENDBRANCH   3   5
ENDBRANCH   1   3
BRANCH   1  21
HETATM   21  C   UNL     1      25.569  44.303  49.945  1.00  0.00     0.035 A 
HETATM   22  C   UNL     1      26.286  44.671  51.095  1.00  0.00     0.046 A 
HETATM   23  C   UNL     1      26.901  43.710  51.921  1.00  0.00     0.036 A 
HETATM   24  C   UNL     1      26.731  42.352  51.586  1.00  0.00     0.084 A 
HETATM   25  C   UNL     1      26.001  41.961  50.457  1.00  0.00    -0.026 A 
HETATM   26  C   UNL     1      25.827  40.509  50.115  1.00  0.00     0.051 C 
HETATM   27  C   UNL     1      25.429  42.948  49.645  1.00  0.00     0.039 A 
BRANCH  23  28
HETATM   28  C   UNL     1      27.696  44.079  53.112  1.00  0.00     0.112 A 
HETATM   29  S   UNL     1      27.321  45.444  54.088  1.00  0.00    -0.067 SA
HETATM   30  C   UNL     1      28.704  45.144  55.067  1.00  0.00     0.035 A 
HETATM   31  C   UNL     1      29.363  44.014  54.583  1.00  0.00     0.075 A 
HETATM   32  C   UNL     1      29.177  45.858  56.180  1.00  0.00     0.021 A 
HETATM   33  N   UNL     1      28.792  43.430  53.466  1.00  0.00    -0.239 NA
HETATM   34  C   UNL     1      30.529  43.573  55.241  1.00  0.00     0.033 A 
HETATM   35  C   UNL     1      31.006  44.272  56.353  1.00  0.00     0.002 A 
HETATM   36  C   UNL     1      30.338  45.402  56.814  1.00  0.00     0.002 A 
ENDBRANCH  23  28
BRANCH  24  37
HETATM   37  O   UNL     1      27.263  41.341  52.353  1.00  0.00    -0.359 OA
HETATM   38  H   UNL     1      27.133  41.577  53.297  1.00  0.00     0.218 HD
ENDBRANCH  24  37
ENDBRANCH   1  21
TORSDOF 10
ENDMDL
MODEL 6
REMARK VINA RESULT:      -8.9      1.552      1.892
REMARK  10 active torsions:
REMARK  status: ('A' for Active; 'I' for Inactive)
REMARK    1  A    between atoms: C_2  and  O_3 
REMARK    2  A    between atoms: O_3  and  C_4 
REMARK    3  A    between atoms: C_6  and  O_7 
REMARK    4  A    between atoms: O_7  and  C_8 
REMARK    5  A    between atoms: C_11  and  C_12 
REMARK       I    between atoms: C_12  and  N_13 
REMARK    6  A    between atoms: N_13  and  C_14 
REMARK    7  A    between atoms: C_14  and  N_15 
REMARK    8  A    between atoms: N_15  and  C_16 
REMARK    9  A    between atoms: C_18  and  C_19 
REMARK   10  A    between atoms: C_28  and  O_29 
ROOT
HETATM    1  N   UNL     1      25.586  47.346  51.235  1.00  0.00    -0.333 N 
HETATM    2  H   UNL     1      25.220  47.957  51.968  1.00  0.00     0.168 HD
ENDROOT
BRANCH   1   3
HETATM    3  C   UNL     1      25.596  47.935  49.993  1.00  0.00     0.179 C 
HETATM    4  S   UNL     1      26.865  48.641  49.164  1.00  0.00    -0.040 SA
BRANCH   3   5
HETATM    5  N   UNL     1      24.374  47.956  49.341  1.00  0.00    -0.299 N 
HETATM    6  C   UNL     1      23.459  48.995  49.228  1.00  0.00     0.258 C 
HETATM    7  O   UNL     1      23.723  50.156  49.532  1.00  0.00    -0.267 OA
HETATM    8  H   UNL     1      24.112  47.034  49.025  1.00  0.00     0.171 HD
BRANCH   6   9
HETATM    9  C   UNL     1      22.101  48.645  48.711  1.00  0.00     0.037 A 
HETATM   10  C   UNL     1      21.065  49.569  48.918  1.00  0.00     0.054 A 
HETATM   11  C   UNL     1      19.767  49.275  48.501  1.00  0.00     0.072 A 
HETATM   12  C   UNL     1      19.496  48.045  47.891  1.00  0.00     0.073 A 
HETATM   13  C   UNL     1      20.518  47.127  47.667  1.00  0.00     0.072 A 
HETATM   14  C   UNL     1      21.823  47.437  48.059  1.00  0.00     0.054 A 
BRANCH  11  15
HETATM   15  O   UNL     1      18.674  50.086  48.647  1.00  0.00    -0.351 OA
BRANCH  15  16
HETATM   16  C   UNL     1      18.843  51.273  49.420  1.00  0.00     0.171 C 
HETATM   17  C   UNL     1      19.020  52.433  48.457  1.00  0.00     0.034 C 
ENDBRANCH  15  16
ENDBRANCH  11  15
BRANCH  13  18
HETATM   18  O   UNL     1      20.384  45.901  47.074  1.00  0.00    -0.351 OA
BRANCH  18  19
HETATM   19  C   UNL     1      21.508  45.408  46.345  1.00  0.00     0.171 C 
HETATM   20  C   UNL     1      21.590  43.908  46.569  1.00  0.00     0.034 C 
ENDBRANCH  18  19
ENDBRANCH  13  18
ENDBRANCH   6   9
ENDBRANCH   3   5
ENDBRANCH   1   3
BRANCH   1  21
HETATM   21  C   UNL     1      26.012  46.071  51.669  1.00  0.00     0.035 A 
HETATM   22  C   UNL     1      26.882  46.025  52.771  1.00  0.00     0.046 A 
HETATM   23  C   UNL     1      27.339  44.803  53.301  1.00  0.00     0.036 A 
HETATM   24  C   UNL     1      26.852  43.614  52.722  1.00  0.00     0.084 A 
HETATM   25  C   UNL     1      25.968  43.635  51.637  1.00  0.00    -0.026 A 
HETATM   26  C   UNL     1      25.456  42.359  51.032  1.00  0.00     0.051 C 
HETATM   27  C   UNL     1      25.559  44.871  51.120  1.00  0.00     0.039 A 
BRANCH  23  28
HETATM   28  C   UNL     1      28.287  44.734  54.433  1.00  0.00     0.112 A 
HETATM   29  S   UNL     1      28.311  45.904  55.693  1.00  0.00    -0.067 SA
HETATM   30  C   UNL     1      29.661  45.121  56.417  1.00  0.00     0.035 A 
HETATM   31  C   UNL     1      30.005  44.011  55.647  1.00  0.00     0.075 A 
HETATM   32  C   UNL     1      30.370  45.465  57.580  1.00  0.00     0.021 A 
HETATM   33  N   UNL     1      29.230  43.812  54.518  1.00  0.00    -0.239 NA
HETATM   34  C   UNL     1      31.087  43.207  56.058  1.00  0.00     0.033 A 
HETATM   35  C   UNL     1      31.797  43.536  57.217  1.00  0.00     0.002 A 
HETATM   36  C   UNL     1      31.442  44.653  57.965  1.00  0.00     0.002 A 
ENDBRANCH  23  28
BRANCH  24  37
HETATM   37  O   UNL     1      27.213  42.373  53.195  1.00  0.00    -0.359 OA
HETATM   38  H   UNL     1      26.662  41.703  52.737  1.00  0.00     0.218 HD
ENDBRANCH  24  37
ENDBRANCH   1  21
TORSDOF 10
ENDMDL
MODEL 7
REMARK VINA RESULT:      -8.9      3.334      5.501
REMARK  10 active torsions:
REMARK  status: ('A' for Active; 'I' for Inactive)
REMARK    1  A    between atoms: C_2  and  O_3 
REMARK    2  A    between atoms: O_3  and  C_4 
REMARK    3  A    between atoms: C_6  and  O_7 
REMARK    4  A    between atoms: O_7  and  C_8 
REMARK    5  A    between atoms: C_11  and  C_12 
REMARK       I    between atoms: C_12  and  N_13 
REMARK    6  A    between atoms: N_13  and  C_14 
REMARK    7  A    between atoms: C_14  and  N_15 
REMARK    8  A    between atoms: N_15  and  C_16 
REMARK    9  A    between atoms: C_18  and  C_19 
REMARK   10  A    between atoms: C_28  and  O_29 
ROOT
HETATM    1  N   UNL     1      24.564  40.908  48.548  1.00  0.00    -0.333 N 
HETATM    2  H   UNL     1      23.747  40.359  48.821  1.00  0.00     0.168 HD
ENDROOT
BRANCH   1   3
HETATM    3  C   UNL     1      24.282  41.870  47.608  1.00  0.00     0.179 C 
HETATM    4  S   UNL     1      23.990  41.699  45.971  1.00  0.00    -0.040 SA
BRANCH   3   5
HETATM    5  N   UNL     1      24.246  43.168  48.088  1.00  0.00    -0.299 N 
HETATM    6  C   UNL     1      23.328  43.761  48.946  1.00  0.00     0.258 C 
HETATM    7  O   UNL     1      22.501  43.118  49.589  1.00  0.00    -0.267 OA
HETATM    8  H   UNL     1      24.933  43.748  47.629  1.00  0.00     0.171 HD
BRANCH   6   9
HETATM    9  C   UNL     1      23.377  45.250  49.064  1.00  0.00     0.037 A 
HETATM   10  C   UNL     1      24.335  45.806  49.926  1.00  0.00     0.054 A 
HETATM   11  C   UNL     1      24.394  47.187  50.113  1.00  0.00     0.072 A 
HETATM   12  C   UNL     1      23.481  48.016  49.453  1.00  0.00     0.073 A 
HETATM   13  C   UNL     1      22.536  47.478  48.584  1.00  0.00     0.072 A 
HETATM   14  C   UNL     1      22.499  46.097  48.376  1.00  0.00     0.054 A 
BRANCH  11  15
HETATM   15  O   UNL     1      25.275  47.850  50.925  1.00  0.00    -0.351 OA
BRANCH  15  16
HETATM   16  C   UNL     1      26.149  47.054  51.724  1.00  0.00     0.171 C 
HETATM   17  C   UNL     1      25.672  47.141  53.162  1.00  0.00     0.034 C 
ENDBRANCH  15  16
ENDBRANCH  11  15
BRANCH  13  18
HETATM   18  O   UNL     1      21.601  48.180  47.875  1.00  0.00    -0.351 OA
BRANCH  18  19
HETATM   19  C   UNL     1      20.301  47.600  47.766  1.00  0.00     0.171 C 
HETATM   20  C   UNL     1      19.419  48.226  48.832  1.00  0.00     0.034 C 
ENDBRANCH  18  19
ENDBRANCH  13  18
ENDBRANCH   6   9
ENDBRANCH   3   5
ENDBRANCH   1   3
BRANCH   1  21
HETATM   21  C   UNL     1      25.767  40.569  49.208  1.00  0.00     0.035 A 
HETATM   22  C   UNL     1      26.174  41.398  50.265  1.00  0.00     0.046 A 
HETATM   23  C   UNL     1      27.340  41.129  51.009  1.00  0.00     0.036 A 
HETATM   24  C   UNL     1      28.066  39.963  50.691  1.00  0.00     0.084 A 
HETATM   25  C   UNL     1      27.666  39.110  49.656  1.00  0.00    -0.026 A 
HETATM   26  C   UNL     1      28.449  37.869  49.332  1.00  0.00     0.051 C 
HETATM   27  C   UNL     1      26.517  39.428  48.922  1.00  0.00     0.039 A 
BRANCH  23  28
HETATM   28  C   UNL     1      27.809  42.013  52.097  1.00  0.00     0.112 A 
HETATM   29  S   UNL     1      26.910  43.376  52.635  1.00  0.00    -0.067 SA
HETATM   30  C   UNL     1      28.162  43.787  53.740  1.00  0.00     0.035 A 
HETATM   31  C   UNL     1      29.188  42.849  53.629  1.00  0.00     0.075 A 
HETATM   32  C   UNL     1      28.236  44.862  54.641  1.00  0.00     0.021 A 
HETATM   33  N   UNL     1      28.984  41.859  52.684  1.00  0.00    -0.239 NA
HETATM   34  C   UNL     1      30.324  42.982  54.453  1.00  0.00     0.033 A 
HETATM   35  C   UNL     1      30.407  44.046  55.356  1.00  0.00     0.002 A 
HETATM   36  C   UNL     1      29.375  44.975  55.445  1.00  0.00     0.002 A 
ENDBRANCH  23  28
BRANCH  24  37
HETATM   37  O   UNL     1      29.196  39.598  51.385  1.00  0.00    -0.359 OA
HETATM   38  H   UNL     1      29.851  40.324  51.301  1.00  0.00     0.218 HD
ENDBRANCH  24  37
ENDBRANCH   1  21
TORSDOF 10
ENDMDL
MODEL 8
REMARK VINA RESULT:      -8.8      4.973      9.861
REMARK  10 active torsions:
REMARK  status: ('A' for Active; 'I' for Inactive)
REMARK    1  A    between atoms: C_2  and  O_3 
REMARK    2  A    between atoms: O_3  and  C_4 
REMARK    3  A    between atoms: C_6  and  O_7 
REMARK    4  A    between atoms: O_7  and  C_8 
REMARK    5  A    between atoms: C_11  and  C_12 
REMARK       I    between atoms: C_12  and  N_13 
REMARK    6  A    between atoms: N_13  and  C_14 
REMARK    7  A    between atoms: C_14  and  N_15 
REMARK    8  A    between atoms: N_15  and  C_16 
REMARK    9  A    between atoms: C_18  and  C_19 
REMARK   10  A    between atoms: C_28  and  O_29 
ROOT
HETATM    1  N   UNL     1      24.313  42.443  50.497  1.00  0.00    -0.333 N 
HETATM    2  H   UNL     1      23.787  41.886  51.173  1.00  0.00     0.168 HD
ENDROOT
BRANCH   1   3
HETATM    3  C   UNL     1      24.381  41.864  49.253  1.00  0.00     0.179 C 
HETATM    4  S   UNL     1      23.409  42.108  47.915  1.00  0.00    -0.040 SA
BRANCH   3   5
HETATM    5  N   UNL     1      25.395  40.935  49.091  1.00  0.00    -0.299 N 
HETATM    6  C   UNL     1      26.735  41.144  48.785  1.00  0.00     0.258 C 
HETATM    7  O   UNL     1      27.266  42.252  48.825  1.00  0.00    -0.267 OA
HETATM    8  H   UNL     1      25.033  39.993  49.090  1.00  0.00     0.171 HD
BRANCH   6   9
HETATM    9  C   UNL     1      27.533  39.943  48.392  1.00  0.00     0.037 A 
HETATM   10  C   UNL     1      28.449  39.433  49.324  1.00  0.00     0.054 A 
HETATM   11  C   UNL     1      29.257  38.345  48.993  1.00  0.00     0.072 A 
HETATM   12  C   UNL     1      29.163  37.773  47.720  1.00  0.00     0.073 A 
HETATM   13  C   UNL     1      28.247  38.261  46.791  1.00  0.00     0.072 A 
HETATM   14  C   UNL     1      27.419  39.332  47.137  1.00  0.00     0.054 A 
BRANCH  11  15
HETATM   15  O   UNL     1      30.187  37.759  49.808  1.00  0.00    -0.351 OA
BRANCH  15  16
HETATM   16  C   UNL     1      29.935  37.790  51.213  1.00  0.00     0.171 C 
HETATM   17  C   UNL     1      29.907  36.357  51.711  1.00  0.00     0.034 C 
ENDBRANCH  15  16
ENDBRANCH  11  15
BRANCH  13  18
HETATM   18  O   UNL     1      28.054  37.784  45.524  1.00  0.00    -0.351 OA
BRANCH  18  19
HETATM   19  C   UNL     1      27.823  38.749  44.498  1.00  0.00     0.171 C 
HETATM   20  C   UNL     1      29.068  38.817  43.631  1.00  0.00     0.034 C 
ENDBRANCH  18  19
ENDBRANCH  13  18
ENDBRANCH   6   9
ENDBRANCH   3   5
ENDBRANCH   1   3
BRANCH   1  21
HETATM   21  C   UNL     1      24.816  43.670  50.986  1.00  0.00     0.035 A 
HETATM   22  C   UNL     1      25.873  43.608  51.908  1.00  0.00     0.046 A 
HETATM   23  C   UNL     1      26.467  44.774  52.431  1.00  0.00     0.036 A 
HETATM   24  C   UNL     1      26.000  46.017  51.958  1.00  0.00     0.084 A 
HETATM   25  C   UNL     1      24.962  46.102  51.022  1.00  0.00    -0.026 A 
HETATM   26  C   UNL     1      24.477  47.434  50.526  1.00  0.00     0.051 C 
HETATM   27  C   UNL     1      24.379  44.920  50.548  1.00  0.00     0.039 A 
BRANCH  23  28
HETATM   28  C   UNL     1      27.552  44.730  53.435  1.00  0.00     0.112 A 
HETATM   29  S   UNL     1      28.788  43.535  53.410  1.00  0.00    -0.067 SA
HETATM   30  C   UNL     1      29.458  44.175  54.860  1.00  0.00     0.035 A 
HETATM   31  C   UNL     1      28.692  45.267  55.267  1.00  0.00     0.075 A 
HETATM   32  C   UNL     1      30.579  43.743  55.588  1.00  0.00     0.021 A 
HETATM   33  N   UNL     1      27.606  45.561  54.461  1.00  0.00    -0.239 NA
HETATM   34  C   UNL     1      29.064  45.960  56.437  1.00  0.00     0.033 A 
HETATM   35  C   UNL     1      30.180  45.541  57.168  1.00  0.00     0.002 A 
HETATM   36  C   UNL     1      30.925  44.444  56.747  1.00  0.00     0.002 A 
ENDBRANCH  23  28
BRANCH  24  37
HETATM   37  O   UNL     1      26.543  47.207  52.383  1.00  0.00    -0.359 OA
HETATM   38  H   UNL     1      26.114  47.932  51.878  1.00  0.00     0.218 HD
ENDBRANCH  24  37
ENDBRANCH   1  21
TORSDOF 10
ENDMDL
MODEL 9
REMARK VINA RESULT:      -8.8      1.838      3.317
REMARK  10 active torsions:
REMARK  status: ('A' for Active; 'I' for Inactive)
REMARK    1  A    between atoms: C_2  and  O_3 
REMARK    2  A    between atoms: O_3  and  C_4 
REMARK    3  A    between atoms: C_6  and  O_7 
REMARK    4  A    between atoms: O_7  and  C_8 
REMARK    5  A    between atoms: C_11  and  C_12 
REMARK       I    between atoms: C_12  and  N_13 
REMARK    6  A    between atoms: N_13  and  C_14 
REMARK    7  A    between atoms: C_14  and  N_15 
REMARK    8  A    between atoms: N_15  and  C_16 
REMARK    9  A    between atoms: C_18  and  C_19 
REMARK   10  A    between atoms: C_28  and  O_29 
ROOT
HETATM    1  N   UNL     1      25.259  45.111  49.313  1.00  0.00    -0.333 N 
HETATM    2  H   UNL     1      24.929  44.839  48.385  1.00  0.00     0.168 HD
ENDROOT
BRANCH   1   3
HETATM    3  C   UNL     1      25.025  46.433  49.606  1.00  0.00     0.179 C 
HETATM    4  S   UNL     1      26.115  47.648  49.969  1.00  0.00    -0.040 SA
BRANCH   3   5
HETATM    5  N   UNL     1      23.692  46.808  49.612  1.00  0.00    -0.299 N 
HETATM    6  C   UNL     1      22.706  46.556  48.666  1.00  0.00     0.258 C 
HETATM    7  O   UNL     1      22.847  45.748  47.750  1.00  0.00    -0.267 OA
HETATM    8  H   UNL     1      23.494  47.445  50.369  1.00  0.00     0.171 HD
BRANCH   6   9
HETATM    9  C   UNL     1      21.431  47.324  48.797  1.00  0.00     0.037 A 
HETATM   10  C   UNL     1      20.234  46.664  48.479  1.00  0.00     0.054 A 
HETATM   11  C   UNL     1      19.019  47.346  48.537  1.00  0.00     0.072 A 
HETATM   12  C   UNL     1      18.998  48.699  48.894  1.00  0.00     0.073 A 
HETATM   13  C   UNL     1      20.177  49.361  49.226  1.00  0.00     0.072 A 
HETATM   14  C   UNL     1      21.389  48.666  49.196  1.00  0.00     0.054 A 
BRANCH  11  15
HETATM   15  O   UNL     1      17.789  46.819  48.249  1.00  0.00    -0.351 OA
BRANCH  15  16
HETATM   16  C   UNL     1      17.473  46.616  46.872  1.00  0.00     0.171 C 
HETATM   17  C   UNL     1      17.510  45.122  46.603  1.00  0.00     0.034 C 
ENDBRANCH  15  16
ENDBRANCH  11  15
BRANCH  13  18
HETATM   18  O   UNL     1      20.287  50.672  49.599  1.00  0.00    -0.351 OA
BRANCH  18  19
HETATM   19  C   UNL     1      20.398  51.636  48.552  1.00  0.00     0.171 C 
HETATM   20  C   UNL     1      19.084  52.395  48.474  1.00  0.00     0.034 C 
ENDBRANCH  18  19
ENDBRANCH  13  18
ENDBRANCH   6   9
ENDBRANCH   3   5
ENDBRANCH   1   3
BRANCH   1  21
HETATM   21  C   UNL     1      25.846  44.075  50.074  1.00  0.00     0.035 A 
HETATM   22  C   UNL     1      26.551  44.446  51.230  1.00  0.00     0.046 A 
HETATM   23  C   UNL     1      27.145  43.488  52.074  1.00  0.00     0.036 A 
HETATM   24  C   UNL     1      26.966  42.128  51.750  1.00  0.00     0.084 A 
HETATM   25  C   UNL     1      26.248  41.733  50.615  1.00  0.00    -0.026 A 
HETATM   26  C   UNL     1      26.063  40.279  50.285  1.00  0.00     0.051 C 
HETATM   27  C   UNL     1      25.696  42.718  49.785  1.00  0.00     0.039 A 
BRANCH  23  28
HETATM   28  C   UNL     1      27.928  43.861  53.271  1.00  0.00     0.112 A 
HETATM   29  S   UNL     1      27.575  45.259  54.208  1.00  0.00    -0.067 SA
HETATM   30  C   UNL     1      28.929  44.941  55.221  1.00  0.00     0.035 A 
HETATM   31  C   UNL     1      29.562  43.781  54.778  1.00  0.00     0.075 A 
HETATM   32  C   UNL     1      29.402  45.667  56.328  1.00  0.00     0.021 A 
HETATM   33  N   UNL     1      28.995  43.187  53.663  1.00  0.00    -0.239 NA
HETATM   34  C   UNL     1      30.701  43.320  55.469  1.00  0.00     0.033 A 
HETATM   35  C   UNL     1      31.178  44.031  56.575  1.00  0.00     0.002 A 
HETATM   36  C   UNL     1      30.536  45.191  56.995  1.00  0.00     0.002 A 
ENDBRANCH  23  28
BRANCH  24  37
HETATM   37  O   UNL     1      27.477  41.120  52.534  1.00  0.00    -0.359 OA
HETATM   38  H   UNL     1      28.403  41.353  52.760  1.00  0.00     0.218 HD
ENDBRANCH  24  37
ENDBRANCH   1  21
TORSDOF 10
ENDMDL
MODEL 10
REMARK VINA RESULT:      -8.7      4.971      9.848
REMARK  10 active torsions:
REMARK  status: ('A' for Active; 'I' for Inactive)
REMARK    1  A    between atoms: C_2  and  O_3 
REMARK    2  A    between atoms: O_3  and  C_4 
REMARK    3  A    between atoms: C_6  and  O_7 
REMARK    4  A    between atoms: O_7  and  C_8 
REMARK    5  A    between atoms: C_11  and  C_12 
REMARK       I    between atoms: C_12  and  N_13 
REMARK    6  A    between atoms: N_13  and  C_14 
REMARK    7  A    between atoms: C_14  and  N_15 
REMARK    8  A    between atoms: N_15  and  C_16 
REMARK    9  A    between atoms: C_18  and  C_19 
REMARK   10  A    between atoms: C_28  and  O_29 
ROOT
HETATM    1  N   UNL     1      24.316  42.435  50.486  1.00  0.00    -0.333 N 
HETATM    2  H   UNL     1      23.776  41.886  51.157  1.00  0.00     0.168 HD
ENDROOT
BRANCH   1   3
HETATM    3  C   UNL     1      24.403  41.846  49.247  1.00  0.00     0.179 C 
HETATM    4  S   UNL     1      23.433  42.059  47.902  1.00  0.00    -0.040 SA
BRANCH   3   5
HETATM    5  N   UNL     1      25.436  40.936  49.099  1.00  0.00    -0.299 N 
HETATM    6  C   UNL     1      26.777  41.171  48.821  1.00  0.00     0.258 C 
HETATM    7  O   UNL     1      27.288  42.288  48.878  1.00  0.00    -0.267 OA
HETATM    8  H   UNL     1      25.091  39.988  49.084  1.00  0.00     0.171 HD
BRANCH   6   9
HETATM    9  C   UNL     1      27.604  39.988  48.435  1.00  0.00     0.037 A 
HETATM   10  C   UNL     1      27.261  39.307  47.257  1.00  0.00     0.054 A 
HETATM   11  C   UNL     1      27.967  38.166  46.873  1.00  0.00     0.072 A 
HETATM   12  C   UNL     1      29.008  37.692  47.677  1.00  0.00     0.073 A 
HETATM   13  C   UNL     1      29.368  38.368  48.841  1.00  0.00     0.072 A 
HETATM   14  C   UNL     1      28.678  39.526  49.206  1.00  0.00     0.054 A 
BRANCH  11  15
HETATM   15  O   UNL     1      27.729  37.415  45.754  1.00  0.00    -0.351 OA
BRANCH  15  16
HETATM   16  C   UNL     1      27.401  38.116  44.555  1.00  0.00     0.171 C 
HETATM   17  C   UNL     1      26.052  37.611  44.077  1.00  0.00     0.034 C 
ENDBRANCH  15  16
ENDBRANCH  11  15
BRANCH  13  18
HETATM   18  O   UNL     1      30.369  38.011  49.702  1.00  0.00    -0.351 OA
BRANCH  18  19
HETATM   19  C   UNL     1      30.047  37.985  51.093  1.00  0.00     0.171 C 
HETATM   20  C   UNL     1      29.811  36.538  51.490  1.00  0.00     0.034 C 
ENDBRANCH  18  19
ENDBRANCH  13  18
ENDBRANCH   6   9
ENDBRANCH   3   5
ENDBRANCH   1   3
BRANCH   1  21
HETATM   21  C   UNL     1      24.817  43.663  50.975  1.00  0.00     0.035 A 
HETATM   22  C   UNL     1      25.875  43.603  51.897  1.00  0.00     0.046 A 
HETATM   23  C   UNL     1      26.467  44.769  52.419  1.00  0.00     0.036 A 
HETATM   24  C   UNL     1      25.998  46.011  51.946  1.00  0.00     0.084 A 
HETATM   25  C   UNL     1      24.960  46.095  51.011  1.00  0.00    -0.026 A 
HETATM   26  C   UNL     1      24.473  47.426  50.514  1.00  0.00     0.051 C 
HETATM   27  C   UNL     1      24.378  44.912  50.537  1.00  0.00     0.039 A 
BRANCH  23  28
HETATM   28  C   UNL     1      27.552  44.727  53.423  1.00  0.00     0.112 A 
HETATM   29  S   UNL     1      28.791  43.535  53.397  1.00  0.00    -0.067 SA
HETATM   30  C   UNL     1      29.460  44.176  54.847  1.00  0.00     0.035 A 
HETATM   31  C   UNL     1      28.692  45.265  55.255  1.00  0.00     0.075 A 
HETATM   32  C   UNL     1      30.582  43.745  55.574  1.00  0.00     0.021 A 
HETATM   33  N   UNL     1      27.605  45.558  54.449  1.00  0.00    -0.239 NA
HETATM   34  C   UNL     1      29.063  45.958  56.425  1.00  0.00     0.033 A 
HETATM   35  C   UNL     1      30.180  45.542  57.155  1.00  0.00     0.002 A 
HETATM   36  C   UNL     1      30.927  44.447  56.734  1.00  0.00     0.002 A 
ENDBRANCH  23  28
BRANCH  24  37
HETATM   37  O   UNL     1      26.539  47.203  52.370  1.00  0.00    -0.359 OA
HETATM   38  H   UNL     1      26.109  47.927  51.866  1.00  0.00     0.218 HD
ENDBRANCH  24  37
ENDBRANCH   1  21
TORSDOF 10
ENDMDL
