MODEL 1
REMARK VINA RESULT:      -8.7      0.000      0.000
REMARK  8 active torsions:
REMARK  status: ('A' for Active; 'I' for Inactive)
REMARK    1  A    between atoms: C_3  and  N_4 
REMARK       I    between atoms: N_4  and  C_5 
REMARK    2  A    between atoms: C_5  and  C_6 
REMARK    3  A    between atoms: C_7  and  C_8 
REMARK    4  A    between atoms: C_11  and  C_12 
REMARK    5  A    between atoms: C_21  and  C_22 
REMARK    6  A    between atoms: C_22  and  C_23 
REMARK    7  A    between atoms: C_23  and  C_24 
REMARK    8  A    between atoms: C_24  and  O_25 
ROOT
HETATM    1  C   UNL     1      25.497  45.212  52.304  1.00  0.00     0.062 A 
HETATM    2  C   UNL     1      24.727  44.326  51.331  1.00  0.00     0.202 A 
HETATM    3  N   UNL     1      24.115  45.118  50.255  1.00  0.00    -0.083 N 
HETATM    4  C   UNL     1      24.167  46.485  50.190  1.00  0.00     0.726 A 
HETATM    5  N   UNL     1      24.841  47.169  51.131  1.00  0.00    -0.192 N 
HETATM    6  N   UNL     1      23.309  44.614  49.295  1.00  0.00    -0.140 NA
HETATM    7  C   UNL     1      22.997  45.730  48.619  1.00  0.00     0.166 A 
HETATM    8  N   UNL     1      23.489  46.899  49.151  1.00  0.00    -0.046 NA
HETATM    9  C   UNL     1      25.531  46.561  52.172  1.00  0.00     0.037 A 
HETATM   10  C   UNL     1      26.277  47.490  53.098  1.00  0.00     0.070 C 
HETATM   11  H   UNL     1      24.914  48.179  51.042  1.00  0.00     0.184 HD
ENDROOT
BRANCH   1  12
HETATM   12  C   UNL     1      26.324  44.539  53.336  1.00  0.00     0.256 C 
HETATM   13  N   UNL     1      27.675  44.765  53.176  1.00  0.00    -0.323 N 
HETATM   14  H   UNL     1      27.961  45.269  52.350  1.00  0.00     0.169 HD
HETATM   15  O   UNL     1      25.774  43.845  54.180  1.00  0.00    -0.267 OA
BRANCH  13  16
HETATM   16  C   UNL     1      28.722  44.319  54.021  1.00  0.00     0.041 A 
HETATM   17  C   UNL     1      29.434  43.150  53.670  1.00  0.00    -0.035 A 
HETATM   18  C   UNL     1      29.127  42.356  52.429  1.00  0.00     0.050 C 
HETATM   19  C   UNL     1      30.484  42.706  54.497  1.00  0.00     0.009 A 
HETATM   20  C   UNL     1      30.827  43.399  55.655  1.00  0.00     0.001 A 
HETATM   21  C   UNL     1      30.129  44.550  55.999  1.00  0.00     0.002 A 
HETATM   22  C   UNL     1      29.088  45.006  55.186  1.00  0.00     0.030 A 
ENDBRANCH  13  16
ENDBRANCH   1  12
BRANCH   2  23
HETATM   23  C   UNL     1      25.553  43.180  50.764  1.00  0.00    -0.028 A 
HETATM   24  C   UNL     1      26.501  43.433  49.762  1.00  0.00     0.010 A 
HETATM   25  C   UNL     1      27.229  42.389  49.186  1.00  0.00     0.008 A 
HETATM   26  C   UNL     1      27.030  41.065  49.598  1.00  0.00    -0.055 A 
HETATM   27  C   UNL     1      26.095  40.813  50.612  1.00  0.00     0.008 A 
HETATM   28  C   UNL     1      25.367  41.857  51.192  1.00  0.00     0.010 A 
BRANCH  26  29
HETATM   29  C   UNL     1      27.806  39.945  48.930  1.00  0.00     0.010 C 
HETATM   30  C   UNL     1      28.667  40.456  47.773  1.00  0.00     0.015 C 
HETATM   31  C   UNL     1      28.654  39.175  49.945  1.00  0.00     0.015 C 
ENDBRANCH  26  29
ENDBRANCH   2  23
BRANCH   7  32
HETATM   32  C   UNL     1      22.180  45.715  47.379  1.00  0.00     0.085 C 
BRANCH  32  33
HETATM   33  C   UNL     1      20.879  44.929  47.529  1.00  0.00     0.034 C 
BRANCH  33  34
HETATM   34  C   UNL     1      19.892  45.585  48.487  1.00  0.00     0.164 C 
BRANCH  34  35
HETATM   35  O   UNL     1      18.803  44.699  48.730  1.00  0.00    -0.401 OA
HETATM   36  H   UNL     1      17.990  45.149  48.449  1.00  0.00     0.209 HD
ENDBRANCH  34  35
ENDBRANCH  33  34
ENDBRANCH  32  33
ENDBRANCH   7  32
TORSDOF 8
ENDMDL
MODEL 2
REMARK VINA RESULT:      -8.3      2.353      8.252
REMARK  8 active torsions:
REMARK  status: ('A' for Active; 'I' for Inactive)
REMARK    1  A    between atoms: C_3  and  N_4 
REMARK       I    between atoms: N_4  and  C_5 
REMARK    2  A    between atoms: C_5  and  C_6 
REMARK    3  A    between atoms: C_7  and  C_8 
REMARK    4  A    between atoms: C_11  and  C_12 
REMARK    5  A    between atoms: C_21  and  C_22 
REMARK    6  A    between atoms: C_22  and  C_23 
REMARK    7  A    between atoms: C_23  and  C_24 
REMARK    8  A    between atoms: C_24  and  O_25 
ROOT
HETATM    1  C   UNL     1      25.701  42.264  50.981  1.00  0.00     0.062 A 
HETATM    2  C   UNL     1      26.284  43.321  51.912  1.00  0.00     0.202 A 
HETATM    3  N   UNL     1      27.636  42.954  52.356  1.00  0.00    -0.083 N 
HETATM    4  C   UNL     1      28.252  41.774  52.036  1.00  0.00     0.726 A 
HETATM    5  N   UNL     1      27.621  40.893  51.238  1.00  0.00    -0.192 N 
HETATM    6  N   UNL     1      28.369  43.659  53.248  1.00  0.00    -0.140 NA
HETATM    7  C   UNL     1      29.466  42.891  53.333  1.00  0.00     0.166 A 
HETATM    8  N   UNL     1      29.420  41.717  52.619  1.00  0.00    -0.046 NA
HETATM    9  C   UNL     1      26.370  41.125  50.681  1.00  0.00     0.037 A 
HETATM   10  C   UNL     1      25.848  40.045  49.765  1.00  0.00     0.070 C 
HETATM   11  H   UNL     1      28.110  40.044  50.967  1.00  0.00     0.184 HD
ENDROOT
BRANCH   1  12
HETATM   12  C   UNL     1      24.420  42.583  50.302  1.00  0.00     0.256 C 
HETATM   13  N   UNL     1      24.569  42.812  48.951  1.00  0.00    -0.323 N 
HETATM   14  H   UNL     1      25.510  42.833  48.590  1.00  0.00     0.169 HD
HETATM   15  O   UNL     1      23.394  42.647  50.966  1.00  0.00    -0.267 OA
BRANCH  13  16
HETATM   16  C   UNL     1      23.541  43.078  48.011  1.00  0.00     0.041 A 
HETATM   17  C   UNL     1      23.015  44.387  47.924  1.00  0.00    -0.035 A 
HETATM   18  C   UNL     1      23.504  45.516  48.791  1.00  0.00     0.050 C 
HETATM   19  C   UNL     1      22.003  44.664  46.986  1.00  0.00     0.009 A 
HETATM   20  C   UNL     1      21.511  43.667  46.146  1.00  0.00     0.001 A 
HETATM   21  C   UNL     1      22.030  42.382  46.229  1.00  0.00     0.002 A 
HETATM   22  C   UNL     1      23.038  42.093  47.152  1.00  0.00     0.030 A 
ENDBRANCH  13  16
ENDBRANCH   1  12
BRANCH   2  23
HETATM   23  C   UNL     1      26.263  44.727  51.330  1.00  0.00    -0.028 A 
HETATM   24  C   UNL     1      27.024  45.021  50.188  1.00  0.00     0.010 A 
HETATM   25  C   UNL     1      27.065  46.317  49.671  1.00  0.00     0.008 A 
HETATM   26  C   UNL     1      26.346  47.355  50.279  1.00  0.00    -0.055 A 
HETATM   27  C   UNL     1      25.572  47.058  51.410  1.00  0.00     0.008 A 
HETATM   28  C   UNL     1      25.527  45.761  51.928  1.00  0.00     0.010 A 
BRANCH  26  29
HETATM   29  C   UNL     1      26.438  48.763  49.720  1.00  0.00     0.010 C 
HETATM   30  C   UNL     1      27.768  49.008  49.005  1.00  0.00     0.015 C 
HETATM   31  C   UNL     1      25.256  49.071  48.798  1.00  0.00     0.015 C 
ENDBRANCH  26  29
ENDBRANCH   2  23
BRANCH   7  32
HETATM   32  C   UNL     1      30.652  43.275  54.139  1.00  0.00     0.085 C 
BRANCH  32  33
HETATM   33  C   UNL     1      30.338  43.447  55.623  1.00  0.00     0.034 C 
BRANCH  33  34
HETATM   34  C   UNL     1      30.369  44.902  56.075  1.00  0.00     0.164 C 
BRANCH  34  35
HETATM   35  O   UNL     1      29.206  45.573  55.600  1.00  0.00    -0.401 OA
HETATM   36  H   UNL     1      28.716  44.950  55.037  1.00  0.00     0.209 HD
ENDBRANCH  34  35
ENDBRANCH  33  34
ENDBRANCH  32  33
ENDBRANCH   7  32
TORSDOF 8
ENDMDL
MODEL 3
REMARK VINA RESULT:      -8.0      1.507      1.972
REMARK  8 active torsions:
REMARK  status: ('A' for Active; 'I' for Inactive)
REMARK    1  A    between atoms: C_3  and  N_4 
REMARK       I    between atoms: N_4  and  C_5 
REMARK    2  A    between atoms: C_5  and  C_6 
REMARK    3  A    between atoms: C_7  and  C_8 
REMARK    4  A    between atoms: C_11  and  C_12 
REMARK    5  A    between atoms: C_21  and  C_22 
REMARK    6  A    between atoms: C_22  and  C_23 
REMARK    7  A    between atoms: C_23  and  C_24 
REMARK    8  A    between atoms: C_24  and  O_25 
ROOT
HETATM    1  C   UNL     1      25.266  44.662  51.968  1.00  0.00     0.062 A 
HETATM    2  C   UNL     1      24.654  43.636  51.022  1.00  0.00     0.202 A 
HETATM    3  N   UNL     1      23.961  44.287  49.902  1.00  0.00    -0.083 N 
HETATM    4  C   UNL     1      23.819  45.644  49.777  1.00  0.00     0.726 A 
HETATM    5  N   UNL     1      24.367  46.455  50.699  1.00  0.00    -0.192 N 
HETATM    6  N   UNL     1      23.258  43.634  48.950  1.00  0.00    -0.140 NA
HETATM    7  C   UNL     1      22.807  44.665  48.220  1.00  0.00     0.166 A 
HETATM    8  N   UNL     1      23.115  45.913  48.709  1.00  0.00    -0.046 NA
HETATM    9  C   UNL     1      25.111  45.995  51.778  1.00  0.00     0.037 A 
HETATM   10  C   UNL     1      25.695  47.058  52.675  1.00  0.00     0.070 C 
HETATM   11  H   UNL     1      24.298  47.461  50.567  1.00  0.00     0.184 HD
ENDROOT
BRANCH   1  12
HETATM   12  C   UNL     1      26.156  44.157  53.043  1.00  0.00     0.256 C 
HETATM   13  N   UNL     1      27.456  44.600  52.920  1.00  0.00    -0.323 N 
HETATM   14  H   UNL     1      27.684  45.127  52.090  1.00  0.00     0.169 HD
HETATM   15  O   UNL     1      25.698  43.400  53.889  1.00  0.00    -0.267 OA
BRANCH  13  16
HETATM   16  C   UNL     1      28.532  44.352  53.810  1.00  0.00     0.041 A 
HETATM   17  C   UNL     1      29.361  43.230  53.584  1.00  0.00    -0.035 A 
HETATM   18  C   UNL     1      29.151  42.285  52.432  1.00  0.00     0.050 C 
HETATM   19  C   UNL     1      30.439  42.982  54.454  1.00  0.00     0.009 A 
HETATM   20  C   UNL     1      30.697  43.822  55.535  1.00  0.00     0.001 A 
HETATM   21  C   UNL     1      29.884  44.926  55.755  1.00  0.00     0.002 A 
HETATM   22  C   UNL     1      28.813  45.188  54.897  1.00  0.00     0.030 A 
ENDBRANCH  13  16
ENDBRANCH   1  12
BRANCH   2  23
HETATM   23  C   UNL     1      25.648  42.598  50.521  1.00  0.00    -0.028 A 
HETATM   24  C   UNL     1      25.579  41.279  50.997  1.00  0.00     0.010 A 
HETATM   25  C   UNL     1      26.516  40.325  50.596  1.00  0.00     0.008 A 
HETATM   26  C   UNL     1      27.545  40.660  49.706  1.00  0.00    -0.055 A 
HETATM   27  C   UNL     1      27.603  41.973  49.216  1.00  0.00     0.008 A 
HETATM   28  C   UNL     1      26.665  42.930  49.614  1.00  0.00     0.010 A 
BRANCH  26  29
HETATM   29  C   UNL     1      28.573  39.614  49.316  1.00  0.00     0.010 C 
HETATM   30  C   UNL     1      29.144  38.890  50.536  1.00  0.00     0.015 C 
HETATM   31  C   UNL     1      27.994  38.617  48.309  1.00  0.00     0.015 C 
ENDBRANCH  26  29
ENDBRANCH   2  23
BRANCH   7  32
HETATM   32  C   UNL     1      22.030  44.482  46.968  1.00  0.00     0.085 C 
BRANCH  32  33
HETATM   33  C   UNL     1      22.887  44.603  45.709  1.00  0.00     0.034 C 
BRANCH  33  34
HETATM   34  C   UNL     1      23.316  43.252  45.148  1.00  0.00     0.164 C 
BRANCH  34  35
HETATM   35  O   UNL     1      24.182  42.605  46.077  1.00  0.00    -0.401 OA
HETATM   36  H   UNL     1      24.926  43.204  46.251  1.00  0.00     0.209 HD
ENDBRANCH  34  35
ENDBRANCH  33  34
ENDBRANCH  32  33
ENDBRANCH   7  32
TORSDOF 8
ENDMDL
MODEL 4
REMARK VINA RESULT:      -8.0      3.019      4.217
REMARK  8 active torsions:
REMARK  status: ('A' for Active; 'I' for Inactive)
REMARK    1  A    between atoms: C_3  and  N_4 
REMARK       I    between atoms: N_4  and  C_5 
REMARK    2  A    between atoms: C_5  and  C_6 
REMARK    3  A    between atoms: C_7  and  C_8 
REMARK    4  A    between atoms: C_11  and  C_12 
REMARK    5  A    between atoms: C_21  and  C_22 
REMARK    6  A    between atoms: C_22  and  C_23 
REMARK    7  A    between atoms: C_23  and  C_24 
REMARK    8  A    between atoms: C_24  and  O_25 
ROOT
HETATM    1  C   UNL     1      25.665  47.166  49.888  1.00  0.00     0.062 A 
HETATM    2  C   UNL     1      24.157  46.939  49.892  1.00  0.00     0.202 A 
HETATM    3  N   UNL     1      23.453  48.018  49.184  1.00  0.00    -0.083 N 
HETATM    4  C   UNL     1      24.074  49.122  48.663  1.00  0.00     0.726 A 
HETATM    5  N   UNL     1      25.411  49.237  48.757  1.00  0.00    -0.192 N 
HETATM    6  N   UNL     1      22.109  48.127  49.094  1.00  0.00    -0.140 NA
HETATM    7  C   UNL     1      21.996  49.274  48.408  1.00  0.00     0.166 A 
HETATM    8  N   UNL     1      23.180  49.922  48.144  1.00  0.00    -0.046 NA
HETATM    9  C   UNL     1      26.223  48.269  49.333  1.00  0.00     0.037 A 
HETATM   10  C   UNL     1      27.706  48.547  49.295  1.00  0.00     0.070 C 
HETATM   11  H   UNL     1      25.863  50.036  48.322  1.00  0.00     0.184 HD
ENDROOT
BRANCH   1  12
HETATM   12  C   UNL     1      26.523  46.067  50.399  1.00  0.00     0.256 C 
HETATM   13  N   UNL     1      26.395  45.871  51.758  1.00  0.00    -0.323 N 
HETATM   14  H   UNL     1      25.824  46.529  52.265  1.00  0.00     0.169 HD
HETATM   15  O   UNL     1      27.262  45.479  49.621  1.00  0.00    -0.267 OA
BRANCH  13  16
HETATM   16  C   UNL     1      27.025  44.869  52.539  1.00  0.00     0.041 A 
HETATM   17  C   UNL     1      27.507  45.206  53.824  1.00  0.00    -0.035 A 
HETATM   18  C   UNL     1      27.378  46.590  54.401  1.00  0.00     0.050 C 
HETATM   19  C   UNL     1      28.123  44.215  54.612  1.00  0.00     0.009 A 
HETATM   20  C   UNL     1      28.266  42.912  54.143  1.00  0.00     0.001 A 
HETATM   21  C   UNL     1      27.789  42.580  52.882  1.00  0.00     0.002 A 
HETATM   22  C   UNL     1      27.172  43.551  52.090  1.00  0.00     0.030 A 
ENDBRANCH  13  16
ENDBRANCH   1  12
BRANCH   2  23
HETATM   23  C   UNL     1      23.743  45.575  49.359  1.00  0.00    -0.028 A 
HETATM   24  C   UNL     1      23.445  44.538  50.256  1.00  0.00     0.010 A 
HETATM   25  C   UNL     1      23.119  43.262  49.790  1.00  0.00     0.008 A 
HETATM   26  C   UNL     1      23.079  42.989  48.417  1.00  0.00    -0.055 A 
HETATM   27  C   UNL     1      23.360  44.029  47.520  1.00  0.00     0.008 A 
HETATM   28  C   UNL     1      23.684  45.308  47.983  1.00  0.00     0.010 A 
BRANCH  26  29
HETATM   29  C   UNL     1      22.760  41.585  47.938  1.00  0.00     0.010 C 
HETATM   30  C   UNL     1      21.981  41.592  46.621  1.00  0.00     0.015 C 
HETATM   31  C   UNL     1      24.029  40.738  47.819  1.00  0.00     0.015 C 
ENDBRANCH  26  29
ENDBRANCH   2  23
BRANCH   7  32
HETATM   32  C   UNL     1      20.688  49.813  47.958  1.00  0.00     0.085 C 
BRANCH  32  33
HETATM   33  C   UNL     1      20.313  51.125  48.644  1.00  0.00     0.034 C 
BRANCH  33  34
HETATM   34  C   UNL     1      20.380  51.044  50.164  1.00  0.00     0.164 C 
BRANCH  34  35
HETATM   35  O   UNL     1      19.793  49.821  50.601  1.00  0.00    -0.401 OA
HETATM   36  H   UNL     1      20.418  49.106  50.398  1.00  0.00     0.209 HD
ENDBRANCH  34  35
ENDBRANCH  33  34
ENDBRANCH  32  33
ENDBRANCH   7  32
TORSDOF 8
ENDMDL
MODEL 5
REMARK VINA RESULT:      -7.9      2.738      8.394
REMARK  8 active torsions:
REMARK  status: ('A' for Active; 'I' for Inactive)
REMARK    1  A    between atoms: C_3  and  N_4 
REMARK       I    between atoms: N_4  and  C_5 
REMARK    2  A    between atoms: C_5  and  C_6 
REMARK    3  A    between atoms: C_7  and  C_8 
REMARK    4  A    between atoms: C_11  and  C_12 
REMARK    5  A    between atoms: C_21  and  C_22 
REMARK    6  A    between atoms: C_22  and  C_23 
REMARK    7  A    between atoms: C_23  and  C_24 
REMARK    8  A    between atoms: C_24  and  O_25 
ROOT
HETATM    1  C   UNL     1      25.681  42.614  51.385  1.00  0.00     0.062 A 
HETATM    2  C   UNL     1      26.080  43.850  52.183  1.00  0.00     0.202 A 
HETATM    3  N   UNL     1      27.297  43.609  52.970  1.00  0.00    -0.083 N 
HETATM    4  C   UNL     1      27.937  42.400  53.035  1.00  0.00     0.726 A 
HETATM    5  N   UNL     1      27.469  41.362  52.318  1.00  0.00    -0.192 N 
HETATM    6  N   UNL     1      27.841  44.495  53.833  1.00  0.00    -0.140 NA
HETATM    7  C   UNL     1      28.876  43.783  54.304  1.00  0.00     0.166 A 
HETATM    8  N   UNL     1      28.954  42.487  53.852  1.00  0.00    -0.046 NA
HETATM    9  C   UNL     1      26.370  41.450  51.473  1.00  0.00     0.037 A 
HETATM   10  C   UNL     1      26.028  40.196  50.707  1.00  0.00     0.070 C 
HETATM   11  H   UNL     1      27.983  40.486  52.336  1.00  0.00     0.184 HD
ENDROOT
BRANCH   1  12
HETATM   12  C   UNL     1      24.581  42.761  50.399  1.00  0.00     0.256 C 
HETATM   13  N   UNL     1      25.031  42.846  49.098  1.00  0.00    -0.323 N 
HETATM   14  H   UNL     1      26.029  42.893  48.960  1.00  0.00     0.169 HD
HETATM   15  O   UNL     1      23.427  42.826  50.800  1.00  0.00    -0.267 OA
BRANCH  13  16
HETATM   16  C   UNL     1      24.241  42.931  47.924  1.00  0.00     0.041 A 
HETATM   17  C   UNL     1      24.118  41.790  47.099  1.00  0.00    -0.035 A 
HETATM   18  C   UNL     1      24.793  40.483  47.417  1.00  0.00     0.050 C 
HETATM   19  C   UNL     1      23.325  41.860  45.938  1.00  0.00     0.009 A 
HETATM   20  C   UNL     1      22.665  43.036  45.590  1.00  0.00     0.001 A 
HETATM   21  C   UNL     1      22.783  44.156  46.402  1.00  0.00     0.002 A 
HETATM   22  C   UNL     1      23.562  44.100  47.560  1.00  0.00     0.030 A 
ENDBRANCH  13  16
ENDBRANCH   1  12
BRANCH   2  23
HETATM   23  C   UNL     1      26.217  45.107  51.335  1.00  0.00    -0.028 A 
HETATM   24  C   UNL     1      25.326  46.175  51.523  1.00  0.00     0.010 A 
HETATM   25  C   UNL     1      25.397  47.313  50.717  1.00  0.00     0.008 A 
HETATM   26  C   UNL     1      26.359  47.417  49.704  1.00  0.00    -0.055 A 
HETATM   27  C   UNL     1      27.261  46.357  49.528  1.00  0.00     0.008 A 
HETATM   28  C   UNL     1      27.194  45.217  50.335  1.00  0.00     0.010 A 
BRANCH  26  29
HETATM   29  C   UNL     1      26.390  48.648  48.818  1.00  0.00     0.010 C 
HETATM   30  C   UNL     1      25.099  49.462  48.924  1.00  0.00     0.015 C 
HETATM   31  C   UNL     1      27.612  49.519  49.121  1.00  0.00     0.015 C 
ENDBRANCH  26  29
ENDBRANCH   2  23
BRANCH   7  32
HETATM   32  C   UNL     1      29.874  44.347  55.248  1.00  0.00     0.085 C 
BRANCH  32  33
HETATM   33  C   UNL     1      30.997  43.370  55.587  1.00  0.00     0.034 C 
BRANCH  33  34
HETATM   34  C   UNL     1      31.080  43.048  57.074  1.00  0.00     0.164 C 
BRANCH  34  35
HETATM   35  O   UNL     1      32.203  43.715  57.643  1.00  0.00    -0.401 OA
HETATM   36  H   UNL     1      31.907  44.593  57.934  1.00  0.00     0.209 HD
ENDBRANCH  34  35
ENDBRANCH  33  34
ENDBRANCH  32  33
ENDBRANCH   7  32
TORSDOF 8
ENDMDL
MODEL 6
REMARK VINA RESULT:      -7.9      2.446      5.648
REMARK  8 active torsions:
REMARK  status: ('A' for Active; 'I' for Inactive)
REMARK    1  A    between atoms: C_3  and  N_4 
REMARK       I    between atoms: N_4  and  C_5 
REMARK    2  A    between atoms: C_5  and  C_6 
REMARK    3  A    between atoms: C_7  and  C_8 
REMARK    4  A    between atoms: C_11  and  C_12 
REMARK    5  A    between atoms: C_21  and  C_22 
REMARK    6  A    between atoms: C_22  and  C_23 
REMARK    7  A    between atoms: C_23  and  C_24 
REMARK    8  A    between atoms: C_24  and  O_25 
ROOT
HETATM    1  C   UNL     1      25.350  42.877  49.475  1.00  0.00     0.062 A 
HETATM    2  C   UNL     1      26.126  44.158  49.757  1.00  0.00     0.202 A 
HETATM    3  N   UNL     1      25.280  45.346  49.575  1.00  0.00    -0.083 N 
HETATM    4  C   UNL     1      23.987  45.301  49.129  1.00  0.00     0.726 A 
HETATM    5  N   UNL     1      23.416  44.111  48.869  1.00  0.00    -0.192 N 
HETATM    6  N   UNL     1      25.716  46.621  49.677  1.00  0.00    -0.140 NA
HETATM    7  C   UNL     1      24.594  47.294  49.382  1.00  0.00     0.166 A 
HETATM    8  N   UNL     1      23.519  46.517  49.021  1.00  0.00    -0.046 NA
HETATM    9  C   UNL     1      24.061  42.896  49.059  1.00  0.00     0.037 A 
HETATM   10  C   UNL     1      23.240  41.664  48.768  1.00  0.00     0.070 C 
HETATM   11  H   UNL     1      22.439  44.089  48.588  1.00  0.00     0.184 HD
ENDROOT
BRANCH   1  12
HETATM   12  C   UNL     1      26.015  41.589  49.799  1.00  0.00     0.256 C 
HETATM   13  N   UNL     1      26.992  41.243  48.890  1.00  0.00    -0.323 N 
HETATM   14  H   UNL     1      27.089  41.830  48.075  1.00  0.00     0.169 HD
HETATM   15  O   UNL     1      25.638  40.954  50.775  1.00  0.00    -0.267 OA
BRANCH  13  16
HETATM   16  C   UNL     1      27.849  40.114  48.944  1.00  0.00     0.041 A 
HETATM   17  C   UNL     1      28.037  39.341  47.776  1.00  0.00    -0.035 A 
HETATM   18  C   UNL     1      27.364  39.669  46.470  1.00  0.00     0.050 C 
HETATM   19  C   UNL     1      28.895  38.226  47.817  1.00  0.00     0.009 A 
HETATM   20  C   UNL     1      29.556  37.873  48.990  1.00  0.00     0.001 A 
HETATM   21  C   UNL     1      29.374  38.634  50.137  1.00  0.00     0.002 A 
HETATM   22  C   UNL     1      28.529  39.746  50.111  1.00  0.00     0.030 A 
ENDBRANCH  13  16
ENDBRANCH   1  12
BRANCH   2  23
HETATM   23  C   UNL     1      26.805  44.175  51.119  1.00  0.00    -0.028 A 
HETATM   24  C   UNL     1      26.118  44.677  52.235  1.00  0.00     0.010 A 
HETATM   25  C   UNL     1      26.741  44.755  53.482  1.00  0.00     0.008 A 
HETATM   26  C   UNL     1      28.066  44.332  53.649  1.00  0.00    -0.055 A 
HETATM   27  C   UNL     1      28.747  43.814  52.539  1.00  0.00     0.008 A 
HETATM   28  C   UNL     1      28.125  43.732  51.290  1.00  0.00     0.010 A 
BRANCH  26  29
HETATM   29  C   UNL     1      28.732  44.464  55.007  1.00  0.00     0.010 C 
HETATM   30  C   UNL     1      30.061  43.707  55.068  1.00  0.00     0.015 C 
HETATM   31  C   UNL     1      28.921  45.934  55.391  1.00  0.00     0.015 C 
ENDBRANCH  26  29
ENDBRANCH   2  23
BRANCH   7  32
HETATM   32  C   UNL     1      24.508  48.775  49.441  1.00  0.00     0.085 C 
BRANCH  32  33
HETATM   33  C   UNL     1      23.097  49.304  49.192  1.00  0.00     0.034 C 
BRANCH  33  34
HETATM   34  C   UNL     1      22.921  49.904  47.803  1.00  0.00     0.164 C 
BRANCH  34  35
HETATM   35  O   UNL     1      24.192  50.286  47.284  1.00  0.00    -0.401 OA
HETATM   36  H   UNL     1      24.175  51.247  47.144  1.00  0.00     0.209 HD
ENDBRANCH  34  35
ENDBRANCH  33  34
ENDBRANCH  32  33
ENDBRANCH   7  32
TORSDOF 8
ENDMDL
MODEL 7
REMARK VINA RESULT:      -7.9     17.576     20.505
REMARK  8 active torsions:
REMARK  status: ('A' for Active; 'I' for Inactive)
REMARK    1  A    between atoms: C_3  and  N_4 
REMARK       I    between atoms: N_4  and  C_5 
REMARK    2  A    between atoms: C_5  and  C_6 
REMARK    3  A    between atoms: C_7  and  C_8 
REMARK    4  A    between atoms: C_11  and  C_12 
REMARK    5  A    between atoms: C_21  and  C_22 
REMARK    6  A    between atoms: C_22  and  C_23 
REMARK    7  A    between atoms: C_23  and  C_24 
REMARK    8  A    between atoms: C_24  and  O_25 
ROOT
HETATM    1  C   UNL     1      38.903  45.881  64.981  1.00  0.00     0.062 A 
HETATM    2  C   UNL     1      39.983  45.343  64.050  1.00  0.00     0.202 A 
HETATM    3  N   UNL     1      41.308  45.870  64.408  1.00  0.00    -0.083 N 
HETATM    4  C   UNL     1      41.522  46.790  65.399  1.00  0.00     0.726 A 
HETATM    5  N   UNL     1      40.482  47.229  66.132  1.00  0.00    -0.192 N 
HETATM    6  N   UNL     1      42.442  45.630  63.712  1.00  0.00    -0.140 NA
HETATM    7  C   UNL     1      43.324  46.359  64.413  1.00  0.00     0.166 A 
HETATM    8  N   UNL     1      42.791  47.099  65.442  1.00  0.00    -0.046 NA
HETATM    9  C   UNL     1      39.181  46.773  65.963  1.00  0.00     0.037 A 
HETATM   10  C   UNL     1      38.158  47.339  66.916  1.00  0.00     0.070 C 
HETATM   11  H   UNL     1      40.662  47.872  66.897  1.00  0.00     0.184 HD
ENDROOT
BRANCH   1  12
HETATM   12  C   UNL     1      37.544  45.294  64.864  1.00  0.00     0.256 C 
HETATM   13  N   UNL     1      37.318  44.274  65.764  1.00  0.00    -0.323 N 
HETATM   14  H   UNL     1      38.101  43.977  66.326  1.00  0.00     0.169 HD
HETATM   15  O   UNL     1      36.785  45.717  64.002  1.00  0.00    -0.267 OA
BRANCH  13  16
HETATM   16  C   UNL     1      36.112  43.552  65.953  1.00  0.00     0.041 A 
HETATM   17  C   UNL     1      35.192  44.000  66.927  1.00  0.00    -0.035 A 
HETATM   18  C   UNL     1      35.438  45.219  67.775  1.00  0.00     0.050 C 
HETATM   19  C   UNL     1      33.986  43.298  67.112  1.00  0.00     0.009 A 
HETATM   20  C   UNL     1      33.691  42.167  66.354  1.00  0.00     0.001 A 
HETATM   21  C   UNL     1      34.594  41.728  65.395  1.00  0.00     0.002 A 
HETATM   22  C   UNL     1      35.793  42.418  65.196  1.00  0.00     0.030 A 
ENDBRANCH  13  16
ENDBRANCH   1  12
BRANCH   2  23
HETATM   23  C   UNL     1      40.007  43.824  63.955  1.00  0.00    -0.028 A 
HETATM   24  C   UNL     1      39.410  43.184  62.858  1.00  0.00     0.010 A 
HETATM   25  C   UNL     1      39.369  41.791  62.779  1.00  0.00     0.008 A 
HETATM   26  C   UNL     1      39.924  40.999  63.792  1.00  0.00    -0.055 A 
HETATM   27  C   UNL     1      40.536  41.637  64.880  1.00  0.00     0.008 A 
HETATM   28  C   UNL     1      40.581  43.032  64.961  1.00  0.00     0.010 A 
BRANCH  26  29
HETATM   29  C   UNL     1      39.832  39.486  63.700  1.00  0.00     0.010 C 
HETATM   30  C   UNL     1      39.606  39.013  62.263  1.00  0.00     0.015 C 
HETATM   31  C   UNL     1      41.067  38.818  64.310  1.00  0.00     0.015 C 
ENDBRANCH  26  29
ENDBRANCH   2  23
BRANCH   7  32
HETATM   32  C   UNL     1      44.777  46.371  64.108  1.00  0.00     0.085 C 
BRANCH  32  33
HETATM   33  C   UNL     1      45.581  47.257  65.056  1.00  0.00     0.034 C 
BRANCH  33  34
HETATM   34  C   UNL     1      47.060  47.329  64.696  1.00  0.00     0.164 C 
BRANCH  34  35
HETATM   35  O   UNL     1      47.330  46.439  63.616  1.00  0.00    -0.401 OA
HETATM   36  H   UNL     1      48.122  45.927  63.849  1.00  0.00     0.209 HD
ENDBRANCH  34  35
ENDBRANCH  33  34
ENDBRANCH  32  33
ENDBRANCH   7  32
TORSDOF 8
ENDMDL
MODEL 8
REMARK VINA RESULT:      -7.8      4.835      8.499
REMARK  8 active torsions:
REMARK  status: ('A' for Active; 'I' for Inactive)
REMARK    1  A    between atoms: C_3  and  N_4 
REMARK       I    between atoms: N_4  and  C_5 
REMARK    2  A    between atoms: C_5  and  C_6 
REMARK    3  A    between atoms: C_7  and  C_8 
REMARK    4  A    between atoms: C_11  and  C_12 
REMARK    5  A    between atoms: C_21  and  C_22 
REMARK    6  A    between atoms: C_22  and  C_23 
REMARK    7  A    between atoms: C_23  and  C_24 
REMARK    8  A    between atoms: C_24  and  O_25 
ROOT
HETATM    1  C   UNL     1      21.490  49.248  48.727  1.00  0.00     0.062 A 
HETATM    2  C   UNL     1      20.071  48.888  49.150  1.00  0.00     0.202 A 
HETATM    3  N   UNL     1      19.207  50.076  49.189  1.00  0.00    -0.083 N 
HETATM    4  C   UNL     1      19.649  51.350  48.954  1.00  0.00     0.726 A 
HETATM    5  N   UNL     1      20.939  51.555  48.630  1.00  0.00    -0.192 N 
HETATM    6  N   UNL     1      17.921  50.076  49.605  1.00  0.00    -0.140 NA
HETATM    7  C   UNL     1      17.620  51.379  49.490  1.00  0.00     0.166 A 
HETATM    8  N   UNL     1      18.662  52.192  49.113  1.00  0.00    -0.046 NA
HETATM    9  C   UNL     1      21.863  50.528  48.483  1.00  0.00     0.037 A 
HETATM   10  C   UNL     1      23.249  50.947  48.059  1.00  0.00     0.070 C 
HETATM   11  H   UNL     1      21.242  52.499  48.408  1.00  0.00     0.184 HD
ENDROOT
BRANCH   1  12
HETATM   12  C   UNL     1      22.429  48.130  48.459  1.00  0.00     0.256 C 
HETATM   13  N   UNL     1      23.157  47.759  49.570  1.00  0.00    -0.323 N 
HETATM   14  H   UNL     1      23.050  48.325  50.398  1.00  0.00     0.169 HD
HETATM   15  O   UNL     1      22.504  47.674  47.326  1.00  0.00    -0.267 OA
BRANCH  13  16
HETATM   16  C   UNL     1      24.087  46.693  49.666  1.00  0.00     0.041 A 
HETATM   17  C   UNL     1      25.469  46.987  49.641  1.00  0.00    -0.035 A 
HETATM   18  C   UNL     1      25.997  48.391  49.520  1.00  0.00     0.050 C 
HETATM   19  C   UNL     1      26.400  45.937  49.748  1.00  0.00     0.009 A 
HETATM   20  C   UNL     1      25.980  44.615  49.872  1.00  0.00     0.001 A 
HETATM   21  C   UNL     1      24.622  44.327  49.900  1.00  0.00     0.002 A 
HETATM   22  C   UNL     1      23.685  45.358  49.800  1.00  0.00     0.030 A 
ENDBRANCH  13  16
ENDBRANCH   1  12
BRANCH   2  23
HETATM   23  C   UNL     1      19.444  47.784  48.310  1.00  0.00    -0.028 A 
HETATM   24  C   UNL     1      19.301  46.495  48.846  1.00  0.00     0.010 A 
HETATM   25  C   UNL     1      18.782  45.454  48.074  1.00  0.00     0.008 A 
HETATM   26  C   UNL     1      18.391  45.671  46.746  1.00  0.00    -0.055 A 
HETATM   27  C   UNL     1      18.518  46.963  46.215  1.00  0.00     0.008 A 
HETATM   28  C   UNL     1      19.034  48.008  46.987  1.00  0.00     0.010 A 
BRANCH  26  29
HETATM   29  C   UNL     1      17.867  44.513  45.917  1.00  0.00     0.010 C 
HETATM   30  C   UNL     1      16.894  44.981  44.832  1.00  0.00     0.015 C 
HETATM   31  C   UNL     1      19.014  43.702  45.311  1.00  0.00     0.015 C 
ENDBRANCH  26  29
ENDBRANCH   2  23
BRANCH   7  32
HETATM   32  C   UNL     1      16.259  51.913  49.747  1.00  0.00     0.085 C 
BRANCH  32  33
HETATM   33  C   UNL     1      16.254  53.405  50.072  1.00  0.00     0.034 C 
BRANCH  33  34
HETATM   34  C   UNL     1      14.906  53.900  50.582  1.00  0.00     0.164 C 
BRANCH  34  35
HETATM   35  O   UNL     1      15.000  54.182  51.976  1.00  0.00    -0.401 OA
HETATM   36  H   UNL     1      15.943  54.216  52.206  1.00  0.00     0.209 HD
ENDBRANCH  34  35
ENDBRANCH  33  34
ENDBRANCH  32  33
ENDBRANCH   7  32
TORSDOF 8
ENDMDL
MODEL 9
REMARK VINA RESULT:      -7.5      1.434      2.415
REMARK  8 active torsions:
REMARK  status: ('A' for Active; 'I' for Inactive)
REMARK    1  A    between atoms: C_3  and  N_4 
REMARK       I    between atoms: N_4  and  C_5 
REMARK    2  A    between atoms: C_5  and  C_6 
REMARK    3  A    between atoms: C_7  and  C_8 
REMARK    4  A    between atoms: C_11  and  C_12 
REMARK    5  A    between atoms: C_21  and  C_22 
REMARK    6  A    between atoms: C_22  and  C_23 
REMARK    7  A    between atoms: C_23  and  C_24 
REMARK    8  A    between atoms: C_24  and  O_25 
ROOT
HETATM    1  C   UNL     1      26.446  45.492  53.558  1.00  0.00     0.062 A 
HETATM    2  C   UNL     1      25.622  44.732  52.525  1.00  0.00     0.202 A 
HETATM    3  N   UNL     1      25.053  45.641  51.521  1.00  0.00    -0.083 N 
HETATM    4  C   UNL     1      25.183  47.004  51.563  1.00  0.00     0.726 A 
HETATM    5  N   UNL     1      25.901  47.571  52.550  1.00  0.00    -0.192 N 
HETATM    6  N   UNL     1      24.214  45.263  50.531  1.00  0.00    -0.140 NA
HETATM    7  C   UNL     1      23.965  46.446  49.948  1.00  0.00     0.166 A 
HETATM    8  N   UNL     1      24.527  47.537  50.567  1.00  0.00    -0.046 NA
HETATM    9  C   UNL     1      26.558  46.842  53.533  1.00  0.00     0.037 A 
HETATM   10  C   UNL     1      27.361  47.650  54.523  1.00  0.00     0.070 C 
HETATM   11  H   UNL     1      26.032  48.578  52.541  1.00  0.00     0.184 HD
ENDROOT
BRANCH   1  12
HETATM   12  C   UNL     1      27.237  44.691  54.526  1.00  0.00     0.256 C 
HETATM   13  N   UNL     1      28.547  45.109  54.627  1.00  0.00    -0.323 N 
HETATM   14  H   UNL     1      28.850  45.829  53.989  1.00  0.00     0.169 HD
HETATM   15  O   UNL     1      26.702  43.753  55.100  1.00  0.00    -0.267 OA
BRANCH  13  16
HETATM   16  C   UNL     1      29.542  44.599  55.500  1.00  0.00     0.041 A 
HETATM   17  C   UNL     1      29.694  45.181  56.779  1.00  0.00    -0.035 A 
HETATM   18  C   UNL     1      28.838  46.323  57.256  1.00  0.00     0.050 C 
HETATM   19  C   UNL     1      30.669  44.673  57.657  1.00  0.00     0.009 A 
HETATM   20  C   UNL     1      31.489  43.611  57.282  1.00  0.00     0.001 A 
HETATM   21  C   UNL     1      31.338  43.037  56.027  1.00  0.00     0.002 A 
HETATM   22  C   UNL     1      30.370  43.527  55.146  1.00  0.00     0.030 A 
ENDBRANCH  13  16
ENDBRANCH   1  12
BRANCH   2  23
HETATM   23  C   UNL     1      26.377  43.589  51.862  1.00  0.00    -0.028 A 
HETATM   24  C   UNL     1      25.727  42.367  51.627  1.00  0.00     0.010 A 
HETATM   25  C   UNL     1      26.416  41.287  51.073  1.00  0.00     0.008 A 
HETATM   26  C   UNL     1      27.772  41.397  50.737  1.00  0.00    -0.055 A 
HETATM   27  C   UNL     1      28.417  42.623  50.955  1.00  0.00     0.008 A 
HETATM   28  C   UNL     1      27.729  43.707  51.507  1.00  0.00     0.010 A 
BRANCH  26  29
HETATM   29  C   UNL     1      28.507  40.196  50.172  1.00  0.00     0.010 C 
HETATM   30  C   UNL     1      29.180  39.368  51.269  1.00  0.00     0.015 C 
HETATM   31  C   UNL     1      27.577  39.326  49.322  1.00  0.00     0.015 C 
ENDBRANCH  26  29
ENDBRANCH   2  23
BRANCH   7  32
HETATM   32  C   UNL     1      23.143  46.576  48.718  1.00  0.00     0.085 C 
BRANCH  32  33
HETATM   33  C   UNL     1      22.940  45.249  47.990  1.00  0.00     0.034 C 
BRANCH  33  34
HETATM   34  C   UNL     1      21.697  44.498  48.453  1.00  0.00     0.164 C 
BRANCH  34  35
HETATM   35  O   UNL     1      22.082  43.409  49.288  1.00  0.00    -0.401 OA
HETATM   36  H   UNL     1      22.223  42.637  48.716  1.00  0.00     0.209 HD
ENDBRANCH  34  35
ENDBRANCH  33  34
ENDBRANCH  32  33
ENDBRANCH   7  32
TORSDOF 8
ENDMDL
MODEL 10
REMARK VINA RESULT:      -7.4     17.653     21.340
REMARK  8 active torsions:
REMARK  status: ('A' for Active; 'I' for Inactive)
REMARK    1  A    between atoms: C_3  and  N_4 
REMARK       I    between atoms: N_4  and  C_5 
REMARK    2  A    between atoms: C_5  and  C_6 
REMARK    3  A    between atoms: C_7  and  C_8 
REMARK    4  A    between atoms: C_11  and  C_12 
REMARK    5  A    between atoms: C_21  and  C_22 
REMARK    6  A    between atoms: C_22  and  C_23 
REMARK    7  A    between atoms: C_23  and  C_24 
REMARK    8  A    between atoms: C_24  and  O_25 
ROOT
HETATM    1  C   UNL     1      39.320  45.065  64.599  1.00  0.00     0.062 A 
HETATM    2  C   UNL     1      40.065  45.926  65.613  1.00  0.00     0.202 A 
HETATM    3  N   UNL     1      41.458  46.150  65.203  1.00  0.00    -0.083 N 
HETATM    4  C   UNL     1      42.027  45.585  64.093  1.00  0.00     0.726 A 
HETATM    5  N   UNL     1      41.282  44.804  63.290  1.00  0.00    -0.192 N 
HETATM    6  N   UNL     1      42.379  46.807  65.942  1.00  0.00    -0.140 NA
HETATM    7  C   UNL     1      43.461  46.690  65.157  1.00  0.00     0.166 A 
HETATM    8  N   UNL     1      43.287  45.929  64.024  1.00  0.00    -0.046 NA
HETATM    9  C   UNL     1      39.933  44.555  63.504  1.00  0.00     0.037 A 
HETATM   10  C   UNL     1      39.249  43.701  62.464  1.00  0.00     0.070 C 
HETATM   11  H   UNL     1      41.703  44.434  62.443  1.00  0.00     0.184 HD
ENDROOT
BRANCH   1  12
HETATM   12  C   UNL     1      37.854  44.910  64.779  1.00  0.00     0.256 C 
HETATM   13  N   UNL     1      37.517  43.798  65.523  1.00  0.00    -0.323 N 
HETATM   14  H   UNL     1      38.267  43.174  65.780  1.00  0.00     0.169 HD
HETATM   15  O   UNL     1      37.101  45.717  64.252  1.00  0.00    -0.267 OA
BRANCH  13  16
HETATM   16  C   UNL     1      36.217  43.401  65.925  1.00  0.00     0.041 A 
HETATM   17  C   UNL     1      35.594  44.082  66.996  1.00  0.00    -0.035 A 
HETATM   18  C   UNL     1      36.256  45.217  67.729  1.00  0.00     0.050 C 
HETATM   19  C   UNL     1      34.298  43.703  67.394  1.00  0.00     0.009 A 
HETATM   20  C   UNL     1      33.625  42.667  66.752  1.00  0.00     0.001 A 
HETATM   21  C   UNL     1      34.235  42.000  65.698  1.00  0.00     0.002 A 
HETATM   22  C   UNL     1      35.519  42.368  65.288  1.00  0.00     0.030 A 
ENDBRANCH  13  16
ENDBRANCH   1  12
BRANCH   2  23
HETATM   23  C   UNL     1      39.369  47.243  65.926  1.00  0.00    -0.028 A 
HETATM   24  C   UNL     1      39.345  48.265  64.964  1.00  0.00     0.010 A 
HETATM   25  C   UNL     1      38.763  49.501  65.250  1.00  0.00     0.008 A 
HETATM   26  C   UNL     1      38.188  49.750  66.503  1.00  0.00    -0.055 A 
HETATM   27  C   UNL     1      38.196  48.724  67.458  1.00  0.00     0.008 A 
HETATM   28  C   UNL     1      38.775  47.484  67.174  1.00  0.00     0.010 A 
BRANCH  26  29
HETATM   29  C   UNL     1      37.597  51.116  66.801  1.00  0.00     0.010 C 
HETATM   30  C   UNL     1      37.090  51.218  68.241  1.00  0.00     0.015 C 
HETATM   31  C   UNL     1      38.597  52.233  66.492  1.00  0.00     0.015 C 
ENDBRANCH  26  29
ENDBRANCH   2  23
BRANCH   7  32
HETATM   32  C   UNL     1      44.759  47.334  65.478  1.00  0.00     0.085 C 
BRANCH  32  33
HETATM   33  C   UNL     1      45.923  46.346  65.521  1.00  0.00     0.034 C 
BRANCH  33  34
HETATM   34  C   UNL     1      46.894  46.517  64.359  1.00  0.00     0.164 C 
BRANCH  34  35
HETATM   35  O   UNL     1      46.419  45.787  63.231  1.00  0.00    -0.401 OA
HETATM   36  H   UNL     1      46.599  46.320  62.439  1.00  0.00     0.209 HD
ENDBRANCH  34  35
ENDBRANCH  33  34
ENDBRANCH  32  33
ENDBRANCH   7  32
TORSDOF 8
ENDMDL
