MODEL 1
REMARK VINA RESULT:      -9.6      0.000      0.000
REMARK  6 active torsions:
REMARK  status: ('A' for Active; 'I' for Inactive)
REMARK    1  A    between atoms: C_3  and  C_4 
REMARK    2  A    between atoms: C_4  and  C_5 
REMARK       I    between atoms: C_5  and  N_6 
REMARK    3  A    between atoms: N_6  and  N_7 
REMARK       I    between atoms: N_7  and  C_8 
REMARK    4  A    between atoms: C_8  and  C_9 
REMARK    5  A    between atoms: C_13  and  C_14 
REMARK    6  A    between atoms: C_17  and  O_18 
ROOT
HETATM    1  N   UNL     1      24.300  46.000  50.480  1.00  0.00    -0.262 N 
HETATM    2  C   UNL     1      24.231  44.711  50.966  1.00  0.00     0.288 C 
HETATM    3  O   UNL     1      23.266  43.979  50.754  1.00  0.00    -0.264 OA
HETATM    4  H   UNL     1      25.182  46.506  50.437  1.00  0.00     0.190 HD
ENDROOT
BRANCH   2   5
HETATM    5  C   UNL     1      25.369  44.299  51.743  1.00  0.00     0.121 A 
HETATM    6  N   UNL     1      25.761  42.995  51.833  1.00  0.00    -0.272 N 
HETATM    7  H   UNL     1      25.334  42.194  51.375  1.00  0.00     0.189 HD
HETATM    8  N   UNL     1      26.817  42.792  52.635  1.00  0.00    -0.174 NA
HETATM    9  C   UNL     1      27.134  44.011  53.103  1.00  0.00     0.089 A 
HETATM   10  C   UNL     1      26.256  44.986  52.548  1.00  0.00     0.071 A 
BRANCH   9  11
HETATM   11  C   UNL     1      28.221  44.216  54.069  1.00  0.00    -0.005 A 
HETATM   12  C   UNL     1      29.201  43.233  54.260  1.00  0.00     0.016 A 
HETATM   13  C   UNL     1      30.216  43.408  55.208  1.00  0.00     0.037 A 
HETATM   14  C   UNL     1      30.273  44.565  55.985  1.00  0.00     0.068 A 
HETATM   15  C   UNL     1      29.315  45.557  55.793  1.00  0.00     0.037 A 
HETATM   16  C   UNL     1      28.298  45.384  54.844  1.00  0.00     0.016 A 
BRANCH  14  17
HETATM   17  O   UNL     1      31.304  44.605  56.883  1.00  0.00    -0.356 OA
HETATM   18  C   UNL     1      31.950  43.372  57.174  1.00  0.00     0.210 C 
ENDBRANCH  14  17
ENDBRANCH   9  11
ENDBRANCH   2   5
BRANCH   1  19
HETATM   19  N   UNL     1      23.297  46.467  49.623  1.00  0.00    -0.267 N 
HETATM   20  C   UNL     1      23.306  47.812  49.307  1.00  0.00     0.240 C 
HETATM   21  O   UNL     1      24.131  48.586  49.793  1.00  0.00    -0.272 OA
HETATM   22  H   UNL     1      22.775  45.768  49.096  1.00  0.00     0.190 HD
BRANCH  20  23
HETATM   23  C   UNL     1      22.196  48.253  48.372  1.00  0.00     0.143 C 
BRANCH  23  24
HETATM   24  C   UNL     1      21.101  49.093  49.008  1.00  0.00    -0.043 A 
HETATM   25  C   UNL     1      21.219  50.501  49.078  1.00  0.00    -0.055 A 
HETATM   26  C   UNL     1      22.395  51.239  48.495  1.00  0.00     0.049 C 
HETATM   27  C   UNL     1      20.193  51.255  49.674  1.00  0.00     0.007 A 
HETATM   28  C   UNL     1      19.080  50.635  50.235  1.00  0.00     0.001 A 
HETATM   29  C   UNL     1      18.976  49.251  50.207  1.00  0.00     0.001 A 
HETATM   30  C   UNL     1      19.978  48.489  49.606  1.00  0.00     0.008 A 
ENDBRANCH  23  24
ENDBRANCH  20  23
ENDBRANCH   1  19
TORSDOF 6
ENDMDL
MODEL 2
REMARK VINA RESULT:      -9.2      2.247     10.541
REMARK  6 active torsions:
REMARK  status: ('A' for Active; 'I' for Inactive)
REMARK    1  A    between atoms: C_3  and  C_4 
REMARK    2  A    between atoms: C_4  and  C_5 
REMARK       I    between atoms: C_5  and  N_6 
REMARK    3  A    between atoms: N_6  and  N_7 
REMARK       I    between atoms: N_7  and  C_8 
REMARK    4  A    between atoms: C_8  and  C_9 
REMARK    5  A    between atoms: C_13  and  C_14 
REMARK    6  A    between atoms: C_17  and  O_18 
ROOT
HETATM    1  N   UNL     1      25.856  46.556  51.088  1.00  0.00    -0.262 N 
HETATM    2  C   UNL     1      26.112  47.211  49.901  1.00  0.00     0.288 C 
HETATM    3  O   UNL     1      27.148  47.036  49.263  1.00  0.00    -0.264 OA
HETATM    4  H   UNL     1      24.916  46.505  51.475  1.00  0.00     0.190 HD
ENDROOT
BRANCH   2   5
HETATM    5  C   UNL     1      25.078  48.117  49.479  1.00  0.00     0.121 A 
HETATM    6  N   UNL     1      25.351  49.307  48.869  1.00  0.00    -0.272 N 
HETATM    7  H   UNL     1      26.267  49.678  48.633  1.00  0.00     0.189 HD
HETATM    8  N   UNL     1      24.265  50.040  48.583  1.00  0.00    -0.174 NA
HETATM    9  C   UNL     1      23.229  49.311  49.030  1.00  0.00     0.089 A 
HETATM   10  C   UNL     1      23.701  48.087  49.582  1.00  0.00     0.071 A 
BRANCH   9  11
HETATM   11  C   UNL     1      21.844  49.795  48.950  1.00  0.00    -0.005 A 
HETATM   12  C   UNL     1      21.573  51.138  48.658  1.00  0.00     0.016 A 
HETATM   13  C   UNL     1      20.256  51.612  48.621  1.00  0.00     0.037 A 
HETATM   14  C   UNL     1      19.184  50.756  48.875  1.00  0.00     0.068 A 
HETATM   15  C   UNL     1      19.439  49.414  49.149  1.00  0.00     0.037 A 
HETATM   16  C   UNL     1      20.758  48.939  49.187  1.00  0.00     0.016 A 
BRANCH  14  17
HETATM   17  O   UNL     1      17.952  51.345  48.822  1.00  0.00    -0.356 OA
HETATM   18  C   UNL     1      17.760  52.507  49.620  1.00  0.00     0.210 C 
ENDBRANCH  14  17
ENDBRANCH   9  11
ENDBRANCH   2   5
BRANCH   1  19
HETATM   19  N   UNL     1      26.746  45.573  51.536  1.00  0.00    -0.267 N 
HETATM   20  C   UNL     1      26.304  44.724  52.533  1.00  0.00     0.240 C 
HETATM   21  O   UNL     1      25.191  44.849  53.045  1.00  0.00    -0.272 OA
HETATM   22  H   UNL     1      27.559  45.381  50.953  1.00  0.00     0.190 HD
BRANCH  20  23
HETATM   23  C   UNL     1      27.313  43.679  52.971  1.00  0.00     0.143 C 
BRANCH  23  24
HETATM   24  C   UNL     1      28.326  44.143  54.005  1.00  0.00    -0.043 A 
HETATM   25  C   UNL     1      29.574  43.490  54.138  1.00  0.00    -0.055 A 
HETATM   26  C   UNL     1      29.983  42.348  53.246  1.00  0.00     0.049 C 
HETATM   27  C   UNL     1      30.492  43.937  55.105  1.00  0.00     0.007 A 
HETATM   28  C   UNL     1      30.176  44.988  55.963  1.00  0.00     0.001 A 
HETATM   29  C   UNL     1      28.938  45.606  55.866  1.00  0.00     0.001 A 
HETATM   30  C   UNL     1      28.020  45.184  54.904  1.00  0.00     0.008 A 
ENDBRANCH  23  24
ENDBRANCH  20  23
ENDBRANCH   1  19
TORSDOF 6
ENDMDL
MODEL 3
REMARK VINA RESULT:      -9.0      1.995      3.441
REMARK  6 active torsions:
REMARK  status: ('A' for Active; 'I' for Inactive)
REMARK    1  A    between atoms: C_3  and  C_4 
REMARK    2  A    between atoms: C_4  and  C_5 
REMARK       I    between atoms: C_5  and  N_6 
REMARK    3  A    between atoms: N_6  and  N_7 
REMARK       I    between atoms: N_7  and  C_8 
REMARK    4  A    between atoms: C_8  and  C_9 
REMARK    5  A    between atoms: C_13  and  C_14 
REMARK    6  A    between atoms: C_17  and  O_18 
ROOT
HETATM    1  N   UNL     1      22.194  48.345  49.551  1.00  0.00    -0.262 N 
HETATM    2  C   UNL     1      23.496  48.070  49.186  1.00  0.00     0.288 C 
HETATM    3  O   UNL     1      24.028  48.591  48.208  1.00  0.00    -0.264 OA
HETATM    4  H   UNL     1      21.843  48.119  50.480  1.00  0.00     0.190 HD
ENDROOT
BRANCH   2   5
HETATM    5  C   UNL     1      24.171  47.123  50.032  1.00  0.00     0.121 A 
HETATM    6  N   UNL     1      23.710  45.852  50.222  1.00  0.00    -0.272 N 
HETATM    7  H   UNL     1      22.887  45.429  49.801  1.00  0.00     0.189 HD
HETATM    8  N   UNL     1      24.444  45.123  51.075  1.00  0.00    -0.174 NA
HETATM    9  C   UNL     1      25.427  45.946  51.476  1.00  0.00     0.089 A 
HETATM   10  C   UNL     1      25.298  47.207  50.825  1.00  0.00     0.071 A 
BRANCH   9  11
HETATM   11  C   UNL     1      26.431  45.537  52.468  1.00  0.00    -0.005 A 
HETATM   12  C   UNL     1      26.616  46.277  53.643  1.00  0.00     0.016 A 
HETATM   13  C   UNL     1      27.599  45.914  54.571  1.00  0.00     0.037 A 
HETATM   14  C   UNL     1      28.416  44.806  54.346  1.00  0.00     0.068 A 
HETATM   15  C   UNL     1      28.231  44.052  53.190  1.00  0.00     0.037 A 
HETATM   16  C   UNL     1      27.247  44.415  52.259  1.00  0.00     0.016 A 
BRANCH  14  17
HETATM   17  O   UNL     1      29.344  44.568  55.321  1.00  0.00    -0.356 OA
HETATM   18  C   UNL     1      30.190  43.439  55.141  1.00  0.00     0.210 C 
ENDBRANCH  14  17
ENDBRANCH   9  11
ENDBRANCH   2   5
BRANCH   1  19
HETATM   19  N   UNL     1      21.480  49.331  48.862  1.00  0.00    -0.267 N 
HETATM   20  C   UNL     1      21.522  50.616  49.368  1.00  0.00     0.240 C 
HETATM   21  O   UNL     1      22.122  50.883  50.409  1.00  0.00    -0.272 OA
HETATM   22  H   UNL     1      21.176  49.108  47.915  1.00  0.00     0.190 HD
BRANCH  20  23
HETATM   23  C   UNL     1      20.731  51.638  48.573  1.00  0.00     0.143 C 
BRANCH  23  24
HETATM   24  C   UNL     1      19.219  51.529  48.690  1.00  0.00    -0.043 A 
HETATM   25  C   UNL     1      18.452  50.965  47.644  1.00  0.00    -0.055 A 
HETATM   26  C   UNL     1      19.083  50.409  46.395  1.00  0.00     0.049 C 
HETATM   27  C   UNL     1      17.055  50.879  47.776  1.00  0.00     0.007 A 
HETATM   28  C   UNL     1      16.409  51.377  48.904  1.00  0.00     0.001 A 
HETATM   29  C   UNL     1      17.150  51.968  49.917  1.00  0.00     0.001 A 
HETATM   30  C   UNL     1      18.539  52.050  49.808  1.00  0.00     0.008 A 
ENDBRANCH  23  24
ENDBRANCH  20  23
ENDBRANCH   1  19
TORSDOF 6
ENDMDL
MODEL 4
REMARK VINA RESULT:      -8.7      1.631      2.507
REMARK  6 active torsions:
REMARK  status: ('A' for Active; 'I' for Inactive)
REMARK    1  A    between atoms: C_3  and  C_4 
REMARK    2  A    between atoms: C_4  and  C_5 
REMARK       I    between atoms: C_5  and  N_6 
REMARK    3  A    between atoms: N_6  and  N_7 
REMARK       I    between atoms: N_7  and  C_8 
REMARK    4  A    between atoms: C_8  and  C_9 
REMARK    5  A    between atoms: C_13  and  C_14 
REMARK    6  A    between atoms: C_17  and  O_18 
ROOT
HETATM    1  N   UNL     1      23.037  47.292  49.505  1.00  0.00    -0.262 N 
HETATM    2  C   UNL     1      24.265  47.729  49.956  1.00  0.00     0.288 C 
HETATM    3  O   UNL     1      24.763  48.789  49.581  1.00  0.00    -0.264 OA
HETATM    4  H   UNL     1      22.520  46.563  49.994  1.00  0.00     0.190 HD
ENDROOT
BRANCH   2   5
HETATM    5  C   UNL     1      24.915  46.844  50.884  1.00  0.00     0.121 A 
HETATM    6  N   UNL     1      24.373  45.648  51.259  1.00  0.00    -0.272 N 
HETATM    7  H   UNL     1      23.498  45.245  50.935  1.00  0.00     0.189 HD
HETATM    8  N   UNL     1      25.098  44.976  52.164  1.00  0.00    -0.174 NA
HETATM    9  C   UNL     1      26.161  45.760  52.408  1.00  0.00     0.089 A 
HETATM   10  C   UNL     1      26.089  46.935  51.606  1.00  0.00     0.071 A 
BRANCH   9  11
HETATM   11  C   UNL     1      27.186  45.399  53.396  1.00  0.00    -0.005 A 
HETATM   12  C   UNL     1      27.440  46.228  54.497  1.00  0.00     0.016 A 
HETATM   13  C   UNL     1      28.444  45.908  55.419  1.00  0.00     0.037 A 
HETATM   14  C   UNL     1      29.214  44.756  55.261  1.00  0.00     0.068 A 
HETATM   15  C   UNL     1      28.961  43.914  54.180  1.00  0.00     0.037 A 
HETATM   16  C   UNL     1      27.955  44.234  53.256  1.00  0.00     0.016 A 
BRANCH  14  17
HETATM   17  O   UNL     1      30.169  44.566  56.221  1.00  0.00    -0.356 OA
HETATM   18  C   UNL     1      31.020  43.437  56.066  1.00  0.00     0.210 C 
ENDBRANCH  14  17
ENDBRANCH   9  11
ENDBRANCH   2   5
BRANCH   1  19
HETATM   19  N   UNL     1      22.270  48.125  48.682  1.00  0.00    -0.267 N 
HETATM   20  C   UNL     1      20.955  47.762  48.460  1.00  0.00     0.240 C 
HETATM   21  O   UNL     1      20.481  46.725  48.926  1.00  0.00    -0.272 OA
HETATM   22  H   UNL     1      22.636  49.057  48.494  1.00  0.00     0.190 HD
BRANCH  20  23
HETATM   23  C   UNL     1      20.178  48.707  47.564  1.00  0.00     0.143 C 
BRANCH  23  24
HETATM   24  C   UNL     1      19.409  49.805  48.282  1.00  0.00    -0.043 A 
HETATM   25  C   UNL     1      20.041  51.023  48.626  1.00  0.00    -0.055 A 
HETATM   26  C   UNL     1      21.474  51.315  48.266  1.00  0.00     0.049 C 
HETATM   27  C   UNL     1      19.309  52.020  49.293  1.00  0.00     0.007 A 
HETATM   28  C   UNL     1      17.981  51.814  49.657  1.00  0.00     0.001 A 
HETATM   29  C   UNL     1      17.366  50.606  49.359  1.00  0.00     0.001 A 
HETATM   30  C   UNL     1      18.074  49.610  48.686  1.00  0.00     0.008 A 
ENDBRANCH  23  24
ENDBRANCH  20  23
ENDBRANCH   1  19
TORSDOF 6
ENDMDL
MODEL 5
REMARK VINA RESULT:      -8.3      7.043     10.828
REMARK  6 active torsions:
REMARK  status: ('A' for Active; 'I' for Inactive)
REMARK    1  A    between atoms: C_3  and  C_4 
REMARK    2  A    between atoms: C_4  and  C_5 
REMARK       I    between atoms: C_5  and  N_6 
REMARK    3  A    between atoms: N_6  and  N_7 
REMARK       I    between atoms: N_7  and  C_8 
REMARK    4  A    between atoms: C_8  and  C_9 
REMARK    5  A    between atoms: C_13  and  C_14 
REMARK    6  A    between atoms: C_17  and  O_18 
ROOT
HETATM    1  N   UNL     1      29.334  41.685  52.134  1.00  0.00    -0.262 N 
HETATM    2  C   UNL     1      28.331  41.489  51.207  1.00  0.00     0.288 C 
HETATM    3  O   UNL     1      27.501  42.356  50.944  1.00  0.00    -0.264 OA
HETATM    4  H   UNL     1      30.153  41.082  52.167  1.00  0.00     0.190 HD
ENDROOT
BRANCH   2   5
HETATM    5  C   UNL     1      28.332  40.192  50.585  1.00  0.00     0.121 A 
HETATM    6  N   UNL     1      29.141  39.177  51.008  1.00  0.00    -0.272 N 
HETATM    7  H   UNL     1      29.798  39.201  51.784  1.00  0.00     0.189 HD
HETATM    8  N   UNL     1      29.037  38.053  50.284  1.00  0.00    -0.174 NA
HETATM    9  C   UNL     1      28.128  38.336  49.336  1.00  0.00     0.089 A 
HETATM   10  C   UNL     1      27.649  39.666  49.507  1.00  0.00     0.071 A 
BRANCH   9  11
HETATM   11  C   UNL     1      27.762  37.367  48.294  1.00  0.00    -0.005 A 
HETATM   12  C   UNL     1      28.460  37.328  47.080  1.00  0.00     0.016 A 
HETATM   13  C   UNL     1      28.088  36.434  46.069  1.00  0.00     0.037 A 
HETATM   14  C   UNL     1      27.014  35.562  46.248  1.00  0.00     0.068 A 
HETATM   15  C   UNL     1      26.323  35.580  47.457  1.00  0.00     0.037 A 
HETATM   16  C   UNL     1      26.694  36.475  48.471  1.00  0.00     0.016 A 
BRANCH  14  17
HETATM   17  O   UNL     1      26.746  34.752  45.180  1.00  0.00    -0.356 OA
HETATM   18  C   UNL     1      27.812  34.513  44.271  1.00  0.00     0.210 C 
ENDBRANCH  14  17
ENDBRANCH   9  11
ENDBRANCH   2   5
BRANCH   1  19
HETATM   19  N   UNL     1      29.492  42.946  52.721  1.00  0.00    -0.267 N 
HETATM   20  C   UNL     1      28.790  43.197  53.885  1.00  0.00     0.240 C 
HETATM   21  O   UNL     1      28.019  42.368  54.369  1.00  0.00    -0.272 OA
HETATM   22  H   UNL     1      30.280  43.509  52.406  1.00  0.00     0.190 HD
BRANCH  20  23
HETATM   23  C   UNL     1      29.008  44.579  54.472  1.00  0.00     0.143 C 
BRANCH  23  24
HETATM   24  C   UNL     1      29.790  44.620  55.774  1.00  0.00    -0.043 A 
HETATM   25  C   UNL     1      29.494  45.585  56.765  1.00  0.00    -0.055 A 
HETATM   26  C   UNL     1      28.375  46.581  56.609  1.00  0.00     0.049 C 
HETATM   27  C   UNL     1      30.235  45.603  57.960  1.00  0.00     0.007 A 
HETATM   28  C   UNL     1      31.284  44.711  58.167  1.00  0.00     0.001 A 
HETATM   29  C   UNL     1      31.607  43.788  57.183  1.00  0.00     0.001 A 
HETATM   30  C   UNL     1      30.873  43.748  55.997  1.00  0.00     0.008 A 
ENDBRANCH  23  24
ENDBRANCH  20  23
ENDBRANCH   1  19
TORSDOF 6
ENDMDL
MODEL 6
REMARK VINA RESULT:      -8.3      6.429     10.321
REMARK  6 active torsions:
REMARK  status: ('A' for Active; 'I' for Inactive)
REMARK    1  A    between atoms: C_3  and  C_4 
REMARK    2  A    between atoms: C_4  and  C_5 
REMARK       I    between atoms: C_5  and  N_6 
REMARK    3  A    between atoms: N_6  and  N_7 
REMARK       I    between atoms: N_7  and  C_8 
REMARK    4  A    between atoms: C_8  and  C_9 
REMARK    5  A    between atoms: C_13  and  C_14 
REMARK    6  A    between atoms: C_17  and  O_18 
ROOT
HETATM    1  N   UNL     1      26.911  41.586  51.540  1.00  0.00    -0.262 N 
HETATM    2  C   UNL     1      27.931  40.680  51.339  1.00  0.00     0.288 C 
HETATM    3  O   UNL     1      28.887  40.586  52.107  1.00  0.00    -0.264 OA
HETATM    4  H   UNL     1      26.017  41.494  51.062  1.00  0.00     0.190 HD
ENDROOT
BRANCH   2   5
HETATM    5  C   UNL     1      27.791  39.866  50.162  1.00  0.00     0.121 A 
HETATM    6  N   UNL     1      27.019  38.741  50.137  1.00  0.00    -0.272 N 
HETATM    7  H   UNL     1      26.462  38.363  50.899  1.00  0.00     0.189 HD
HETATM    8  N   UNL     1      27.040  38.086  48.967  1.00  0.00    -0.174 NA
HETATM    9  C   UNL     1      27.867  38.800  48.186  1.00  0.00     0.089 A 
HETATM   10  C   UNL     1      28.343  39.938  48.898  1.00  0.00     0.071 A 
BRANCH   9  11
HETATM   11  C   UNL     1      28.203  38.381  46.818  1.00  0.00    -0.005 A 
HETATM   12  C   UNL     1      28.731  37.108  46.571  1.00  0.00     0.016 A 
HETATM   13  C   UNL     1      29.090  36.720  45.275  1.00  0.00     0.037 A 
HETATM   14  C   UNL     1      28.929  37.594  44.200  1.00  0.00     0.068 A 
HETATM   15  C   UNL     1      28.389  38.857  44.429  1.00  0.00     0.037 A 
HETATM   16  C   UNL     1      28.029  39.247  45.728  1.00  0.00     0.016 A 
BRANCH  14  17
HETATM   17  O   UNL     1      29.331  37.099  42.990  1.00  0.00    -0.356 OA
HETATM   18  C   UNL     1      30.578  36.417  42.958  1.00  0.00     0.210 C 
ENDBRANCH  14  17
ENDBRANCH   9  11
ENDBRANCH   2   5
BRANCH   1  19
HETATM   19  N   UNL     1      26.892  42.353  52.710  1.00  0.00    -0.267 N 
HETATM   20  C   UNL     1      27.403  43.635  52.638  1.00  0.00     0.240 C 
HETATM   21  O   UNL     1      27.900  44.077  51.602  1.00  0.00    -0.272 OA
HETATM   22  H   UNL     1      26.297  42.026  53.469  1.00  0.00     0.190 HD
BRANCH  20  23
HETATM   23  C   UNL     1      27.349  44.415  53.938  1.00  0.00     0.143 C 
BRANCH  23  24
HETATM   24  C   UNL     1      28.634  44.420  54.750  1.00  0.00    -0.043 A 
HETATM   25  C   UNL     1      29.002  45.552  55.514  1.00  0.00    -0.055 A 
HETATM   26  C   UNL     1      28.133  46.779  55.603  1.00  0.00     0.049 C 
HETATM   27  C   UNL     1      30.197  45.533  56.254  1.00  0.00     0.007 A 
HETATM   28  C   UNL     1      31.048  44.431  56.214  1.00  0.00     0.001 A 
HETATM   29  C   UNL     1      30.714  43.332  55.434  1.00  0.00     0.001 A 
HETATM   30  C   UNL     1      29.525  43.330  54.704  1.00  0.00     0.008 A 
ENDBRANCH  23  24
ENDBRANCH  20  23
ENDBRANCH   1  19
TORSDOF 6
ENDMDL
MODEL 7
REMARK VINA RESULT:      -8.1      6.147     10.189
REMARK  6 active torsions:
REMARK  status: ('A' for Active; 'I' for Inactive)
REMARK    1  A    between atoms: C_3  and  C_4 
REMARK    2  A    between atoms: C_4  and  C_5 
REMARK       I    between atoms: C_5  and  N_6 
REMARK    3  A    between atoms: N_6  and  N_7 
REMARK       I    between atoms: N_7  and  C_8 
REMARK    4  A    between atoms: C_8  and  C_9 
REMARK    5  A    between atoms: C_13  and  C_14 
REMARK    6  A    between atoms: C_17  and  O_18 
ROOT
HETATM    1  N   UNL     1      27.100  41.537  51.349  1.00  0.00    -0.262 N 
HETATM    2  C   UNL     1      26.072  41.585  50.430  1.00  0.00     0.288 C 
HETATM    3  O   UNL     1      25.014  42.169  50.659  1.00  0.00    -0.264 OA
HETATM    4  H   UNL     1      28.047  41.282  51.073  1.00  0.00     0.190 HD
ENDROOT
BRANCH   2   5
HETATM    5  C   UNL     1      26.333  40.894  49.197  1.00  0.00     0.121 A 
HETATM    6  N   UNL     1      25.742  39.704  48.885  1.00  0.00    -0.272 N 
HETATM    7  H   UNL     1      25.067  39.190  49.444  1.00  0.00     0.189 HD
HETATM    8  N   UNL     1      26.136  39.186  47.712  1.00  0.00    -0.174 NA
HETATM    9  C   UNL     1      27.032  40.063  47.230  1.00  0.00     0.089 A 
HETATM   10  C   UNL     1      27.166  41.160  48.128  1.00  0.00     0.071 A 
BRANCH   9  11
HETATM   11  C   UNL     1      27.746  39.833  45.967  1.00  0.00    -0.005 A 
HETATM   12  C   UNL     1      28.259  40.909  45.231  1.00  0.00     0.016 A 
HETATM   13  C   UNL     1      28.905  40.697  44.007  1.00  0.00     0.037 A 
HETATM   14  C   UNL     1      29.051  39.408  43.494  1.00  0.00     0.068 A 
HETATM   15  C   UNL     1      28.561  38.329  44.224  1.00  0.00     0.037 A 
HETATM   16  C   UNL     1      27.914  38.540  45.450  1.00  0.00     0.016 A 
BRANCH  14  17
HETATM   17  O   UNL     1      29.687  39.339  42.285  1.00  0.00    -0.356 OA
HETATM   18  C   UNL     1      31.109  39.335  42.306  1.00  0.00     0.210 C 
ENDBRANCH  14  17
ENDBRANCH   9  11
ENDBRANCH   2   5
BRANCH   1  19
HETATM   19  N   UNL     1      26.995  42.265  52.539  1.00  0.00    -0.267 N 
HETATM   20  C   UNL     1      27.641  43.484  52.597  1.00  0.00     0.240 C 
HETATM   21  O   UNL     1      28.323  43.902  51.661  1.00  0.00    -0.272 OA
HETATM   22  H   UNL     1      26.267  41.981  53.194  1.00  0.00     0.190 HD
BRANCH  20  23
HETATM   23  C   UNL     1      27.485  44.225  53.912  1.00  0.00     0.143 C 
BRANCH  23  24
HETATM   24  C   UNL     1      28.737  44.304  54.770  1.00  0.00    -0.043 A 
HETATM   25  C   UNL     1      29.077  45.501  55.443  1.00  0.00    -0.055 A 
HETATM   26  C   UNL     1      28.209  46.730  55.388  1.00  0.00     0.049 C 
HETATM   27  C   UNL     1      30.243  45.549  56.227  1.00  0.00     0.007 A 
HETATM   28  C   UNL     1      31.092  44.448  56.320  1.00  0.00     0.001 A 
HETATM   29  C   UNL     1      30.786  43.284  55.629  1.00  0.00     0.001 A 
HETATM   30  C   UNL     1      29.626  43.215  54.857  1.00  0.00     0.008 A 
ENDBRANCH  23  24
ENDBRANCH  20  23
ENDBRANCH   1  19
TORSDOF 6
ENDMDL
MODEL 8
REMARK VINA RESULT:      -8.0      6.753      9.260
REMARK  6 active torsions:
REMARK  status: ('A' for Active; 'I' for Inactive)
REMARK    1  A    between atoms: C_3  and  C_4 
REMARK    2  A    between atoms: C_4  and  C_5 
REMARK       I    between atoms: C_5  and  N_6 
REMARK    3  A    between atoms: N_6  and  N_7 
REMARK       I    between atoms: N_7  and  C_8 
REMARK    4  A    between atoms: C_8  and  C_9 
REMARK    5  A    between atoms: C_13  and  C_14 
REMARK    6  A    between atoms: C_17  and  O_18 
ROOT
HETATM    1  N   UNL     1      27.551  39.706  49.739  1.00  0.00    -0.262 N 
HETATM    2  C   UNL     1      27.644  41.073  49.901  1.00  0.00     0.288 C 
HETATM    3  O   UNL     1      27.493  41.857  48.966  1.00  0.00    -0.264 OA
HETATM    4  H   UNL     1      27.424  39.084  50.535  1.00  0.00     0.190 HD
ENDROOT
BRANCH   2   5
HETATM    5  C   UNL     1      27.940  41.501  51.241  1.00  0.00     0.121 A 
HETATM    6  N   UNL     1      27.527  40.806  52.341  1.00  0.00    -0.272 N 
HETATM    7  H   UNL     1      27.000  39.937  52.353  1.00  0.00     0.189 HD
HETATM    8  N   UNL     1      27.858  41.376  53.508  1.00  0.00    -0.174 NA
HETATM    9  C   UNL     1      28.511  42.500  53.171  1.00  0.00     0.089 A 
HETATM   10  C   UNL     1      28.599  42.602  51.753  1.00  0.00     0.071 A 
BRANCH   9  11
HETATM   11  C   UNL     1      29.003  43.448  54.180  1.00  0.00    -0.005 A 
HETATM   12  C   UNL     1      30.171  43.177  54.904  1.00  0.00     0.016 A 
HETATM   13  C   UNL     1      30.621  44.059  55.895  1.00  0.00     0.037 A 
HETATM   14  C   UNL     1      29.915  45.226  56.182  1.00  0.00     0.068 A 
HETATM   15  C   UNL     1      28.761  45.516  55.458  1.00  0.00     0.037 A 
HETATM   16  C   UNL     1      28.309  44.634  54.465  1.00  0.00     0.016 A 
BRANCH  14  17
HETATM   17  O   UNL     1      30.451  45.993  57.179  1.00  0.00    -0.356 OA
HETATM   18  C   UNL     1      30.756  45.334  58.402  1.00  0.00     0.210 C 
ENDBRANCH  14  17
ENDBRANCH   9  11
ENDBRANCH   2   5
BRANCH   1  19
HETATM   19  N   UNL     1      27.161  39.185  48.500  1.00  0.00    -0.267 N 
HETATM   20  C   UNL     1      28.064  38.375  47.839  1.00  0.00     0.240 C 
HETATM   21  O   UNL     1      29.187  38.151  48.293  1.00  0.00    -0.272 OA
HETATM   22  H   UNL     1      26.170  39.229  48.269  1.00  0.00     0.190 HD
BRANCH  20  23
HETATM   23  C   UNL     1      27.580  37.839  46.504  1.00  0.00     0.143 C 
BRANCH  23  24
HETATM   24  C   UNL     1      28.286  38.401  45.281  1.00  0.00    -0.043 A 
HETATM   25  C   UNL     1      29.178  37.600  44.530  1.00  0.00    -0.055 A 
HETATM   26  C   UNL     1      29.440  36.156  44.867  1.00  0.00     0.049 C 
HETATM   27  C   UNL     1      29.821  38.144  43.405  1.00  0.00     0.007 A 
HETATM   28  C   UNL     1      29.625  39.474  43.040  1.00  0.00     0.001 A 
HETATM   29  C   UNL     1      28.783  40.278  43.795  1.00  0.00     0.001 A 
HETATM   30  C   UNL     1      28.126  39.749  44.907  1.00  0.00     0.008 A 
ENDBRANCH  23  24
ENDBRANCH  20  23
ENDBRANCH   1  19
TORSDOF 6
ENDMDL
MODEL 9
REMARK VINA RESULT:      -7.9     17.617     19.852
REMARK  6 active torsions:
REMARK  status: ('A' for Active; 'I' for Inactive)
REMARK    1  A    between atoms: C_3  and  C_4 
REMARK    2  A    between atoms: C_4  and  C_5 
REMARK       I    between atoms: C_5  and  N_6 
REMARK    3  A    between atoms: N_6  and  N_7 
REMARK       I    between atoms: N_7  and  C_8 
REMARK    4  A    between atoms: C_8  and  C_9 
REMARK    5  A    between atoms: C_13  and  C_14 
REMARK    6  A    between atoms: C_17  and  O_18 
ROOT
HETATM    1  N   UNL     1      37.202  43.215  63.649  1.00  0.00    -0.262 N 
HETATM    2  C   UNL     1      38.410  43.022  63.012  1.00  0.00     0.288 C 
HETATM    3  O   UNL     1      38.942  43.898  62.333  1.00  0.00    -0.264 OA
HETATM    4  H   UNL     1      36.893  42.600  64.400  1.00  0.00     0.190 HD
ENDROOT
BRANCH   2   5
HETATM    5  C   UNL     1      38.988  41.718  63.198  1.00  0.00     0.121 A 
HETATM    6  N   UNL     1      39.099  40.814  62.181  1.00  0.00    -0.272 N 
HETATM    7  H   UNL     1      38.819  40.945  61.213  1.00  0.00     0.189 HD
HETATM    8  N   UNL     1      39.624  39.636  62.548  1.00  0.00    -0.174 NA
HETATM    9  C   UNL     1      39.863  39.759  63.864  1.00  0.00     0.089 A 
HETATM   10  C   UNL     1      39.493  41.062  64.303  1.00  0.00     0.071 A 
BRANCH   9  11
HETATM   11  C   UNL     1      40.399  38.651  64.665  1.00  0.00    -0.005 A 
HETATM   12  C   UNL     1      39.915  38.403  65.956  1.00  0.00     0.016 A 
HETATM   13  C   UNL     1      40.452  37.374  66.738  1.00  0.00     0.037 A 
HETATM   14  C   UNL     1      41.483  36.572  66.248  1.00  0.00     0.068 A 
HETATM   15  C   UNL     1      41.962  36.796  64.960  1.00  0.00     0.037 A 
HETATM   16  C   UNL     1      41.424  37.827  64.176  1.00  0.00     0.016 A 
BRANCH  14  17
HETATM   17  O   UNL     1      41.927  35.613  67.116  1.00  0.00    -0.356 OA
HETATM   18  C   UNL     1      43.142  34.954  66.777  1.00  0.00     0.210 C 
ENDBRANCH  14  17
ENDBRANCH   9  11
ENDBRANCH   2   5
BRANCH   1  19
HETATM   19  N   UNL     1      36.605  44.480  63.624  1.00  0.00    -0.267 N 
HETATM   20  C   UNL     1      36.822  45.307  64.709  1.00  0.00     0.240 C 
HETATM   21  O   UNL     1      37.475  44.937  65.686  1.00  0.00    -0.272 OA
HETATM   22  H   UNL     1      36.255  44.810  62.726  1.00  0.00     0.190 HD
BRANCH  20  23
HETATM   23  C   UNL     1      36.151  46.665  64.618  1.00  0.00     0.143 C 
BRANCH  23  24
HETATM   24  C   UNL     1      36.911  47.813  65.260  1.00  0.00    -0.043 A 
HETATM   25  C   UNL     1      36.546  48.298  66.538  1.00  0.00    -0.055 A 
HETATM   26  C   UNL     1      35.430  47.684  67.341  1.00  0.00     0.049 C 
HETATM   27  C   UNL     1      37.264  49.364  67.108  1.00  0.00     0.007 A 
HETATM   28  C   UNL     1      38.305  49.978  66.417  1.00  0.00     0.001 A 
HETATM   29  C   UNL     1      38.643  49.535  65.146  1.00  0.00     0.001 A 
HETATM   30  C   UNL     1      37.950  48.470  64.571  1.00  0.00     0.008 A 
ENDBRANCH  23  24
ENDBRANCH  20  23
ENDBRANCH   1  19
TORSDOF 6
ENDMDL
MODEL 10
REMARK VINA RESULT:      -7.9     13.950     14.802
REMARK  6 active torsions:
REMARK  status: ('A' for Active; 'I' for Inactive)
REMARK    1  A    between atoms: C_3  and  C_4 
REMARK    2  A    between atoms: C_4  and  C_5 
REMARK       I    between atoms: C_5  and  N_6 
REMARK    3  A    between atoms: N_6  and  N_7 
REMARK       I    between atoms: N_7  and  C_8 
REMARK    4  A    between atoms: C_8  and  C_9 
REMARK    5  A    between atoms: C_13  and  C_14 
REMARK    6  A    between atoms: C_17  and  O_18 
ROOT
HETATM    1  N   UNL     1      34.523  50.319  42.854  1.00  0.00    -0.262 N 
HETATM    2  C   UNL     1      35.256  51.450  42.557  1.00  0.00     0.288 C 
HETATM    3  O   UNL     1      34.912  52.244  41.684  1.00  0.00    -0.264 OA
HETATM    4  H   UNL     1      34.663  49.810  43.724  1.00  0.00     0.190 HD
ENDROOT
BRANCH   2   5
HETATM    5  C   UNL     1      36.450  51.617  43.340  1.00  0.00     0.121 A 
HETATM    6  N   UNL     1      37.399  50.641  43.445  1.00  0.00    -0.272 N 
HETATM    7  H   UNL     1      37.392  49.730  42.996  1.00  0.00     0.189 HD
HETATM    8  N   UNL     1      38.424  50.957  44.250  1.00  0.00    -0.174 NA
HETATM    9  C   UNL     1      38.140  52.188  44.706  1.00  0.00     0.089 A 
HETATM   10  C   UNL     1      36.915  52.643  44.138  1.00  0.00     0.071 A 
BRANCH   9  11
HETATM   11  C   UNL     1      39.005  52.881  45.670  1.00  0.00    -0.005 A 
HETATM   12  C   UNL     1      40.338  53.173  45.353  1.00  0.00     0.016 A 
HETATM   13  C   UNL     1      41.176  53.796  46.285  1.00  0.00     0.037 A 
HETATM   14  C   UNL     1      40.702  54.141  47.550  1.00  0.00     0.068 A 
HETATM   15  C   UNL     1      39.374  53.872  47.872  1.00  0.00     0.037 A 
HETATM   16  C   UNL     1      38.533  53.247  46.940  1.00  0.00     0.016 A 
BRANCH  14  17
HETATM   17  O   UNL     1      41.624  54.731  48.369  1.00  0.00    -0.356 OA
HETATM   18  C   UNL     1      42.524  55.651  47.765  1.00  0.00     0.210 C 
ENDBRANCH  14  17
ENDBRANCH   9  11
ENDBRANCH   2   5
BRANCH   1  19
HETATM   19  N   UNL     1      33.289  50.114  42.227  1.00  0.00    -0.267 N 
HETATM   20  C   UNL     1      32.152  50.426  42.948  1.00  0.00     0.240 C 
HETATM   21  O   UNL     1      32.210  50.825  44.111  1.00  0.00    -0.272 OA
HETATM   22  H   UNL     1      33.297  49.983  41.217  1.00  0.00     0.190 HD
BRANCH  20  23
HETATM   23  C   UNL     1      30.847  50.185  42.211  1.00  0.00     0.143 C 
BRANCH  23  24
HETATM   24  C   UNL     1      30.262  51.397  41.506  1.00  0.00    -0.043 A 
HETATM   25  C   UNL     1      28.901  51.421  41.118  1.00  0.00    -0.055 A 
HETATM   26  C   UNL     1      27.960  50.285  41.418  1.00  0.00     0.049 C 
HETATM   27  C   UNL     1      28.386  52.554  40.464  1.00  0.00     0.007 A 
HETATM   28  C   UNL     1      29.203  53.638  40.154  1.00  0.00     0.001 A 
HETATM   29  C   UNL     1      30.548  53.605  40.495  1.00  0.00     0.001 A 
HETATM   30  C   UNL     1      31.073  52.495  41.156  1.00  0.00     0.008 A 
ENDBRANCH  23  24
ENDBRANCH  20  23
ENDBRANCH   1  19
TORSDOF 6
ENDMDL
