MODEL 1
REMARK VINA RESULT:      -9.7      0.000      0.000
REMARK  7 active torsions:
REMARK  status: ('A' for Active; 'I' for Inactive)
REMARK    1  A    between atoms: C_2  and  C_3 
REMARK    2  A    between atoms: C_6  and  C_7 
REMARK    3  A    between atoms: N_8  and  N_9 
REMARK    4  A    between atoms: C_20  and  C_21 
REMARK       I    between atoms: C_21  and  N_22 
REMARK    5  A    between atoms: N_22  and  C_23 
REMARK    6  A    between atoms: C_23  and  C_24 
REMARK    7  A    between atoms: C_30  and  N_31 
ROOT
HETATM    1  N   UNL     1      24.717  46.221  50.307  1.00  0.00    -0.202 N 
HETATM    2  C   UNL     1      25.406  46.392  51.492  1.00  0.00     0.183 A 
HETATM    3  C   UNL     1      26.279  45.311  51.616  1.00  0.00     0.124 A 
HETATM    4  N   UNL     1      27.030  45.147  52.736  1.00  0.00    -0.242 NA
HETATM    5  C   UNL     1      26.916  46.123  53.647  1.00  0.00     0.086 A 
HETATM    6  C   UNL     1      26.044  47.231  53.481  1.00  0.00     0.088 A 
HETATM    7  N   UNL     1      25.247  47.378  52.408  1.00  0.00    -0.225 NA
HETATM    8  C   UNL     1      27.690  46.040  54.797  1.00  0.00     0.034 A 
HETATM    9  C   UNL     1      27.641  47.026  55.783  1.00  0.00     0.002 A 
HETATM   10  C   UNL     1      26.802  48.117  55.616  1.00  0.00     0.002 A 
HETATM   11  C   UNL     1      26.010  48.208  54.470  1.00  0.00     0.034 A 
HETATM   12  C   UNL     1      26.146  44.492  50.460  1.00  0.00     0.104 C 
HETATM   13  C   UNL     1      25.343  45.211  49.587  1.00  0.00     0.123 C 
ENDROOT
BRANCH   1  14
HETATM   14  N   UNL     1      23.539  46.729  49.831  1.00  0.00    -0.176 NA
HETATM   15  C   UNL     1      23.586  47.921  49.334  1.00  0.00     0.150 C 
BRANCH  15  16
HETATM   16  C   UNL     1      22.333  48.705  49.226  1.00  0.00    -0.017 A 
HETATM   17  C   UNL     1      22.385  50.100  49.246  1.00  0.00     0.013 A 
HETATM   18  C   UNL     1      21.273  50.853  48.864  1.00  0.00     0.009 A 
HETATM   19  C   UNL     1      20.084  50.231  48.451  1.00  0.00    -0.051 A 
HETATM   20  C   UNL     1      20.032  48.823  48.517  1.00  0.00     0.009 A 
HETATM   21  C   UNL     1      21.147  48.061  48.889  1.00  0.00     0.013 A 
BRANCH  19  22
HETATM   22  C   UNL     1      18.883  51.036  47.922  1.00  0.00    -0.024 C 
HETATM   23  C   UNL     1      18.699  50.942  46.388  1.00  0.00     0.019 C 
HETATM   24  C   UNL     1      19.074  52.520  48.284  1.00  0.00     0.019 C 
HETATM   25  C   UNL     1      17.569  50.519  48.552  1.00  0.00     0.019 C 
ENDBRANCH  19  22
ENDBRANCH  15  16
ENDBRANCH   1  14
BRANCH  13  26
HETATM   26  N   UNL     1      24.984  44.967  48.286  1.00  0.00    -0.286 NA
HETATM   27  H   UNL     1      23.981  44.801  48.151  1.00  0.00     0.125 HD
HETATM   28  H   UNL     1      25.329  45.623  47.583  1.00  0.00     0.125 HD
ENDBRANCH  13  26
BRANCH  12  29
HETATM   29  C   UNL     1      26.650  43.140  50.239  1.00  0.00     0.257 C 
HETATM   30  N   UNL     1      26.763  42.421  51.413  1.00  0.00    -0.354 N 
HETATM   31  H   UNL     1      26.487  42.909  52.261  1.00  0.00     0.162 HD
HETATM   32  O   UNL     1      27.014  42.719  49.150  1.00  0.00    -0.267 OA
BRANCH  30  33
HETATM   33  C   UNL     1      27.534  41.205  51.567  1.00  0.00     0.155 C 
BRANCH  33  34
HETATM   34  C   UNL     1      28.361  41.120  52.863  1.00  0.00     0.139 C 
HETATM   35  O   UNL     1      27.731  41.912  53.888  1.00  0.00    -0.384 OA
HETATM   36  C   UNL     1      28.647  42.915  54.334  1.00  0.00     0.168 C 
HETATM   37  C   UNL     1      29.730  43.014  53.285  1.00  0.00     0.029 C 
HETATM   38  C   UNL     1      29.806  41.598  52.768  1.00  0.00     0.035 C 
ENDBRANCH  33  34
ENDBRANCH  30  33
ENDBRANCH  12  29
TORSDOF 7
ENDMDL
MODEL 2
REMARK VINA RESULT:      -9.6      3.775      8.563
REMARK  7 active torsions:
REMARK  status: ('A' for Active; 'I' for Inactive)
REMARK    1  A    between atoms: C_2  and  C_3 
REMARK    2  A    between atoms: C_6  and  C_7 
REMARK    3  A    between atoms: N_8  and  N_9 
REMARK    4  A    between atoms: C_20  and  C_21 
REMARK       I    between atoms: C_21  and  N_22 
REMARK    5  A    between atoms: N_22  and  C_23 
REMARK    6  A    between atoms: C_23  and  C_24 
REMARK    7  A    between atoms: C_30  and  N_31 
ROOT
HETATM    1  N   UNL     1      26.769  42.985  52.556  1.00  0.00    -0.202 N 
HETATM    2  C   UNL     1      27.644  43.513  53.486  1.00  0.00     0.183 A 
HETATM    3  C   UNL     1      27.275  44.844  53.685  1.00  0.00     0.124 A 
HETATM    4  N   UNL     1      28.015  45.659  54.479  1.00  0.00    -0.242 NA
HETATM    5  C   UNL     1      29.051  45.072  55.093  1.00  0.00     0.086 A 
HETATM    6  C   UNL     1      29.385  43.706  54.899  1.00  0.00     0.088 A 
HETATM    7  N   UNL     1      28.703  42.899  54.068  1.00  0.00    -0.225 NA
HETATM    8  C   UNL     1      29.824  45.840  55.955  1.00  0.00     0.034 A 
HETATM    9  C   UNL     1      30.908  45.296  56.645  1.00  0.00     0.002 A 
HETATM   10  C   UNL     1      31.227  43.958  56.469  1.00  0.00     0.002 A 
HETATM   11  C   UNL     1      30.465  43.178  55.597  1.00  0.00     0.034 A 
HETATM   12  C   UNL     1      26.125  45.113  52.892  1.00  0.00     0.104 C 
HETATM   13  C   UNL     1      25.721  43.883  52.394  1.00  0.00     0.123 C 
ENDROOT
BRANCH   1  14
HETATM   14  N   UNL     1      26.830  41.895  51.731  1.00  0.00    -0.176 NA
HETATM   15  C   UNL     1      27.638  41.979  50.727  1.00  0.00     0.150 C 
BRANCH  15  16
HETATM   16  C   UNL     1      27.438  41.079  49.566  1.00  0.00    -0.017 A 
HETATM   17  C   UNL     1      26.747  41.540  48.444  1.00  0.00     0.013 A 
HETATM   18  C   UNL     1      26.793  40.825  47.245  1.00  0.00     0.009 A 
HETATM   19  C   UNL     1      27.531  39.635  47.139  1.00  0.00    -0.051 A 
HETATM   20  C   UNL     1      28.154  39.151  48.308  1.00  0.00     0.009 A 
HETATM   21  C   UNL     1      28.121  39.868  49.511  1.00  0.00     0.013 A 
BRANCH  19  22
HETATM   22  C   UNL     1      27.686  38.888  45.801  1.00  0.00    -0.024 C 
HETATM   23  C   UNL     1      26.347  38.378  45.215  1.00  0.00     0.019 C 
HETATM   24  C   UNL     1      28.604  37.671  46.010  1.00  0.00     0.019 C 
HETATM   25  C   UNL     1      28.304  39.820  44.733  1.00  0.00     0.019 C 
ENDBRANCH  19  22
ENDBRANCH  15  16
ENDBRANCH   1  14
BRANCH  13  26
HETATM   26  N   UNL     1      24.611  43.525  51.674  1.00  0.00    -0.286 NA
HETATM   27  H   UNL     1      24.746  42.705  51.073  1.00  0.00     0.125 HD
HETATM   28  H   UNL     1      23.735  43.438  52.192  1.00  0.00     0.125 HD
ENDBRANCH  13  26
BRANCH  12  29
HETATM   29  C   UNL     1      25.526  46.405  52.567  1.00  0.00     0.257 C 
HETATM   30  N   UNL     1      25.083  46.466  51.260  1.00  0.00    -0.354 N 
HETATM   31  H   UNL     1      25.223  45.627  50.703  1.00  0.00     0.162 HD
HETATM   32  O   UNL     1      25.498  47.354  53.337  1.00  0.00    -0.267 OA
BRANCH  30  33
HETATM   33  C   UNL     1      24.764  47.689  50.552  1.00  0.00     0.155 C 
BRANCH  33  34
HETATM   34  C   UNL     1      25.470  47.856  49.195  1.00  0.00     0.139 C 
HETATM   35  O   UNL     1      26.755  47.207  49.239  1.00  0.00    -0.384 OA
HETATM   36  C   UNL     1      27.776  48.171  48.966  1.00  0.00     0.168 C 
HETATM   37  C   UNL     1      27.151  49.533  49.157  1.00  0.00     0.029 C 
HETATM   38  C   UNL     1      25.720  49.290  48.741  1.00  0.00     0.035 C 
ENDBRANCH  33  34
ENDBRANCH  30  33
ENDBRANCH  12  29
TORSDOF 7
ENDMDL
MODEL 3
REMARK VINA RESULT:      -9.6      3.171      9.286
REMARK  7 active torsions:
REMARK  status: ('A' for Active; 'I' for Inactive)
REMARK    1  A    between atoms: C_2  and  C_3 
REMARK    2  A    between atoms: C_6  and  C_7 
REMARK    3  A    between atoms: N_8  and  N_9 
REMARK    4  A    between atoms: C_20  and  C_21 
REMARK       I    between atoms: C_21  and  N_22 
REMARK    5  A    between atoms: N_22  and  C_23 
REMARK    6  A    between atoms: C_23  and  C_24 
REMARK    7  A    between atoms: C_30  and  N_31 
ROOT
HETATM    1  N   UNL     1      24.892  44.732  50.272  1.00  0.00    -0.202 N 
HETATM    2  C   UNL     1      25.472  45.292  51.394  1.00  0.00     0.183 A 
HETATM    3  C   UNL     1      25.117  46.641  51.406  1.00  0.00     0.124 A 
HETATM    4  N   UNL     1      25.620  47.484  52.344  1.00  0.00    -0.242 NA
HETATM    5  C   UNL     1      26.401  46.909  53.268  1.00  0.00     0.086 A 
HETATM    6  C   UNL     1      26.720  45.526  53.252  1.00  0.00     0.088 A 
HETATM    7  N   UNL     1      26.282  44.688  52.296  1.00  0.00    -0.225 NA
HETATM    8  C   UNL     1      26.914  47.708  54.283  1.00  0.00     0.034 A 
HETATM    9  C   UNL     1      27.719  47.179  55.292  1.00  0.00     0.002 A 
HETATM   10  C   UNL     1      28.019  45.825  55.287  1.00  0.00     0.002 A 
HETATM   11  C   UNL     1      27.520  45.013  54.267  1.00  0.00     0.034 A 
HETATM   12  C   UNL     1      24.268  46.892  50.292  1.00  0.00     0.104 C 
HETATM   13  C   UNL     1      23.979  45.645  49.758  1.00  0.00     0.123 C 
ENDROOT
BRANCH   1  14
HETATM   14  N   UNL     1      25.149  43.592  49.559  1.00  0.00    -0.176 NA
HETATM   15  C   UNL     1      24.690  42.490  50.052  1.00  0.00     0.150 C 
BRANCH  15  16
HETATM   16  C   UNL     1      25.290  41.205  49.620  1.00  0.00    -0.017 A 
HETATM   17  C   UNL     1      25.125  40.772  48.302  1.00  0.00     0.013 A 
HETATM   18  C   UNL     1      25.906  39.729  47.800  1.00  0.00     0.009 A 
HETATM   19  C   UNL     1      26.870  39.095  48.600  1.00  0.00    -0.051 A 
HETATM   20  C   UNL     1      26.960  39.497  49.950  1.00  0.00     0.009 A 
HETATM   21  C   UNL     1      26.188  40.550  50.457  1.00  0.00     0.013 A 
BRANCH  19  22
HETATM   22  C   UNL     1      27.816  38.018  48.039  1.00  0.00    -0.024 C 
HETATM   23  C   UNL     1      28.160  38.212  46.542  1.00  0.00     0.019 C 
HETATM   24  C   UNL     1      27.154  36.637  48.195  1.00  0.00     0.019 C 
HETATM   25  C   UNL     1      29.160  38.032  48.803  1.00  0.00     0.019 C 
ENDBRANCH  19  22
ENDBRANCH  15  16
ENDBRANCH   1  14
BRANCH  13  26
HETATM   26  N   UNL     1      23.119  45.272  48.758  1.00  0.00    -0.286 NA
HETATM   27  H   UNL     1      23.175  44.279  48.504  1.00  0.00     0.125 HD
HETATM   28  H   UNL     1      22.143  45.553  48.861  1.00  0.00     0.125 HD
ENDBRANCH  13  26
BRANCH  12  29
HETATM   29  C   UNL     1      23.848  48.176  49.738  1.00  0.00     0.257 C 
HETATM   30  N   UNL     1      22.479  48.256  49.574  1.00  0.00    -0.354 N 
HETATM   31  H   UNL     1      21.949  47.435  49.853  1.00  0.00     0.162 HD
HETATM   32  O   UNL     1      24.626  49.049  49.380  1.00  0.00    -0.267 OA
BRANCH  30  33
HETATM   33  C   UNL     1      21.801  49.237  48.751  1.00  0.00     0.155 C 
BRANCH  33  34
HETATM   34  C   UNL     1      21.269  50.465  49.512  1.00  0.00     0.139 C 
HETATM   35  O   UNL     1      20.146  50.076  50.326  1.00  0.00    -0.384 OA
HETATM   36  C   UNL     1      19.000  50.839  49.938  1.00  0.00     0.168 C 
HETATM   37  C   UNL     1      19.308  51.429  48.582  1.00  0.00     0.029 C 
HETATM   38  C   UNL     1      20.802  51.635  48.654  1.00  0.00     0.035 C 
ENDBRANCH  33  34
ENDBRANCH  30  33
ENDBRANCH  12  29
TORSDOF 7
ENDMDL
MODEL 4
REMARK VINA RESULT:      -9.6      3.267     10.445
REMARK  7 active torsions:
REMARK  status: ('A' for Active; 'I' for Inactive)
REMARK    1  A    between atoms: C_2  and  C_3 
REMARK    2  A    between atoms: C_6  and  C_7 
REMARK    3  A    between atoms: N_8  and  N_9 
REMARK    4  A    between atoms: C_20  and  C_21 
REMARK       I    between atoms: C_21  and  N_22 
REMARK    5  A    between atoms: N_22  and  C_23 
REMARK    6  A    between atoms: C_23  and  C_24 
REMARK    7  A    between atoms: C_30  and  N_31 
ROOT
HETATM    1  N   UNL     1      23.819  46.784  49.082  1.00  0.00    -0.202 N 
HETATM    2  C   UNL     1      22.581  46.520  48.530  1.00  0.00     0.183 A 
HETATM    3  C   UNL     1      21.842  47.701  48.598  1.00  0.00     0.124 A 
HETATM    4  N   UNL     1      20.539  47.731  48.217  1.00  0.00    -0.242 NA
HETATM    5  C   UNL     1      20.065  46.582  47.716  1.00  0.00     0.086 A 
HETATM    6  C   UNL     1      20.849  45.401  47.626  1.00  0.00     0.088 A 
HETATM    7  N   UNL     1      22.121  45.336  48.056  1.00  0.00    -0.225 NA
HETATM    8  C   UNL     1      18.751  46.555  47.266  1.00  0.00     0.034 A 
HETATM    9  C   UNL     1      18.191  45.403  46.714  1.00  0.00     0.002 A 
HETATM   10  C   UNL     1      18.960  44.253  46.611  1.00  0.00     0.002 A 
HETATM   11  C   UNL     1      20.278  44.263  47.070  1.00  0.00     0.034 A 
HETATM   12  C   UNL     1      22.667  48.713  49.164  1.00  0.00     0.104 C 
HETATM   13  C   UNL     1      23.937  48.160  49.234  1.00  0.00     0.123 C 
ENDROOT
BRANCH   1  14
HETATM   14  N   UNL     1      24.801  45.983  49.597  1.00  0.00    -0.176 NA
HETATM   15  C   UNL     1      24.777  45.794  50.875  1.00  0.00     0.150 C 
BRANCH  15  16
HETATM   16  C   UNL     1      26.014  45.345  51.558  1.00  0.00    -0.017 A 
HETATM   17  C   UNL     1      26.175  45.580  52.925  1.00  0.00     0.013 A 
HETATM   18  C   UNL     1      27.180  44.926  53.640  1.00  0.00     0.009 A 
HETATM   19  C   UNL     1      28.047  44.021  53.007  1.00  0.00    -0.051 A 
HETATM   20  C   UNL     1      27.915  43.863  51.612  1.00  0.00     0.009 A 
HETATM   21  C   UNL     1      26.902  44.507  50.891  1.00  0.00     0.013 A 
BRANCH  19  22
HETATM   22  C   UNL     1      29.092  43.207  53.793  1.00  0.00    -0.024 C 
HETATM   23  C   UNL     1      30.348  42.844  52.965  1.00  0.00     0.019 C 
HETATM   24  C   UNL     1      28.448  41.894  54.273  1.00  0.00     0.019 C 
HETATM   25  C   UNL     1      29.591  44.010  55.016  1.00  0.00     0.019 C 
ENDBRANCH  19  22
ENDBRANCH  15  16
ENDBRANCH   1  14
BRANCH  13  26
HETATM   26  N   UNL     1      25.142  48.715  49.580  1.00  0.00    -0.286 NA
HETATM   27  H   UNL     1      25.357  49.591  49.092  1.00  0.00     0.125 HD
HETATM   28  H   UNL     1      25.334  48.813  50.578  1.00  0.00     0.125 HD
ENDBRANCH  13  26
BRANCH  12  29
HETATM   29  C   UNL     1      22.279  50.028  49.666  1.00  0.00     0.257 C 
HETATM   30  N   UNL     1      20.932  50.104  49.960  1.00  0.00    -0.354 N 
HETATM   31  H   UNL     1      20.393  49.257  49.797  1.00  0.00     0.162 HD
HETATM   32  O   UNL     1      23.043  50.981  49.736  1.00  0.00    -0.267 OA
BRANCH  30  33
HETATM   33  C   UNL     1      20.194  51.337  50.145  1.00  0.00     0.155 C 
BRANCH  33  34
HETATM   34  C   UNL     1      18.693  51.250  49.816  1.00  0.00     0.139 C 
HETATM   35  O   UNL     1      18.456  50.128  48.944  1.00  0.00    -0.384 OA
HETATM   36  C   UNL     1      17.860  50.596  47.731  1.00  0.00     0.168 C 
HETATM   37  C   UNL     1      18.102  52.086  47.673  1.00  0.00     0.029 C 
HETATM   38  C   UNL     1      18.084  52.470  49.133  1.00  0.00     0.035 C 
ENDBRANCH  33  34
ENDBRANCH  30  33
ENDBRANCH  12  29
TORSDOF 7
ENDMDL
MODEL 5
REMARK VINA RESULT:      -9.6      3.739      9.420
REMARK  7 active torsions:
REMARK  status: ('A' for Active; 'I' for Inactive)
REMARK    1  A    between atoms: C_2  and  C_3 
REMARK    2  A    between atoms: C_6  and  C_7 
REMARK    3  A    between atoms: N_8  and  N_9 
REMARK    4  A    between atoms: C_20  and  C_21 
REMARK       I    between atoms: C_21  and  N_22 
REMARK    5  A    between atoms: N_22  and  C_23 
REMARK    6  A    between atoms: C_23  and  C_24 
REMARK    7  A    between atoms: C_30  and  N_31 
ROOT
HETATM    1  N   UNL     1      27.286  41.811  51.767  1.00  0.00    -0.202 N 
HETATM    2  C   UNL     1      27.859  42.610  52.738  1.00  0.00     0.183 A 
HETATM    3  C   UNL     1      27.074  43.760  52.835  1.00  0.00     0.124 A 
HETATM    4  N   UNL     1      27.441  44.786  53.645  1.00  0.00    -0.242 NA
HETATM    5  C   UNL     1      28.546  44.573  54.372  1.00  0.00     0.086 A 
HETATM    6  C   UNL     1      29.308  43.379  54.279  1.00  0.00     0.088 A 
HETATM    7  N   UNL     1      28.996  42.378  53.437  1.00  0.00    -0.225 NA
HETATM    8  C   UNL     1      28.952  45.566  55.254  1.00  0.00     0.034 A 
HETATM    9  C   UNL     1      30.081  45.410  56.060  1.00  0.00     0.002 A 
HETATM   10  C   UNL     1      30.818  44.238  55.982  1.00  0.00     0.002 A 
HETATM   11  C   UNL     1      30.427  43.237  55.091  1.00  0.00     0.034 A 
HETATM   12  C   UNL     1      25.979  43.632  51.936  1.00  0.00     0.104 C 
HETATM   13  C   UNL     1      26.030  42.326  51.471  1.00  0.00     0.123 C 
ENDROOT
BRANCH   1  14
HETATM   14  N   UNL     1      27.764  40.777  51.009  1.00  0.00    -0.176 NA
HETATM   15  C   UNL     1      28.420  41.102  49.944  1.00  0.00     0.150 C 
BRANCH  15  16
HETATM   16  C   UNL     1      28.567  40.103  48.858  1.00  0.00    -0.017 A 
HETATM   17  C   UNL     1      28.938  38.793  49.168  1.00  0.00     0.013 A 
HETATM   18  C   UNL     1      28.807  37.779  48.217  1.00  0.00     0.009 A 
HETATM   19  C   UNL     1      28.300  38.049  46.935  1.00  0.00    -0.051 A 
HETATM   20  C   UNL     1      28.009  39.393  46.622  1.00  0.00     0.009 A 
HETATM   21  C   UNL     1      28.128  40.413  47.575  1.00  0.00     0.013 A 
BRANCH  19  22
HETATM   22  C   UNL     1      28.044  36.931  45.907  1.00  0.00    -0.024 C 
HETATM   23  C   UNL     1      29.337  36.264  45.379  1.00  0.00     0.019 C 
HETATM   24  C   UNL     1      27.291  37.522  44.701  1.00  0.00     0.019 C 
HETATM   25  C   UNL     1      27.196  35.804  46.539  1.00  0.00     0.019 C 
ENDBRANCH  19  22
ENDBRANCH  15  16
ENDBRANCH   1  14
BRANCH  13  26
HETATM   26  N   UNL     1      25.163  41.617  50.681  1.00  0.00    -0.286 NA
HETATM   27  H   UNL     1      24.761  42.158  49.908  1.00  0.00     0.125 HD
HETATM   28  H   UNL     1      25.485  40.709  50.344  1.00  0.00     0.125 HD
ENDBRANCH  13  26
BRANCH  12  29
HETATM   29  C   UNL     1      25.039  44.659  51.495  1.00  0.00     0.257 C 
HETATM   30  N   UNL     1      25.668  45.846  51.174  1.00  0.00    -0.354 N 
HETATM   31  H   UNL     1      26.679  45.857  51.280  1.00  0.00     0.162 HD
HETATM   32  O   UNL     1      23.825  44.513  51.493  1.00  0.00    -0.267 OA
BRANCH  30  33
HETATM   33  C   UNL     1      25.000  47.125  51.038  1.00  0.00     0.155 C 
BRANCH  33  34
HETATM   34  C   UNL     1      24.709  47.553  49.589  1.00  0.00     0.139 C 
HETATM   35  O   UNL     1      24.711  48.991  49.503  1.00  0.00    -0.384 OA
HETATM   36  C   UNL     1      23.438  49.433  49.025  1.00  0.00     0.168 C 
HETATM   37  C   UNL     1      22.481  48.278  49.202  1.00  0.00     0.029 C 
HETATM   38  C   UNL     1      23.382  47.083  49.004  1.00  0.00     0.035 C 
ENDBRANCH  33  34
ENDBRANCH  30  33
ENDBRANCH  12  29
TORSDOF 7
ENDMDL
MODEL 6
REMARK VINA RESULT:      -9.6      3.295     10.018
REMARK  7 active torsions:
REMARK  status: ('A' for Active; 'I' for Inactive)
REMARK    1  A    between atoms: C_2  and  C_3 
REMARK    2  A    between atoms: C_6  and  C_7 
REMARK    3  A    between atoms: N_8  and  N_9 
REMARK    4  A    between atoms: C_20  and  C_21 
REMARK       I    between atoms: C_21  and  N_22 
REMARK    5  A    between atoms: N_22  and  C_23 
REMARK    6  A    between atoms: C_23  and  C_24 
REMARK    7  A    between atoms: C_30  and  N_31 
ROOT
HETATM    1  N   UNL     1      25.532  45.701  50.126  1.00  0.00    -0.202 N 
HETATM    2  C   UNL     1      24.692  44.978  49.301  1.00  0.00     0.183 A 
HETATM    3  C   UNL     1      23.691  45.849  48.871  1.00  0.00     0.124 A 
HETATM    4  N   UNL     1      22.654  45.401  48.118  1.00  0.00    -0.242 NA
HETATM    5  C   UNL     1      22.716  44.107  47.774  1.00  0.00     0.086 A 
HETATM    6  C   UNL     1      23.764  43.249  48.198  1.00  0.00     0.088 A 
HETATM    7  N   UNL     1      24.766  43.660  48.995  1.00  0.00    -0.225 NA
HETATM    8  C   UNL     1      21.708  43.594  46.967  1.00  0.00     0.034 A 
HETATM    9  C   UNL     1      21.712  42.263  46.551  1.00  0.00     0.002 A 
HETATM   10  C   UNL     1      22.744  41.426  46.951  1.00  0.00     0.002 A 
HETATM   11  C   UNL     1      23.757  41.926  47.772  1.00  0.00     0.034 A 
HETATM   12  C   UNL     1      23.957  47.138  49.412  1.00  0.00     0.104 C 
HETATM   13  C   UNL     1      25.216  47.047  49.987  1.00  0.00     0.123 C 
ENDROOT
BRANCH   1  14
HETATM   14  N   UNL     1      26.440  45.338  51.083  1.00  0.00    -0.176 NA
HETATM   15  C   UNL     1      25.956  44.877  52.188  1.00  0.00     0.150 C 
BRANCH  15  16
HETATM   16  C   UNL     1      26.802  44.895  53.405  1.00  0.00    -0.017 A 
HETATM   17  C   UNL     1      27.656  43.823  53.672  1.00  0.00     0.013 A 
HETATM   18  C   UNL     1      28.656  43.941  54.639  1.00  0.00     0.009 A 
HETATM   19  C   UNL     1      28.828  45.132  55.362  1.00  0.00    -0.051 A 
HETATM   20  C   UNL     1      27.902  46.172  55.131  1.00  0.00     0.009 A 
HETATM   21  C   UNL     1      26.904  46.064  54.154  1.00  0.00     0.013 A 
BRANCH  19  22
HETATM   22  C   UNL     1      29.990  45.325  56.355  1.00  0.00    -0.024 C 
HETATM   23  C   UNL     1      29.529  45.670  57.791  1.00  0.00     0.019 C 
HETATM   24  C   UNL     1      30.889  46.471  55.859  1.00  0.00     0.019 C 
HETATM   25  C   UNL     1      30.825  44.028  56.462  1.00  0.00     0.019 C 
ENDBRANCH  19  22
ENDBRANCH  15  16
ENDBRANCH   1  14
BRANCH  13  26
HETATM   26  N   UNL     1      26.022  48.006  50.544  1.00  0.00    -0.286 NA
HETATM   27  H   UNL     1      27.021  47.771  50.538  1.00  0.00     0.125 HD
HETATM   28  H   UNL     1      25.886  48.966  50.222  1.00  0.00     0.125 HD
ENDBRANCH  13  26
BRANCH  12  29
HETATM   29  C   UNL     1      23.079  48.304  49.459  1.00  0.00     0.257 C 
HETATM   30  N   UNL     1      21.759  47.979  49.217  1.00  0.00    -0.354 N 
HETATM   31  H   UNL     1      21.567  46.996  49.045  1.00  0.00     0.162 HD
HETATM   32  O   UNL     1      23.479  49.450  49.608  1.00  0.00    -0.267 OA
BRANCH  30  33
HETATM   33  C   UNL     1      20.725  48.931  48.864  1.00  0.00     0.155 C 
BRANCH  33  34
HETATM   34  C   UNL     1      20.061  49.641  50.058  1.00  0.00     0.139 C 
HETATM   35  O   UNL     1      18.631  49.498  49.968  1.00  0.00    -0.384 OA
HETATM   36  C   UNL     1      18.033  50.796  49.913  1.00  0.00     0.168 C 
HETATM   37  C   UNL     1      19.133  51.767  49.552  1.00  0.00     0.029 C 
HETATM   38  C   UNL     1      20.343  51.133  50.193  1.00  0.00     0.035 C 
ENDBRANCH  33  34
ENDBRANCH  30  33
ENDBRANCH  12  29
TORSDOF 7
ENDMDL
MODEL 7
REMARK VINA RESULT:      -9.3      1.665      2.663
REMARK  7 active torsions:
REMARK  status: ('A' for Active; 'I' for Inactive)
REMARK    1  A    between atoms: C_2  and  C_3 
REMARK    2  A    between atoms: C_6  and  C_7 
REMARK    3  A    between atoms: N_8  and  N_9 
REMARK    4  A    between atoms: C_20  and  C_21 
REMARK       I    between atoms: C_21  and  N_22 
REMARK    5  A    between atoms: N_22  and  C_23 
REMARK    6  A    between atoms: C_23  and  C_24 
REMARK    7  A    between atoms: C_30  and  N_31 
ROOT
HETATM    1  N   UNL     1      24.499  45.467  49.980  1.00  0.00    -0.202 N 
HETATM    2  C   UNL     1      25.298  45.602  51.099  1.00  0.00     0.183 A 
HETATM    3  C   UNL     1      25.970  44.391  51.270  1.00  0.00     0.124 A 
HETATM    4  N   UNL     1      26.763  44.183  52.352  1.00  0.00    -0.242 NA
HETATM    5  C   UNL     1      26.897  45.233  53.173  1.00  0.00     0.086 A 
HETATM    6  C   UNL     1      26.228  46.467  52.957  1.00  0.00     0.088 A 
HETATM    7  N   UNL     1      25.390  46.671  51.926  1.00  0.00    -0.225 NA
HETATM    8  C   UNL     1      27.730  45.101  54.276  1.00  0.00     0.034 A 
HETATM    9  C   UNL     1      27.936  46.156  55.166  1.00  0.00     0.002 A 
HETATM   10  C   UNL     1      27.296  47.367  54.949  1.00  0.00     0.002 A 
HETATM   11  C   UNL     1      26.447  47.509  53.850  1.00  0.00     0.034 A 
HETATM   12  C   UNL     1      25.603  43.521  50.206  1.00  0.00     0.104 C 
HETATM   13  C   UNL     1      24.876  44.303  49.320  1.00  0.00     0.123 C 
ENDROOT
BRANCH   1  14
HETATM   14  N   UNL     1      23.398  46.145  49.532  1.00  0.00    -0.176 NA
HETATM   15  C   UNL     1      23.578  47.383  49.210  1.00  0.00     0.150 C 
BRANCH  15  16
HETATM   16  C   UNL     1      22.406  48.290  49.162  1.00  0.00    -0.017 A 
HETATM   17  C   UNL     1      22.601  49.672  49.117  1.00  0.00     0.013 A 
HETATM   18  C   UNL     1      21.545  50.523  48.786  1.00  0.00     0.009 A 
HETATM   19  C   UNL     1      20.270  50.014  48.491  1.00  0.00    -0.051 A 
HETATM   20  C   UNL     1      20.080  48.622  48.622  1.00  0.00     0.009 A 
HETATM   21  C   UNL     1      21.138  47.762  48.942  1.00  0.00     0.013 A 
BRANCH  19  22
HETATM   22  C   UNL     1      19.119  50.922  48.018  1.00  0.00    -0.024 C 
HETATM   23  C   UNL     1      17.740  50.531  48.602  1.00  0.00     0.019 C 
HETATM   24  C   UNL     1      19.020  50.848  46.484  1.00  0.00     0.019 C 
HETATM   25  C   UNL     1      19.377  52.385  48.446  1.00  0.00     0.019 C 
ENDBRANCH  19  22
ENDBRANCH  15  16
ENDBRANCH   1  14
BRANCH  13  26
HETATM   26  N   UNL     1      24.380  44.026  48.073  1.00  0.00    -0.286 NA
HETATM   27  H   UNL     1      23.379  44.220  47.966  1.00  0.00     0.125 HD
HETATM   28  H   UNL     1      24.897  44.404  47.277  1.00  0.00     0.125 HD
ENDBRANCH  13  26
BRANCH  12  29
HETATM   29  C   UNL     1      25.837  42.085  50.083  1.00  0.00     0.257 C 
HETATM   30  N   UNL     1      27.099  41.719  50.507  1.00  0.00    -0.354 N 
HETATM   31  H   UNL     1      27.691  42.473  50.845  1.00  0.00     0.162 HD
HETATM   32  O   UNL     1      25.039  41.307  49.580  1.00  0.00    -0.267 OA
BRANCH  30  33
HETATM   33  C   UNL     1      27.741  40.457  50.199  1.00  0.00     0.155 C 
BRANCH  33  34
HETATM   34  C   UNL     1      28.498  40.424  48.859  1.00  0.00     0.139 C 
HETATM   35  O   UNL     1      28.019  41.483  48.010  1.00  0.00    -0.384 OA
HETATM   36  C   UNL     1      27.506  40.918  46.800  1.00  0.00     0.168 C 
HETATM   37  C   UNL     1      27.286  39.447  47.065  1.00  0.00     0.029 C 
HETATM   38  C   UNL     1      28.381  39.133  48.056  1.00  0.00     0.035 C 
ENDBRANCH  33  34
ENDBRANCH  30  33
ENDBRANCH  12  29
TORSDOF 7
ENDMDL
MODEL 8
REMARK VINA RESULT:      -9.2      3.856     10.387
REMARK  7 active torsions:
REMARK  status: ('A' for Active; 'I' for Inactive)
REMARK    1  A    between atoms: C_2  and  C_3 
REMARK    2  A    between atoms: C_6  and  C_7 
REMARK    3  A    between atoms: N_8  and  N_9 
REMARK    4  A    between atoms: C_20  and  C_21 
REMARK       I    between atoms: C_21  and  N_22 
REMARK    5  A    between atoms: N_22  and  C_23 
REMARK    6  A    between atoms: C_23  and  C_24 
REMARK    7  A    between atoms: C_30  and  N_31 
ROOT
HETATM    1  N   UNL     1      23.302  46.576  49.292  1.00  0.00    -0.202 N 
HETATM    2  C   UNL     1      22.660  45.664  48.476  1.00  0.00     0.183 A 
HETATM    3  C   UNL     1      21.476  46.264  48.047  1.00  0.00     0.124 A 
HETATM    4  N   UNL     1      20.576  45.571  47.302  1.00  0.00    -0.242 NA
HETATM    5  C   UNL     1      20.948  44.329  46.966  1.00  0.00     0.086 A 
HETATM    6  C   UNL     1      22.176  43.754  47.388  1.00  0.00     0.088 A 
HETATM    7  N   UNL     1      23.050  44.401  48.178  1.00  0.00    -0.225 NA
HETATM    8  C   UNL     1      20.092  43.581  46.167  1.00  0.00     0.034 A 
HETATM    9  C   UNL     1      20.418  42.287  45.759  1.00  0.00     0.002 A 
HETATM   10  C   UNL     1      21.624  41.729  46.158  1.00  0.00     0.002 A 
HETATM   11  C   UNL     1      22.488  42.466  46.970  1.00  0.00     0.034 A 
HETATM   12  C   UNL     1      21.422  47.582  48.579  1.00  0.00     0.104 C 
HETATM   13  C   UNL     1      22.668  47.804  49.147  1.00  0.00     0.123 C 
ENDROOT
BRANCH   1  14
HETATM   14  N   UNL     1      24.275  46.451  50.246  1.00  0.00    -0.176 NA
HETATM   15  C   UNL     1      25.471  46.217  49.819  1.00  0.00     0.150 C 
BRANCH  15  16
HETATM   16  C   UNL     1      26.464  45.627  50.748  1.00  0.00    -0.017 A 
HETATM   17  C   UNL     1      26.360  45.871  52.119  1.00  0.00     0.013 A 
HETATM   18  C   UNL     1      27.096  45.109  53.029  1.00  0.00     0.009 A 
HETATM   19  C   UNL     1      27.951  44.084  52.592  1.00  0.00    -0.051 A 
HETATM   20  C   UNL     1      28.099  43.912  51.199  1.00  0.00     0.009 A 
HETATM   21  C   UNL     1      27.355  44.666  50.281  1.00  0.00     0.013 A 
BRANCH  19  22
HETATM   22  C   UNL     1      28.688  43.160  53.578  1.00  0.00    -0.024 C 
HETATM   23  C   UNL     1      29.009  43.830  54.936  1.00  0.00     0.019 C 
HETATM   24  C   UNL     1      30.018  42.711  52.947  1.00  0.00     0.019 C 
HETATM   25  C   UNL     1      27.826  41.917  53.897  1.00  0.00     0.019 C 
ENDBRANCH  19  22
ENDBRANCH  15  16
ENDBRANCH   1  14
BRANCH  13  26
HETATM   26  N   UNL     1      23.219  48.933  49.694  1.00  0.00    -0.286 NA
HETATM   27  H   UNL     1      24.164  49.146  49.356  1.00  0.00     0.125 HD
HETATM   28  H   UNL     1      22.645  49.778  49.683  1.00  0.00     0.125 HD
ENDBRANCH  13  26
BRANCH  12  29
HETATM   29  C   UNL     1      20.288  48.500  48.623  1.00  0.00     0.257 C 
HETATM   30  N   UNL     1      20.215  49.190  49.818  1.00  0.00    -0.354 N 
HETATM   31  H   UNL     1      20.941  48.980  50.497  1.00  0.00     0.162 HD
HETATM   32  O   UNL     1      19.448  48.586  47.738  1.00  0.00    -0.267 OA
BRANCH  30  33
HETATM   33  C   UNL     1      19.044  49.899  50.292  1.00  0.00     0.155 C 
BRANCH  33  34
HETATM   34  C   UNL     1      19.105  51.429  50.136  1.00  0.00     0.139 C 
HETATM   35  O   UNL     1      17.778  51.977  50.242  1.00  0.00    -0.384 OA
HETATM   36  C   UNL     1      17.465  52.685  49.039  1.00  0.00     0.168 C 
HETATM   37  C   UNL     1      18.458  52.229  47.995  1.00  0.00     0.029 C 
HETATM   38  C   UNL     1      19.687  51.946  48.825  1.00  0.00     0.035 C 
ENDBRANCH  33  34
ENDBRANCH  30  33
ENDBRANCH  12  29
TORSDOF 7
ENDMDL
MODEL 9
REMARK VINA RESULT:      -8.7      2.323      5.726
REMARK  7 active torsions:
REMARK  status: ('A' for Active; 'I' for Inactive)
REMARK    1  A    between atoms: C_2  and  C_3 
REMARK    2  A    between atoms: C_6  and  C_7 
REMARK    3  A    between atoms: N_8  and  N_9 
REMARK    4  A    between atoms: C_20  and  C_21 
REMARK       I    between atoms: C_21  and  N_22 
REMARK    5  A    between atoms: N_22  and  C_23 
REMARK    6  A    between atoms: C_23  and  C_24 
REMARK    7  A    between atoms: C_30  and  N_31 
ROOT
HETATM    1  N   UNL     1      25.695  42.865  51.022  1.00  0.00    -0.202 N 
HETATM    2  C   UNL     1      26.286  41.757  50.446  1.00  0.00     0.183 A 
HETATM    3  C   UNL     1      27.524  41.585  51.066  1.00  0.00     0.124 A 
HETATM    4  N   UNL     1      28.386  40.625  50.644  1.00  0.00    -0.242 NA
HETATM    5  C   UNL     1      27.928  39.837  49.663  1.00  0.00     0.086 A 
HETATM    6  C   UNL     1      26.649  40.012  49.071  1.00  0.00     0.088 A 
HETATM    7  N   UNL     1      25.806  40.996  49.433  1.00  0.00    -0.225 NA
HETATM    8  C   UNL     1      28.743  38.806  49.214  1.00  0.00     0.034 A 
HETATM    9  C   UNL     1      28.329  37.932  48.208  1.00  0.00     0.002 A 
HETATM   10  C   UNL     1      27.074  38.091  47.640  1.00  0.00     0.002 A 
HETATM   11  C   UNL     1      26.249  39.130  48.074  1.00  0.00     0.034 A 
HETATM   12  C   UNL     1      27.665  42.585  52.068  1.00  0.00     0.104 C 
HETATM   13  C   UNL     1      26.426  43.203  52.154  1.00  0.00     0.123 C 
ENDROOT
BRANCH   1  14
HETATM   14  N   UNL     1      24.691  43.703  50.618  1.00  0.00    -0.176 NA
HETATM   15  C   UNL     1      25.016  44.624  49.774  1.00  0.00     0.150 C 
BRANCH  15  16
HETATM   16  C   UNL     1      24.146  45.817  49.640  1.00  0.00    -0.017 A 
HETATM   17  C   UNL     1      24.549  47.034  50.192  1.00  0.00     0.013 A 
HETATM   18  C   UNL     1      23.898  48.218  49.840  1.00  0.00     0.009 A 
HETATM   19  C   UNL     1      22.830  48.215  48.928  1.00  0.00    -0.051 A 
HETATM   20  C   UNL     1      22.391  46.963  48.447  1.00  0.00     0.009 A 
HETATM   21  C   UNL     1      23.047  45.773  48.787  1.00  0.00     0.013 A 
BRANCH  19  22
HETATM   22  C   UNL     1      22.168  49.517  48.441  1.00  0.00    -0.024 C 
HETATM   23  C   UNL     1      20.902  49.287  47.582  1.00  0.00     0.019 C 
HETATM   24  C   UNL     1      23.179  50.306  47.590  1.00  0.00     0.019 C 
HETATM   25  C   UNL     1      21.729  50.380  49.646  1.00  0.00     0.019 C 
ENDBRANCH  19  22
ENDBRANCH  15  16
ENDBRANCH   1  14
BRANCH  13  26
HETATM   26  N   UNL     1      25.950  44.147  53.026  1.00  0.00    -0.286 NA
HETATM   27  H   UNL     1      26.444  45.045  52.985  1.00  0.00     0.125 HD
HETATM   28  H   UNL     1      24.940  44.303  53.030  1.00  0.00     0.125 HD
ENDBRANCH  13  26
BRANCH  12  29
HETATM   29  C   UNL     1      28.866  42.974  52.803  1.00  0.00     0.257 C 
HETATM   30  N   UNL     1      28.597  43.299  54.118  1.00  0.00    -0.354 N 
HETATM   31  H   UNL     1      27.624  43.226  54.404  1.00  0.00     0.162 HD
HETATM   32  O   UNL     1      29.970  43.085  52.290  1.00  0.00    -0.267 OA
BRANCH  30  33
HETATM   33  C   UNL     1      29.493  44.033  54.988  1.00  0.00     0.155 C 
BRANCH  33  34
HETATM   34  C   UNL     1      28.818  45.115  55.850  1.00  0.00     0.139 C 
HETATM   35  O   UNL     1      27.443  45.263  55.447  1.00  0.00    -0.384 OA
HETATM   36  C   UNL     1      27.220  46.613  55.030  1.00  0.00     0.168 C 
HETATM   37  C   UNL     1      28.580  47.223  54.781  1.00  0.00     0.029 C 
HETATM   38  C   UNL     1      29.442  46.505  55.792  1.00  0.00     0.035 C 
ENDBRANCH  33  34
ENDBRANCH  30  33
ENDBRANCH  12  29
TORSDOF 7
ENDMDL
MODEL 10
REMARK VINA RESULT:      -8.5      2.006      3.401
REMARK  7 active torsions:
REMARK  status: ('A' for Active; 'I' for Inactive)
REMARK    1  A    between atoms: C_2  and  C_3 
REMARK    2  A    between atoms: C_6  and  C_7 
REMARK    3  A    between atoms: N_8  and  N_9 
REMARK    4  A    between atoms: C_20  and  C_21 
REMARK       I    between atoms: C_21  and  N_22 
REMARK    5  A    between atoms: N_22  and  C_23 
REMARK    6  A    between atoms: C_23  and  C_24 
REMARK    7  A    between atoms: C_30  and  N_31 
ROOT
HETATM    1  N   UNL     1      24.438  46.097  49.925  1.00  0.00    -0.202 N 
HETATM    2  C   UNL     1      25.174  46.152  51.093  1.00  0.00     0.183 A 
HETATM    3  C   UNL     1      25.858  44.940  51.201  1.00  0.00     0.124 A 
HETATM    4  N   UNL     1      26.597  44.655  52.304  1.00  0.00    -0.242 NA
HETATM    5  C   UNL     1      26.668  45.636  53.213  1.00  0.00     0.086 A 
HETATM    6  C   UNL     1      25.989  46.874  53.063  1.00  0.00     0.088 A 
HETATM    7  N   UNL     1      25.203  47.151  52.008  1.00  0.00    -0.225 NA
HETATM    8  C   UNL     1      27.444  45.426  54.346  1.00  0.00     0.034 A 
HETATM    9  C   UNL     1      27.584  46.407  55.328  1.00  0.00     0.002 A 
HETATM   10  C   UNL     1      26.934  47.623  55.176  1.00  0.00     0.002 A 
HETATM   11  C   UNL     1      26.141  47.843  54.048  1.00  0.00     0.034 A 
HETATM   12  C   UNL     1      25.563  44.155  50.052  1.00  0.00     0.104 C 
HETATM   13  C   UNL     1      24.870  44.997  49.194  1.00  0.00     0.123 C 
ENDROOT
BRANCH   1  14
HETATM   14  N   UNL     1      23.350  46.795  49.475  1.00  0.00    -0.176 NA
HETATM   15  C   UNL     1      23.592  47.799  48.700  1.00  0.00     0.150 C 
BRANCH  15  16
HETATM   16  C   UNL     1      22.560  48.852  48.545  1.00  0.00    -0.017 A 
HETATM   17  C   UNL     1      21.489  48.650  47.672  1.00  0.00     0.013 A 
HETATM   18  C   UNL     1      20.372  49.486  47.721  1.00  0.00     0.009 A 
HETATM   19  C   UNL     1      20.297  50.542  48.643  1.00  0.00    -0.051 A 
HETATM   20  C   UNL     1      21.425  50.774  49.458  1.00  0.00     0.009 A 
HETATM   21  C   UNL     1      22.545  49.933  49.422  1.00  0.00     0.013 A 
BRANCH  19  22
HETATM   22  C   UNL     1      19.032  51.408  48.791  1.00  0.00    -0.024 C 
HETATM   23  C   UNL     1      19.055  52.693  47.929  1.00  0.00     0.019 C 
HETATM   24  C   UNL     1      18.882  51.831  50.264  1.00  0.00     0.019 C 
HETATM   25  C   UNL     1      17.781  50.611  48.356  1.00  0.00     0.019 C 
ENDBRANCH  19  22
ENDBRANCH  15  16
ENDBRANCH   1  14
BRANCH  13  26
HETATM   26  N   UNL     1      24.446  44.816  47.904  1.00  0.00    -0.286 NA
HETATM   27  H   UNL     1      24.024  45.649  47.479  1.00  0.00     0.125 HD
HETATM   28  H   UNL     1      25.111  44.391  47.256  1.00  0.00     0.125 HD
ENDBRANCH  13  26
BRANCH  12  29
HETATM   29  C   UNL     1      25.830  42.738  49.825  1.00  0.00     0.257 C 
HETATM   30  N   UNL     1      26.279  42.485  48.543  1.00  0.00    -0.354 N 
HETATM   31  H   UNL     1      26.367  43.294  47.935  1.00  0.00     0.162 HD
HETATM   32  O   UNL     1      25.600  41.863  50.648  1.00  0.00    -0.267 OA
BRANCH  30  33
HETATM   33  C   UNL     1      26.301  41.177  47.919  1.00  0.00     0.155 C 
BRANCH  33  34
HETATM   34  C   UNL     1      25.132  40.898  46.957  1.00  0.00     0.139 C 
HETATM   35  O   UNL     1      24.460  42.133  46.646  1.00  0.00    -0.384 OA
HETATM   36  C   UNL     1      23.089  42.032  47.040  1.00  0.00     0.168 C 
HETATM   37  C   UNL     1      22.993  40.860  47.989  1.00  0.00     0.029 C 
HETATM   38  C   UNL     1      24.064  39.935  47.463  1.00  0.00     0.035 C 
ENDBRANCH  33  34
ENDBRANCH  30  33
ENDBRANCH  12  29
TORSDOF 7
ENDMDL
