MODEL 1
REMARK VINA RESULT:     -10.0      0.000      0.000
REMARK  5 active torsions:
REMARK  status: ('A' for Active; 'I' for Inactive)
REMARK    1  A    between atoms: C_5  and  C_6 
REMARK    2  A    between atoms: C_10  and  C_11 
REMARK       I    between atoms: C_11  and  N_12 
REMARK    3  A    between atoms: N_12  and  C_13 
REMARK    4  A    between atoms: C_15  and  O_16 
REMARK    5  A    between atoms: C_19  and  O_20 
ROOT
HETATM    1  C   UNL     1      28.712  43.366  53.280  1.00  0.00     0.068 A 
HETATM    2  N   UNL     1      28.859  42.060  52.948  1.00  0.00    -0.248 NA
HETATM    3  C   UNL     1      28.392  41.606  51.774  1.00  0.00     0.068 A 
HETATM    4  C   UNL     1      27.712  42.419  50.845  1.00  0.00     0.008 A 
HETATM    5  C   UNL     1      27.475  43.750  51.258  1.00  0.00     0.047 A 
HETATM    6  C   UNL     1      27.984  44.222  52.472  1.00  0.00     0.050 A 
HETATM    7  C   UNL     1      28.626  40.274  51.460  1.00  0.00     0.032 A 
HETATM    8  C   UNL     1      28.242  39.721  50.237  1.00  0.00     0.002 A 
HETATM    9  C   UNL     1      27.623  40.521  49.289  1.00  0.00     0.001 A 
HETATM   10  C   UNL     1      27.368  41.860  49.584  1.00  0.00     0.015 A 
ENDROOT
BRANCH   5  11
HETATM   11  C   UNL     1      26.755  44.767  50.444  1.00  0.00     0.257 C 
HETATM   12  N   UNL     1      25.435  45.000  50.785  1.00  0.00    -0.323 N 
HETATM   13  H   UNL     1      25.044  44.451  51.539  1.00  0.00     0.169 HD
HETATM   14  O   UNL     1      27.393  45.326  49.557  1.00  0.00    -0.267 OA
BRANCH  12  15
HETATM   15  C   UNL     1      24.543  45.887  50.134  1.00  0.00     0.040 A 
HETATM   16  C   UNL     1      24.625  47.279  50.245  1.00  0.00     0.066 A 
HETATM   17  C   UNL     1      23.718  48.102  49.576  1.00  0.00     0.073 A 
HETATM   18  C   UNL     1      22.738  47.524  48.770  1.00  0.00     0.073 A 
HETATM   19  C   UNL     1      22.653  46.139  48.632  1.00  0.00     0.073 A 
HETATM   20  C   UNL     1      23.536  45.320  49.340  1.00  0.00     0.066 A 
BRANCH  17  21
HETATM   21  O   UNL     1      23.689  49.470  49.624  1.00  0.00    -0.356 OA
HETATM   22  C   UNL     1      24.086  50.164  48.447  1.00  0.00     0.210 C 
ENDBRANCH  17  21
BRANCH  19  23
HETATM   23  O   UNL     1      21.662  45.702  47.797  1.00  0.00    -0.356 OA
HETATM   24  C   UNL     1      20.409  45.416  48.406  1.00  0.00     0.210 C 
ENDBRANCH  19  23
ENDBRANCH  12  15
ENDBRANCH   5  11
BRANCH   1  25
HETATM   25  C   UNL     1      29.421  43.808  54.502  1.00  0.00    -0.007 A 
HETATM   26  C   UNL     1      30.444  43.040  55.089  1.00  0.00     0.014 A 
HETATM   27  C   UNL     1      31.070  43.436  56.278  1.00  0.00     0.007 A 
HETATM   28  C   UNL     1      30.683  44.611  56.925  1.00  0.00    -0.062 A 
HETATM   29  C   UNL     1      31.334  45.034  58.208  1.00  0.00     0.048 C 
HETATM   30  C   UNL     1      29.681  45.396  56.351  1.00  0.00     0.007 A 
HETATM   31  C   UNL     1      29.059  44.997  55.160  1.00  0.00     0.014 A 
ENDBRANCH   1  25
TORSDOF 5
ENDMDL
MODEL 2
REMARK VINA RESULT:      -9.9      0.305      2.164
REMARK  5 active torsions:
REMARK  status: ('A' for Active; 'I' for Inactive)
REMARK    1  A    between atoms: C_5  and  C_6 
REMARK    2  A    between atoms: C_10  and  C_11 
REMARK       I    between atoms: C_11  and  N_12 
REMARK    3  A    between atoms: N_12  and  C_13 
REMARK    4  A    between atoms: C_15  and  O_16 
REMARK    5  A    between atoms: C_19  and  O_20 
ROOT
HETATM    1  C   UNL     1      28.517  43.571  53.191  1.00  0.00     0.068 A 
HETATM    2  N   UNL     1      28.706  42.261  52.898  1.00  0.00    -0.248 NA
HETATM    3  C   UNL     1      28.274  41.764  51.728  1.00  0.00     0.068 A 
HETATM    4  C   UNL     1      27.592  42.532  50.765  1.00  0.00     0.008 A 
HETATM    5  C   UNL     1      27.311  43.868  51.136  1.00  0.00     0.047 A 
HETATM    6  C   UNL     1      27.784  44.385  52.346  1.00  0.00     0.050 A 
HETATM    7  C   UNL     1      28.550  40.431  51.456  1.00  0.00     0.032 A 
HETATM    8  C   UNL     1      28.205  39.835  50.242  1.00  0.00     0.002 A 
HETATM    9  C   UNL     1      27.584  40.591  49.260  1.00  0.00     0.001 A 
HETATM   10  C   UNL     1      27.287  41.931  49.513  1.00  0.00     0.015 A 
ENDROOT
BRANCH   5  11
HETATM   11  C   UNL     1      26.581  44.842  50.281  1.00  0.00     0.257 C 
HETATM   12  N   UNL     1      25.268  45.099  50.632  1.00  0.00    -0.323 N 
HETATM   13  H   UNL     1      24.888  44.593  51.421  1.00  0.00     0.169 HD
HETATM   14  O   UNL     1      27.205  45.350  49.355  1.00  0.00    -0.267 OA
BRANCH  12  15
HETATM   15  C   UNL     1      24.368  45.953  49.950  1.00  0.00     0.040 A 
HETATM   16  C   UNL     1      23.338  45.484  49.127  1.00  0.00     0.066 A 
HETATM   17  C   UNL     1      22.479  46.376  48.482  1.00  0.00     0.073 A 
HETATM   18  C   UNL     1      22.641  47.746  48.683  1.00  0.00     0.073 A 
HETATM   19  C   UNL     1      23.650  48.231  49.515  1.00  0.00     0.073 A 
HETATM   20  C   UNL     1      24.533  47.335  50.122  1.00  0.00     0.066 A 
BRANCH  17  21
HETATM   21  O   UNL     1      21.453  46.036  47.642  1.00  0.00    -0.356 OA
HETATM   22  C   UNL     1      20.242  45.599  48.249  1.00  0.00     0.210 C 
ENDBRANCH  17  21
BRANCH  19  23
HETATM   23  O   UNL     1      23.686  49.592  49.645  1.00  0.00    -0.356 OA
HETATM   24  C   UNL     1      23.801  50.335  48.438  1.00  0.00     0.210 C 
ENDBRANCH  19  23
ENDBRANCH  12  15
ENDBRANCH   5  11
BRANCH   1  25
HETATM   25  C   UNL     1      29.190  44.066  54.413  1.00  0.00    -0.007 A 
HETATM   26  C   UNL     1      30.295  43.400  54.978  1.00  0.00     0.014 A 
HETATM   27  C   UNL     1      30.890  43.839  56.167  1.00  0.00     0.007 A 
HETATM   28  C   UNL     1      30.390  44.956  56.838  1.00  0.00    -0.062 A 
HETATM   29  C   UNL     1      31.007  45.425  58.122  1.00  0.00     0.048 C 
HETATM   30  C   UNL     1      29.304  45.641  56.288  1.00  0.00     0.007 A 
HETATM   31  C   UNL     1      28.714  45.199  55.096  1.00  0.00     0.014 A 
ENDBRANCH   1  25
TORSDOF 5
ENDMDL
MODEL 3
REMARK VINA RESULT:      -9.4      1.221      2.369
REMARK  5 active torsions:
REMARK  status: ('A' for Active; 'I' for Inactive)
REMARK    1  A    between atoms: C_5  and  C_6 
REMARK    2  A    between atoms: C_10  and  C_11 
REMARK       I    between atoms: C_11  and  N_12 
REMARK    3  A    between atoms: N_12  and  C_13 
REMARK    4  A    between atoms: C_15  and  O_16 
REMARK    5  A    between atoms: C_19  and  O_20 
ROOT
HETATM    1  C   UNL     1      27.946  43.167  53.056  1.00  0.00     0.068 A 
HETATM    2  N   UNL     1      28.369  42.022  52.465  1.00  0.00    -0.248 NA
HETATM    3  C   UNL     1      27.748  41.560  51.369  1.00  0.00     0.068 A 
HETATM    4  C   UNL     1      26.632  42.191  50.788  1.00  0.00     0.008 A 
HETATM    5  C   UNL     1      26.140  43.322  51.481  1.00  0.00     0.047 A 
HETATM    6  C   UNL     1      26.806  43.811  52.609  1.00  0.00     0.050 A 
HETATM    7  C   UNL     1      28.265  40.418  50.771  1.00  0.00     0.032 A 
HETATM    8  C   UNL     1      27.735  39.894  49.591  1.00  0.00     0.002 A 
HETATM    9  C   UNL     1      26.672  40.535  48.975  1.00  0.00     0.001 A 
HETATM   10  C   UNL     1      26.129  41.679  49.560  1.00  0.00     0.015 A 
ENDROOT
BRANCH   5  11
HETATM   11  C   UNL     1      24.958  44.120  51.056  1.00  0.00     0.257 C 
HETATM   12  N   UNL     1      25.204  45.144  50.159  1.00  0.00    -0.323 N 
HETATM   13  H   UNL     1      26.163  45.297  49.876  1.00  0.00     0.169 HD
HETATM   14  O   UNL     1      23.869  43.794  51.515  1.00  0.00    -0.267 OA
BRANCH  12  15
HETATM   15  C   UNL     1      24.251  46.057  49.646  1.00  0.00     0.040 A 
HETATM   16  C   UNL     1      23.135  45.664  48.899  1.00  0.00     0.066 A 
HETATM   17  C   UNL     1      22.227  46.612  48.422  1.00  0.00     0.073 A 
HETATM   18  C   UNL     1      22.430  47.960  48.717  1.00  0.00     0.073 A 
HETATM   19  C   UNL     1      23.525  48.367  49.476  1.00  0.00     0.073 A 
HETATM   20  C   UNL     1      24.453  47.419  49.913  1.00  0.00     0.066 A 
BRANCH  17  21
HETATM   21  O   UNL     1      21.115  46.349  47.669  1.00  0.00    -0.356 OA
HETATM   22  C   UNL     1      19.860  46.389  48.338  1.00  0.00     0.210 C 
ENDBRANCH  17  21
BRANCH  19  23
HETATM   23  O   UNL     1      23.595  49.713  49.713  1.00  0.00    -0.356 OA
HETATM   24  C   UNL     1      22.399  50.452  49.493  1.00  0.00     0.210 C 
ENDBRANCH  19  23
ENDBRANCH  12  15
ENDBRANCH   5  11
BRANCH   1  25
HETATM   25  C   UNL     1      28.805  43.694  54.140  1.00  0.00    -0.007 A 
HETATM   26  C   UNL     1      29.936  42.994  54.603  1.00  0.00     0.014 A 
HETATM   27  C   UNL     1      30.710  43.470  55.668  1.00  0.00     0.007 A 
HETATM   28  C   UNL     1      30.370  44.660  56.314  1.00  0.00    -0.062 A 
HETATM   29  C   UNL     1      31.182  45.169  57.468  1.00  0.00     0.048 C 
HETATM   30  C   UNL     1      29.261  45.378  55.862  1.00  0.00     0.007 A 
HETATM   31  C   UNL     1      28.492  44.899  54.793  1.00  0.00     0.014 A 
ENDBRANCH   1  25
TORSDOF 5
ENDMDL
MODEL 4
REMARK VINA RESULT:      -9.2      2.870      7.065
REMARK  5 active torsions:
REMARK  status: ('A' for Active; 'I' for Inactive)
REMARK    1  A    between atoms: C_5  and  C_6 
REMARK    2  A    between atoms: C_10  and  C_11 
REMARK       I    between atoms: C_11  and  N_12 
REMARK    3  A    between atoms: N_12  and  C_13 
REMARK    4  A    between atoms: C_15  and  O_16 
REMARK    5  A    between atoms: C_19  and  O_20 
ROOT
HETATM    1  C   UNL     1      28.020  44.495  53.565  1.00  0.00     0.068 A 
HETATM    2  N   UNL     1      27.284  45.563  53.172  1.00  0.00    -0.248 NA
HETATM    3  C   UNL     1      26.424  45.449  52.147  1.00  0.00     0.068 A 
HETATM    4  C   UNL     1      26.251  44.261  51.411  1.00  0.00     0.008 A 
HETATM    5  C   UNL     1      27.106  43.192  51.767  1.00  0.00     0.047 A 
HETATM    6  C   UNL     1      27.982  43.311  52.851  1.00  0.00     0.050 A 
HETATM    7  C   UNL     1      25.652  46.558  51.830  1.00  0.00     0.032 A 
HETATM    8  C   UNL     1      24.682  46.524  50.827  1.00  0.00     0.002 A 
HETATM    9  C   UNL     1      24.459  45.346  50.131  1.00  0.00     0.001 A 
HETATM   10  C   UNL     1      25.229  44.220  50.424  1.00  0.00     0.015 A 
ENDROOT
BRANCH   5  11
HETATM   11  C   UNL     1      27.108  41.860  51.104  1.00  0.00     0.257 C 
HETATM   12  N   UNL     1      28.319  41.438  50.585  1.00  0.00    -0.323 N 
HETATM   13  H   UNL     1      29.106  42.067  50.667  1.00  0.00     0.169 HD
HETATM   14  O   UNL     1      26.049  41.241  51.090  1.00  0.00    -0.267 OA
BRANCH  12  15
HETATM   15  C   UNL     1      28.555  40.233  49.879  1.00  0.00     0.040 A 
HETATM   16  C   UNL     1      28.188  40.040  48.543  1.00  0.00     0.066 A 
HETATM   17  C   UNL     1      28.451  38.830  47.899  1.00  0.00     0.073 A 
HETATM   18  C   UNL     1      29.108  37.815  48.595  1.00  0.00     0.073 A 
HETATM   19  C   UNL     1      29.499  37.997  49.921  1.00  0.00     0.073 A 
HETATM   20  C   UNL     1      29.193  39.194  50.573  1.00  0.00     0.066 A 
BRANCH  17  21
HETATM   21  O   UNL     1      28.124  38.521  46.607  1.00  0.00    -0.356 OA
HETATM   22  C   UNL     1      28.592  37.275  46.104  1.00  0.00     0.210 C 
ENDBRANCH  17  21
BRANCH  19  23
HETATM   23  O   UNL     1      30.154  36.934  50.481  1.00  0.00    -0.356 OA
HETATM   24  C   UNL     1      29.978  36.755  51.881  1.00  0.00     0.210 C 
ENDBRANCH  19  23
ENDBRANCH  12  15
ENDBRANCH   5  11
BRANCH   1  25
HETATM   25  C   UNL     1      28.794  44.666  54.815  1.00  0.00    -0.007 A 
HETATM   26  C   UNL     1      28.482  45.666  55.755  1.00  0.00     0.014 A 
HETATM   27  C   UNL     1      29.255  45.860  56.907  1.00  0.00     0.007 A 
HETATM   28  C   UNL     1      30.375  45.063  57.151  1.00  0.00    -0.062 A 
HETATM   29  C   UNL     1      31.220  45.274  58.372  1.00  0.00     0.048 C 
HETATM   30  C   UNL     1      30.694  44.055  56.239  1.00  0.00     0.007 A 
HETATM   31  C   UNL     1      29.916  43.863  55.089  1.00  0.00     0.014 A 
ENDBRANCH   1  25
TORSDOF 5
ENDMDL
MODEL 5
REMARK VINA RESULT:      -8.9      2.849      7.026
REMARK  5 active torsions:
REMARK  status: ('A' for Active; 'I' for Inactive)
REMARK    1  A    between atoms: C_5  and  C_6 
REMARK    2  A    between atoms: C_10  and  C_11 
REMARK       I    between atoms: C_11  and  N_12 
REMARK    3  A    between atoms: N_12  and  C_13 
REMARK    4  A    between atoms: C_15  and  O_16 
REMARK    5  A    between atoms: C_19  and  O_20 
ROOT
HETATM    1  C   UNL     1      27.485  44.745  53.170  1.00  0.00     0.068 A 
HETATM    2  N   UNL     1      26.705  45.738  52.677  1.00  0.00    -0.248 NA
HETATM    3  C   UNL     1      25.901  45.505  51.627  1.00  0.00     0.068 A 
HETATM    4  C   UNL     1      25.832  44.263  50.966  1.00  0.00     0.008 A 
HETATM    5  C   UNL     1      26.732  43.275  51.427  1.00  0.00     0.047 A 
HETATM    6  C   UNL     1      27.550  43.517  52.535  1.00  0.00     0.050 A 
HETATM    7  C   UNL     1      25.079  46.541  51.205  1.00  0.00     0.032 A 
HETATM    8  C   UNL     1      24.159  46.382  50.168  1.00  0.00     0.002 A 
HETATM    9  C   UNL     1      24.037  45.151  49.544  1.00  0.00     0.001 A 
HETATM   10  C   UNL     1      24.859  44.096  49.943  1.00  0.00     0.015 A 
ENDROOT
BRANCH   5  11
HETATM   11  C   UNL     1      26.842  41.905  50.855  1.00  0.00     0.257 C 
HETATM   12  N   UNL     1      28.104  41.516  50.442  1.00  0.00    -0.323 N 
HETATM   13  H   UNL     1      28.852  42.190  50.530  1.00  0.00     0.169 HD
HETATM   14  O   UNL     1      25.818  41.232  50.817  1.00  0.00    -0.267 OA
BRANCH  12  15
HETATM   15  C   UNL     1      28.445  40.284  49.834  1.00  0.00     0.040 A 
HETATM   16  C   UNL     1      29.143  39.267  50.495  1.00  0.00     0.066 A 
HETATM   17  C   UNL     1      29.448  38.071  49.843  1.00  0.00     0.073 A 
HETATM   18  C   UNL     1      29.028  37.886  48.526  1.00  0.00     0.073 A 
HETATM   19  C   UNL     1      28.315  38.880  47.858  1.00  0.00     0.073 A 
HETATM   20  C   UNL     1      28.052  40.091  48.502  1.00  0.00     0.066 A 
BRANCH  17  21
HETATM   21  O   UNL     1      30.139  37.018  50.380  1.00  0.00    -0.356 OA
HETATM   22  C   UNL     1      29.885  36.711  51.746  1.00  0.00     0.210 C 
ENDBRANCH  17  21
BRANCH  19  23
HETATM   23  O   UNL     1      27.943  38.563  46.580  1.00  0.00    -0.356 OA
HETATM   24  C   UNL     1      28.471  37.351  46.055  1.00  0.00     0.210 C 
ENDBRANCH  19  23
ENDBRANCH  12  15
ENDBRANCH   5  11
BRANCH   1  25
HETATM   25  C   UNL     1      28.191  45.043  54.436  1.00  0.00    -0.007 A 
HETATM   26  C   UNL     1      27.756  46.055  55.313  1.00  0.00     0.014 A 
HETATM   27  C   UNL     1      28.462  46.372  56.480  1.00  0.00     0.007 A 
HETATM   28  C   UNL     1      29.637  45.691  56.803  1.00  0.00    -0.062 A 
HETATM   29  C   UNL     1      30.411  46.034  58.041  1.00  0.00     0.048 C 
HETATM   30  C   UNL     1      30.079  44.673  55.956  1.00  0.00     0.007 A 
HETATM   31  C   UNL     1      29.367  44.358  54.791  1.00  0.00     0.014 A 
ENDBRANCH   1  25
TORSDOF 5
ENDMDL
MODEL 6
REMARK VINA RESULT:      -8.9      2.928      9.030
REMARK  5 active torsions:
REMARK  status: ('A' for Active; 'I' for Inactive)
REMARK    1  A    between atoms: C_5  and  C_6 
REMARK    2  A    between atoms: C_10  and  C_11 
REMARK       I    between atoms: C_11  and  N_12 
REMARK    3  A    between atoms: N_12  and  C_13 
REMARK    4  A    between atoms: C_15  and  O_16 
REMARK    5  A    between atoms: C_19  and  O_20 
ROOT
HETATM    1  C   UNL     1      22.496  47.696  48.797  1.00  0.00     0.068 A 
HETATM    2  N   UNL     1      22.064  46.661  48.036  1.00  0.00    -0.248 NA
HETATM    3  C   UNL     1      22.689  45.474  48.095  1.00  0.00     0.068 A 
HETATM    4  C   UNL     1      23.818  45.233  48.901  1.00  0.00     0.008 A 
HETATM    5  C   UNL     1      24.317  46.355  49.604  1.00  0.00     0.047 A 
HETATM    6  C   UNL     1      23.648  47.582  49.556  1.00  0.00     0.050 A 
HETATM    7  C   UNL     1      22.164  44.433  47.341  1.00  0.00     0.032 A 
HETATM    8  C   UNL     1      22.697  43.144  47.383  1.00  0.00     0.002 A 
HETATM    9  C   UNL     1      23.773  42.876  48.214  1.00  0.00     0.001 A 
HETATM   10  C   UNL     1      24.325  43.907  48.975  1.00  0.00     0.015 A 
ENDROOT
BRANCH   5  11
HETATM   11  C   UNL     1      25.512  46.328  50.491  1.00  0.00     0.257 C 
HETATM   12  N   UNL     1      25.341  45.730  51.727  1.00  0.00    -0.323 N 
HETATM   13  H   UNL     1      24.420  45.380  51.952  1.00  0.00     0.169 HD
HETATM   14  O   UNL     1      26.547  46.814  50.048  1.00  0.00    -0.267 OA
BRANCH  12  15
HETATM   15  C   UNL     1      26.316  45.621  52.748  1.00  0.00     0.040 A 
HETATM   16  C   UNL     1      27.212  44.551  52.845  1.00  0.00     0.066 A 
HETATM   17  C   UNL     1      28.154  44.501  53.874  1.00  0.00     0.073 A 
HETATM   18  C   UNL     1      28.212  45.545  54.798  1.00  0.00     0.073 A 
HETATM   19  C   UNL     1      27.340  46.629  54.704  1.00  0.00     0.073 A 
HETATM   20  C   UNL     1      26.371  46.651  53.699  1.00  0.00     0.066 A 
BRANCH  17  21
HETATM   21  O   UNL     1      29.064  43.500  54.081  1.00  0.00    -0.356 OA
HETATM   22  C   UNL     1      29.815  43.070  52.951  1.00  0.00     0.210 C 
ENDBRANCH  17  21
BRANCH  19  23
HETATM   23  O   UNL     1      27.516  47.595  55.658  1.00  0.00    -0.356 OA
HETATM   24  C   UNL     1      26.444  48.514  55.825  1.00  0.00     0.210 C 
ENDBRANCH  19  23
ENDBRANCH  12  15
ENDBRANCH   5  11
BRANCH   1  25
HETATM   25  C   UNL     1      21.634  48.899  48.805  1.00  0.00    -0.007 A 
HETATM   26  C   UNL     1      20.271  48.838  49.151  1.00  0.00     0.014 A 
HETATM   27  C   UNL     1      19.448  49.970  49.100  1.00  0.00     0.007 A 
HETATM   28  C   UNL     1      19.961  51.201  48.688  1.00  0.00    -0.062 A 
HETATM   29  C   UNL     1      19.083  52.414  48.612  1.00  0.00     0.048 C 
HETATM   30  C   UNL     1      21.314  51.288  48.355  1.00  0.00     0.007 A 
HETATM   31  C   UNL     1      22.135  50.153  48.411  1.00  0.00     0.014 A 
ENDBRANCH   1  25
TORSDOF 5
ENDMDL
MODEL 7
REMARK VINA RESULT:      -8.9      2.819      8.196
REMARK  5 active torsions:
REMARK  status: ('A' for Active; 'I' for Inactive)
REMARK    1  A    between atoms: C_5  and  C_6 
REMARK    2  A    between atoms: C_10  and  C_11 
REMARK       I    between atoms: C_11  and  N_12 
REMARK    3  A    between atoms: N_12  and  C_13 
REMARK    4  A    between atoms: C_15  and  O_16 
REMARK    5  A    between atoms: C_19  and  O_20 
ROOT
HETATM    1  C   UNL     1      25.696  46.162  50.924  1.00  0.00     0.068 A 
HETATM    2  N   UNL     1      26.125  46.505  52.164  1.00  0.00    -0.248 NA
HETATM    3  C   UNL     1      26.724  45.593  52.946  1.00  0.00     0.068 A 
HETATM    4  C   UNL     1      26.920  44.252  52.561  1.00  0.00     0.008 A 
HETATM    5  C   UNL     1      26.370  43.889  51.310  1.00  0.00     0.047 A 
HETATM    6  C   UNL     1      25.767  44.850  50.491  1.00  0.00     0.050 A 
HETATM    7  C   UNL     1      27.198  46.017  54.180  1.00  0.00     0.032 A 
HETATM    8  C   UNL     1      27.895  45.166  55.039  1.00  0.00     0.002 A 
HETATM    9  C   UNL     1      28.146  43.859  54.652  1.00  0.00     0.001 A 
HETATM   10  C   UNL     1      27.673  43.406  53.421  1.00  0.00     0.015 A 
ENDROOT
BRANCH   5  11
HETATM   11  C   UNL     1      26.440  42.523  50.725  1.00  0.00     0.257 C 
HETATM   12  N   UNL     1      27.655  42.157  50.173  1.00  0.00    -0.323 N 
HETATM   13  H   UNL     1      28.396  42.845  50.179  1.00  0.00     0.169 HD
HETATM   14  O   UNL     1      25.431  41.831  50.800  1.00  0.00    -0.267 OA
BRANCH  12  15
HETATM   15  C   UNL     1      27.948  40.931  49.527  1.00  0.00     0.040 A 
HETATM   16  C   UNL     1      28.332  39.774  50.213  1.00  0.00     0.066 A 
HETATM   17  C   UNL     1      28.605  38.592  49.521  1.00  0.00     0.073 A 
HETATM   18  C   UNL     1      28.469  38.568  48.133  1.00  0.00     0.073 A 
HETATM   19  C   UNL     1      28.069  39.707  47.435  1.00  0.00     0.073 A 
HETATM   20  C   UNL     1      27.840  40.897  48.129  1.00  0.00     0.066 A 
BRANCH  17  21
HETATM   21  O   UNL     1      29.004  37.409  50.080  1.00  0.00    -0.356 OA
HETATM   22  C   UNL     1      29.961  37.483  51.130  1.00  0.00     0.210 C 
ENDBRANCH  17  21
BRANCH  19  23
HETATM   23  O   UNL     1      27.953  39.543  46.081  1.00  0.00    -0.356 OA
HETATM   24  C   UNL     1      28.093  40.718  45.293  1.00  0.00     0.210 C 
ENDBRANCH  19  23
ENDBRANCH  12  15
ENDBRANCH   5  11
BRANCH   1  25
HETATM   25  C   UNL     1      25.221  47.274  50.071  1.00  0.00    -0.007 A 
HETATM   26  C   UNL     1      26.094  48.264  49.581  1.00  0.00     0.014 A 
HETATM   27  C   UNL     1      25.629  49.346  48.824  1.00  0.00     0.007 A 
HETATM   28  C   UNL     1      24.269  49.480  48.541  1.00  0.00    -0.062 A 
HETATM   29  C   UNL     1      23.758  50.644  47.747  1.00  0.00     0.048 C 
HETATM   30  C   UNL     1      23.387  48.501  49.004  1.00  0.00     0.007 A 
HETATM   31  C   UNL     1      23.858  47.419  49.759  1.00  0.00     0.014 A 
ENDBRANCH   1  25
TORSDOF 5
ENDMDL
MODEL 8
REMARK VINA RESULT:      -8.8      2.957      8.930
REMARK  5 active torsions:
REMARK  status: ('A' for Active; 'I' for Inactive)
REMARK    1  A    between atoms: C_5  and  C_6 
REMARK    2  A    between atoms: C_10  and  C_11 
REMARK       I    between atoms: C_11  and  N_12 
REMARK    3  A    between atoms: N_12  and  C_13 
REMARK    4  A    between atoms: C_15  and  O_16 
REMARK    5  A    between atoms: C_19  and  O_20 
ROOT
HETATM    1  C   UNL     1      22.432  47.707  48.729  1.00  0.00     0.068 A 
HETATM    2  N   UNL     1      22.003  46.668  47.971  1.00  0.00    -0.248 NA
HETATM    3  C   UNL     1      22.621  45.479  48.047  1.00  0.00     0.068 A 
HETATM    4  C   UNL     1      23.738  45.238  48.869  1.00  0.00     0.008 A 
HETATM    5  C   UNL     1      24.235  46.362  49.569  1.00  0.00     0.047 A 
HETATM    6  C   UNL     1      23.573  47.592  49.503  1.00  0.00     0.050 A 
HETATM    7  C   UNL     1      22.099  44.435  47.294  1.00  0.00     0.032 A 
HETATM    8  C   UNL     1      22.625  43.143  47.353  1.00  0.00     0.002 A 
HETATM    9  C   UNL     1      23.689  42.876  48.200  1.00  0.00     0.001 A 
HETATM   10  C   UNL     1      24.237  43.909  48.960  1.00  0.00     0.015 A 
ENDROOT
BRANCH   5  11
HETATM   11  C   UNL     1      25.419  46.336  50.470  1.00  0.00     0.257 C 
HETATM   12  N   UNL     1      25.200  45.860  51.751  1.00  0.00    -0.323 N 
HETATM   13  H   UNL     1      24.256  45.591  51.994  1.00  0.00     0.169 HD
HETATM   14  O   UNL     1      26.487  46.714  50.002  1.00  0.00    -0.267 OA
BRANCH  12  15
HETATM   15  C   UNL     1      26.157  45.778  52.791  1.00  0.00     0.040 A 
HETATM   16  C   UNL     1      26.280  46.740  53.800  1.00  0.00     0.066 A 
HETATM   17  C   UNL     1      27.243  46.603  54.802  1.00  0.00     0.073 A 
HETATM   18  C   UNL     1      28.071  45.481  54.803  1.00  0.00     0.073 A 
HETATM   19  C   UNL     1      27.949  44.503  53.817  1.00  0.00     0.073 A 
HETATM   20  C   UNL     1      27.014  44.668  52.793  1.00  0.00     0.066 A 
BRANCH  17  21
HETATM   21  O   UNL     1      27.467  47.484  55.825  1.00  0.00    -0.356 OA
HETATM   22  C   UNL     1      26.506  48.518  56.006  1.00  0.00     0.210 C 
ENDBRANCH  17  21
BRANCH  19  23
HETATM   23  O   UNL     1      28.806  43.444  53.946  1.00  0.00    -0.356 OA
HETATM   24  C   UNL     1      29.642  43.173  52.828  1.00  0.00     0.210 C 
ENDBRANCH  19  23
ENDBRANCH  12  15
ENDBRANCH   5  11
BRANCH   1  25
HETATM   25  C   UNL     1      21.577  48.915  48.717  1.00  0.00    -0.007 A 
HETATM   26  C   UNL     1      20.182  48.844  48.897  1.00  0.00     0.014 A 
HETATM   27  C   UNL     1      19.372  49.984  48.825  1.00  0.00     0.007 A 
HETATM   28  C   UNL     1      19.931  51.235  48.560  1.00  0.00    -0.062 A 
HETATM   29  C   UNL     1      19.071  52.459  48.463  1.00  0.00     0.048 C 
HETATM   30  C   UNL     1      21.315  51.331  48.393  1.00  0.00     0.007 A 
HETATM   31  C   UNL     1      22.121  50.188  48.468  1.00  0.00     0.014 A 
ENDBRANCH   1  25
TORSDOF 5
ENDMDL
MODEL 9
REMARK VINA RESULT:      -8.8      2.820      8.193
REMARK  5 active torsions:
REMARK  status: ('A' for Active; 'I' for Inactive)
REMARK    1  A    between atoms: C_5  and  C_6 
REMARK    2  A    between atoms: C_10  and  C_11 
REMARK       I    between atoms: C_11  and  N_12 
REMARK    3  A    between atoms: N_12  and  C_13 
REMARK    4  A    between atoms: C_15  and  O_16 
REMARK    5  A    between atoms: C_19  and  O_20 
ROOT
HETATM    1  C   UNL     1      25.689  46.106  50.865  1.00  0.00     0.068 A 
HETATM    2  N   UNL     1      26.139  46.423  52.103  1.00  0.00    -0.248 NA
HETATM    3  C   UNL     1      26.739  45.491  52.861  1.00  0.00     0.068 A 
HETATM    4  C   UNL     1      26.913  44.155  52.451  1.00  0.00     0.008 A 
HETATM    5  C   UNL     1      26.340  43.819  51.202  1.00  0.00     0.047 A 
HETATM    6  C   UNL     1      25.737  44.800  50.409  1.00  0.00     0.050 A 
HETATM    7  C   UNL     1      27.236  45.888  54.095  1.00  0.00     0.032 A 
HETATM    8  C   UNL     1      27.935  45.015  54.929  1.00  0.00     0.002 A 
HETATM    9  C   UNL     1      28.165  43.712  54.517  1.00  0.00     0.001 A 
HETATM   10  C   UNL     1      27.668  43.285  53.286  1.00  0.00     0.015 A 
ENDROOT
BRANCH   5  11
HETATM   11  C   UNL     1      26.385  42.462  50.594  1.00  0.00     0.257 C 
HETATM   12  N   UNL     1      27.592  42.084  50.033  1.00  0.00    -0.323 N 
HETATM   13  H   UNL     1      28.346  42.759  50.050  1.00  0.00     0.169 HD
HETATM   14  O   UNL     1      25.364  41.787  50.659  1.00  0.00    -0.267 OA
BRANCH  12  15
HETATM   15  C   UNL     1      27.863  40.865  49.366  1.00  0.00     0.040 A 
HETATM   16  C   UNL     1      27.822  40.725  47.974  1.00  0.00     0.066 A 
HETATM   17  C   UNL     1      28.102  39.496  47.373  1.00  0.00     0.073 A 
HETATM   18  C   UNL     1      28.447  38.408  48.174  1.00  0.00     0.073 A 
HETATM   19  C   UNL     1      28.512  38.535  49.561  1.00  0.00     0.073 A 
HETATM   20  C   UNL     1      28.188  39.755  50.158  1.00  0.00     0.066 A 
BRANCH  17  21
HETATM   21  O   UNL     1      28.075  39.236  46.029  1.00  0.00    -0.356 OA
HETATM   22  C   UNL     1      27.269  40.088  45.224  1.00  0.00     0.210 C 
ENDBRANCH  17  21
BRANCH  19  23
HETATM   23  O   UNL     1      28.885  37.399  50.227  1.00  0.00    -0.356 OA
HETATM   24  C   UNL     1      29.986  37.527  51.118  1.00  0.00     0.210 C 
ENDBRANCH  19  23
ENDBRANCH  12  15
ENDBRANCH   5  11
BRANCH   1  25
HETATM   25  C   UNL     1      25.215  47.238  50.037  1.00  0.00    -0.007 A 
HETATM   26  C   UNL     1      26.088  48.242  49.576  1.00  0.00     0.014 A 
HETATM   27  C   UNL     1      25.623  49.341  48.844  1.00  0.00     0.007 A 
HETATM   28  C   UNL     1      24.264  49.478  48.558  1.00  0.00    -0.062 A 
HETATM   29  C   UNL     1      23.753  50.661  47.790  1.00  0.00     0.048 C 
HETATM   30  C   UNL     1      23.382  48.487  48.993  1.00  0.00     0.007 A 
HETATM   31  C   UNL     1      23.852  47.387  49.723  1.00  0.00     0.014 A 
ENDBRANCH   1  25
TORSDOF 5
ENDMDL
MODEL 10
REMARK VINA RESULT:      -8.6      2.322      9.258
REMARK  5 active torsions:
REMARK  status: ('A' for Active; 'I' for Inactive)
REMARK    1  A    between atoms: C_5  and  C_6 
REMARK    2  A    between atoms: C_10  and  C_11 
REMARK       I    between atoms: C_11  and  N_12 
REMARK    3  A    between atoms: N_12  and  C_13 
REMARK    4  A    between atoms: C_15  and  O_16 
REMARK    5  A    between atoms: C_19  and  O_20 
ROOT
HETATM    1  C   UNL     1      23.280  47.045  49.112  1.00  0.00     0.068 A 
HETATM    2  N   UNL     1      23.665  48.289  48.736  1.00  0.00    -0.248 NA
HETATM    3  C   UNL     1      24.948  48.665  48.863  1.00  0.00     0.068 A 
HETATM    4  C   UNL     1      25.947  47.834  49.404  1.00  0.00     0.008 A 
HETATM    5  C   UNL     1      25.504  46.582  49.889  1.00  0.00     0.047 A 
HETATM    6  C   UNL     1      24.171  46.188  49.733  1.00  0.00     0.050 A 
HETATM    7  C   UNL     1      25.296  49.928  48.403  1.00  0.00     0.032 A 
HETATM    8  C   UNL     1      26.613  50.389  48.427  1.00  0.00     0.002 A 
HETATM    9  C   UNL     1      27.618  49.563  48.903  1.00  0.00     0.001 A 
HETATM   10  C   UNL     1      27.293  48.292  49.380  1.00  0.00     0.015 A 
ENDROOT
BRANCH   5  11
HETATM   11  C   UNL     1      26.387  45.564  50.521  1.00  0.00     0.257 C 
HETATM   12  N   UNL     1      26.371  45.514  51.903  1.00  0.00    -0.323 N 
HETATM   13  H   UNL     1      25.787  46.184  52.387  1.00  0.00     0.169 HD
HETATM   14  O   UNL     1      27.036  44.844  49.769  1.00  0.00    -0.267 OA
BRANCH  12  15
HETATM   15  C   UNL     1      27.152  44.662  52.722  1.00  0.00     0.040 A 
HETATM   16  C   UNL     1      27.943  45.126  53.778  1.00  0.00     0.066 A 
HETATM   17  C   UNL     1      28.689  44.236  54.553  1.00  0.00     0.073 A 
HETATM   18  C   UNL     1      28.621  42.870  54.280  1.00  0.00     0.073 A 
HETATM   19  C   UNL     1      27.822  42.389  53.243  1.00  0.00     0.073 A 
HETATM   20  C   UNL     1      27.113  43.289  52.444  1.00  0.00     0.066 A 
BRANCH  17  21
HETATM   21  O   UNL     1      29.510  44.573  55.596  1.00  0.00    -0.356 OA
HETATM   22  C   UNL     1      30.762  43.900  55.673  1.00  0.00     0.210 C 
ENDBRANCH  17  21
BRANCH  19  23
HETATM   23  O   UNL     1      27.826  41.028  53.095  1.00  0.00    -0.356 OA
HETATM   24  C   UNL     1      28.940  40.476  52.404  1.00  0.00     0.210 C 
ENDBRANCH  19  23
ENDBRANCH  12  15
ENDBRANCH   5  11
BRANCH   1  25
HETATM   25  C   UNL     1      21.894  46.661  48.761  1.00  0.00    -0.007 A 
HETATM   26  C   UNL     1      21.545  45.335  48.445  1.00  0.00     0.014 A 
HETATM   27  C   UNL     1      20.245  44.989  48.056  1.00  0.00     0.007 A 
HETATM   28  C   UNL     1      19.251  45.964  47.961  1.00  0.00    -0.062 A 
HETATM   29  C   UNL     1      17.860  45.608  47.528  1.00  0.00     0.048 C 
HETATM   30  C   UNL     1      19.572  47.284  48.284  1.00  0.00     0.007 A 
HETATM   31  C   UNL     1      20.873  47.625  48.675  1.00  0.00     0.014 A 
ENDBRANCH   1  25
TORSDOF 5
ENDMDL
