MODEL 1
REMARK VINA RESULT:      -8.4      0.000      0.000
REMARK  9 active torsions:
REMARK  status: ('A' for Active; 'I' for Inactive)
REMARK    1  A    between atoms: C_4  and  C_5 
REMARK    2  A    between atoms: C_7  and  C_8 
REMARK    3  A    between atoms: C_8  and  C_9 
REMARK       I    between atoms: C_9  and  N_10 
REMARK    4  A    between atoms: N_10  and  C_11 
REMARK    5  A    between atoms: C_11  and  C_12 
REMARK    6  A    between atoms: C_12  and  N_13 
REMARK    7  A    between atoms: C_27  and  C_28 
REMARK    8  A    between atoms: C_28  and  O_29 
REMARK    9  A    between atoms: O_29  and  C_30 
ROOT
HETATM    1  C   UNL     1      25.277  43.930  51.792  1.00  0.00     0.166 C 
HETATM    2  N   UNL     1      25.287  42.767  50.883  1.00  0.00    -0.319 N 
HETATM    3  C   UNL     1      24.454  42.297  50.016  1.00  0.00     0.011 C 
HETATM    4  C   UNL     1      26.610  41.971  50.900  1.00  0.00     0.170 C 
HETATM    5  S   UNL     1      26.690  40.839  49.593  1.00  0.00    -0.086 SA
HETATM    6  C   UNL     1      24.934  41.104  49.221  1.00  0.00     0.135 C 
HETATM    7  N   UNL     1      27.527  42.084  51.791  1.00  0.00    -0.229 NA
HETATM    8  C   UNL     1      27.280  42.886  52.886  1.00  0.00     0.048 C 
HETATM    9  C   UNL     1      28.236  42.636  54.032  1.00  0.00     0.071 C 
HETATM   10  C   UNL     1      26.230  43.737  52.944  1.00  0.00     0.069 C 
ENDROOT
BRANCH   3  11
HETATM   11  C   UNL     1      23.070  42.851  49.846  1.00  0.00     0.156 C 
BRANCH  11  12
HETATM   12  C   UNL     1      23.032  44.040  48.903  1.00  0.00     0.223 C 
HETATM   13  N   UNL     1      22.014  44.928  49.127  1.00  0.00    -0.359 N 
HETATM   14  H   UNL     1      21.289  44.651  49.787  1.00  0.00     0.162 HD
HETATM   15  O   UNL     1      23.880  44.188  48.027  1.00  0.00    -0.273 OA
BRANCH  13  16
HETATM   16  C   UNL     1      21.622  46.049  48.265  1.00  0.00     0.150 C 
BRANCH  16  17
HETATM   17  C   UNL     1      20.221  46.675  48.442  1.00  0.00     0.254 C 
BRANCH  17  18
HETATM   18  N   UNL     1      20.216  47.963  49.251  1.00  0.00    -0.070 N 
HETATM   19  H   UNL     1      20.932  47.832  49.993  1.00  0.00     0.279 HD
HETATM   20  C   UNL     1      20.592  49.193  48.453  1.00  0.00     0.235 C 
HETATM   21  C   UNL     1      20.640  50.411  49.363  1.00  0.00     0.028 C 
HETATM   22  C   UNL     1      19.320  50.622  50.091  1.00  0.00     0.003 C 
HETATM   23  C   UNL     1      18.921  49.365  50.853  1.00  0.00     0.028 C 
HETATM   24  C   UNL     1      18.879  48.146  49.946  1.00  0.00     0.235 C 
ENDBRANCH  17  18
ENDBRANCH  16  17
ENDBRANCH  13  16
ENDBRANCH  11  12
ENDBRANCH   3  11
BRANCH   1  25
HETATM   25  C   UNL     1      25.550  45.231  51.031  1.00  0.00    -0.030 A 
HETATM   26  C   UNL     1      24.576  46.237  50.850  1.00  0.00     0.016 A 
HETATM   27  C   UNL     1      24.873  47.420  50.155  1.00  0.00    -0.061 A 
HETATM   28  C   UNL     1      23.831  48.488  49.968  1.00  0.00     0.048 C 
HETATM   29  C   UNL     1      26.132  47.571  49.572  1.00  0.00     0.007 A 
HETATM   30  C   UNL     1      27.095  46.574  49.709  1.00  0.00     0.001 A 
HETATM   31  C   UNL     1      26.811  45.418  50.438  1.00  0.00     0.009 A 
ENDBRANCH   1  25
BRANCH  10  32
HETATM   32  C   UNL     1      25.790  44.456  54.168  1.00  0.00     0.294 C 
HETATM   33  O   UNL     1      24.639  44.339  54.562  1.00  0.00    -0.259 OA
BRANCH  32  34
HETATM   34  O   UNL     1      26.769  45.199  54.710  1.00  0.00    -0.313 OA
BRANCH  34  35
HETATM   35  C   UNL     1      27.114  46.479  54.125  1.00  0.00     0.124 C 
HETATM   36  C   UNL     1      25.902  47.394  54.004  1.00  0.00     0.040 C 
HETATM   37  C   UNL     1      28.291  47.136  54.842  1.00  0.00     0.040 C 
ENDBRANCH  34  35
ENDBRANCH  32  34
ENDBRANCH  10  32
TORSDOF 9
ENDMDL
MODEL 2
REMARK VINA RESULT:      -8.2      1.432      1.979
REMARK  9 active torsions:
REMARK  status: ('A' for Active; 'I' for Inactive)
REMARK    1  A    between atoms: C_4  and  C_5 
REMARK    2  A    between atoms: C_7  and  C_8 
REMARK    3  A    between atoms: C_8  and  C_9 
REMARK       I    between atoms: C_9  and  N_10 
REMARK    4  A    between atoms: N_10  and  C_11 
REMARK    5  A    between atoms: C_11  and  C_12 
REMARK    6  A    between atoms: C_12  and  N_13 
REMARK    7  A    between atoms: C_27  and  C_28 
REMARK    8  A    between atoms: C_28  and  O_29 
REMARK    9  A    between atoms: O_29  and  C_30 
ROOT
HETATM    1  C   UNL     1      25.874  43.682  51.707  1.00  0.00     0.166 C 
HETATM    2  N   UNL     1      25.604  42.710  50.632  1.00  0.00    -0.319 N 
HETATM    3  C   UNL     1      24.546  42.363  49.978  1.00  0.00     0.011 C 
HETATM    4  C   UNL     1      26.866  41.996  50.102  1.00  0.00     0.170 C 
HETATM    5  S   UNL     1      26.543  41.129  48.639  1.00  0.00    -0.086 SA
HETATM    6  C   UNL     1      24.758  41.365  48.863  1.00  0.00     0.135 C 
HETATM    7  N   UNL     1      28.010  41.992  50.685  1.00  0.00    -0.229 NA
HETATM    8  C   UNL     1      28.108  42.564  51.937  1.00  0.00     0.048 C 
HETATM    9  C   UNL     1      29.364  42.159  52.677  1.00  0.00     0.071 C 
HETATM   10  C   UNL     1      27.128  43.332  52.466  1.00  0.00     0.069 C 
ENDROOT
BRANCH   3  11
HETATM   11  C   UNL     1      23.177  42.863  50.336  1.00  0.00     0.156 C 
BRANCH  11  12
HETATM   12  C   UNL     1      22.541  43.665  49.214  1.00  0.00     0.223 C 
HETATM   13  N   UNL     1      22.706  45.022  49.303  1.00  0.00    -0.359 N 
HETATM   14  H   UNL     1      23.094  45.389  50.171  1.00  0.00     0.162 HD
HETATM   15  O   UNL     1      21.949  43.113  48.290  1.00  0.00    -0.273 OA
BRANCH  13  16
HETATM   16  C   UNL     1      22.047  46.041  48.480  1.00  0.00     0.150 C 
BRANCH  16  17
HETATM   17  C   UNL     1      22.721  47.422  48.315  1.00  0.00     0.254 C 
BRANCH  17  18
HETATM   18  N   UNL     1      21.868  48.589  48.784  1.00  0.00    -0.070 N 
HETATM   19  H   UNL     1      21.322  48.230  49.594  1.00  0.00     0.279 HD
HETATM   20  C   UNL     1      22.665  49.786  49.255  1.00  0.00     0.235 C 
HETATM   21  C   UNL     1      21.728  50.864  49.781  1.00  0.00     0.028 C 
HETATM   22  C   UNL     1      20.701  51.274  48.736  1.00  0.00     0.003 C 
HETATM   23  C   UNL     1      19.934  50.060  48.230  1.00  0.00     0.028 C 
HETATM   24  C   UNL     1      20.869  48.980  47.711  1.00  0.00     0.235 C 
ENDBRANCH  17  18
ENDBRANCH  16  17
ENDBRANCH  13  16
ENDBRANCH  11  12
ENDBRANCH   3  11
BRANCH   1  25
HETATM   25  C   UNL     1      25.910  45.114  51.165  1.00  0.00    -0.030 A 
HETATM   26  C   UNL     1      26.910  45.580  50.284  1.00  0.00     0.016 A 
HETATM   27  C   UNL     1      26.898  46.899  49.802  1.00  0.00    -0.061 A 
HETATM   28  C   UNL     1      27.965  47.387  48.862  1.00  0.00     0.048 C 
HETATM   29  C   UNL     1      25.920  47.784  50.259  1.00  0.00     0.007 A 
HETATM   30  C   UNL     1      24.946  47.353  51.156  1.00  0.00     0.001 A 
HETATM   31  C   UNL     1      24.934  46.029  51.599  1.00  0.00     0.009 A 
ENDBRANCH   1  25
BRANCH  10  32
HETATM   32  C   UNL     1      27.082  43.789  53.879  1.00  0.00     0.294 C 
HETATM   33  O   UNL     1      26.521  43.105  54.722  1.00  0.00    -0.259 OA
BRANCH  32  34
HETATM   34  O   UNL     1      27.687  44.974  54.059  1.00  0.00    -0.313 OA
BRANCH  34  35
HETATM   35  C   UNL     1      28.318  45.279  55.327  1.00  0.00     0.124 C 
HETATM   36  C   UNL     1      29.700  44.648  55.441  1.00  0.00     0.040 C 
HETATM   37  C   UNL     1      28.319  46.778  55.620  1.00  0.00     0.040 C 
ENDBRANCH  34  35
ENDBRANCH  32  34
ENDBRANCH  10  32
TORSDOF 9
ENDMDL
MODEL 3
REMARK VINA RESULT:      -8.0      3.318      9.283
REMARK  9 active torsions:
REMARK  status: ('A' for Active; 'I' for Inactive)
REMARK    1  A    between atoms: C_4  and  C_5 
REMARK    2  A    between atoms: C_7  and  C_8 
REMARK    3  A    between atoms: C_8  and  C_9 
REMARK       I    between atoms: C_9  and  N_10 
REMARK    4  A    between atoms: N_10  and  C_11 
REMARK    5  A    between atoms: C_11  and  C_12 
REMARK    6  A    between atoms: C_12  and  N_13 
REMARK    7  A    between atoms: C_27  and  C_28 
REMARK    8  A    between atoms: C_28  and  O_29 
REMARK    9  A    between atoms: O_29  and  C_30 
ROOT
HETATM    1  C   UNL     1      20.700  48.324  49.040  1.00  0.00     0.166 C 
HETATM    2  N   UNL     1      22.085  48.809  48.892  1.00  0.00    -0.319 N 
HETATM    3  C   UNL     1      23.246  48.256  48.992  1.00  0.00     0.011 C 
HETATM    4  C   UNL     1      22.187  50.282  48.441  1.00  0.00     0.170 C 
HETATM    5  S   UNL     1      23.800  50.694  47.966  1.00  0.00    -0.086 SA
HETATM    6  C   UNL     1      24.427  49.137  48.653  1.00  0.00     0.135 C 
HETATM    7  N   UNL     1      21.219  51.127  48.454  1.00  0.00    -0.229 NA
HETATM    8  C   UNL     1      20.023  50.740  49.022  1.00  0.00     0.048 C 
HETATM    9  C   UNL     1      19.112  51.906  49.338  1.00  0.00     0.071 C 
HETATM   10  C   UNL     1      19.748  49.454  49.339  1.00  0.00     0.069 C 
ENDROOT
BRANCH   3  11
HETATM   11  C   UNL     1      23.430  46.847  49.476  1.00  0.00     0.156 C 
BRANCH  11  12
HETATM   12  C   UNL     1      24.607  46.709  50.425  1.00  0.00     0.223 C 
HETATM   13  N   UNL     1      25.428  45.641  50.181  1.00  0.00    -0.359 N 
HETATM   14  H   UNL     1      25.109  44.953  49.501  1.00  0.00     0.162 HD
HETATM   15  O   UNL     1      24.803  47.523  51.324  1.00  0.00    -0.273 OA
BRANCH  13  16
HETATM   16  C   UNL     1      26.514  45.155  51.039  1.00  0.00     0.150 C 
BRANCH  16  17
HETATM   17  C   UNL     1      26.161  44.410  52.345  1.00  0.00     0.254 C 
BRANCH  17  18
HETATM   18  N   UNL     1      27.316  43.619  52.939  1.00  0.00    -0.070 N 
HETATM   19  H   UNL     1      26.880  42.924  53.578  1.00  0.00     0.279 HD
HETATM   20  C   UNL     1      28.134  42.861  51.916  1.00  0.00     0.235 C 
HETATM   21  C   UNL     1      29.209  42.039  52.613  1.00  0.00     0.028 C 
HETATM   22  C   UNL     1      30.102  42.906  53.487  1.00  0.00     0.003 C 
HETATM   23  C   UNL     1      29.270  43.703  54.483  1.00  0.00     0.028 C 
HETATM   24  C   UNL     1      28.192  44.520  53.789  1.00  0.00     0.235 C 
ENDBRANCH  17  18
ENDBRANCH  16  17
ENDBRANCH  13  16
ENDBRANCH  11  12
ENDBRANCH   3  11
BRANCH   1  25
HETATM   25  C   UNL     1      20.263  47.512  47.817  1.00  0.00    -0.030 A 
HETATM   26  C   UNL     1      20.402  46.109  47.732  1.00  0.00     0.016 A 
HETATM   27  C   UNL     1      19.978  45.403  46.595  1.00  0.00    -0.061 A 
HETATM   28  C   UNL     1      20.126  43.910  46.514  1.00  0.00     0.048 C 
HETATM   29  C   UNL     1      19.475  46.110  45.501  1.00  0.00     0.007 A 
HETATM   30  C   UNL     1      19.364  47.497  45.551  1.00  0.00     0.001 A 
HETATM   31  C   UNL     1      19.745  48.192  46.701  1.00  0.00     0.009 A 
ENDBRANCH   1  25
BRANCH  10  32
HETATM   32  C   UNL     1      18.579  49.012  50.143  1.00  0.00     0.294 C 
HETATM   33  O   UNL     1      18.755  48.406  51.190  1.00  0.00    -0.259 OA
BRANCH  32  34
HETATM   34  O   UNL     1      17.407  49.342  49.577  1.00  0.00    -0.313 OA
BRANCH  34  35
HETATM   35  C   UNL     1      16.892  48.558  48.472  1.00  0.00     0.124 C 
HETATM   36  C   UNL     1      16.722  47.091  48.845  1.00  0.00     0.040 C 
HETATM   37  C   UNL     1      15.629  49.174  47.874  1.00  0.00     0.040 C 
ENDBRANCH  34  35
ENDBRANCH  32  34
ENDBRANCH  10  32
TORSDOF 9
ENDMDL
MODEL 4
REMARK VINA RESULT:      -8.0      2.909      8.737
REMARK  9 active torsions:
REMARK  status: ('A' for Active; 'I' for Inactive)
REMARK    1  A    between atoms: C_4  and  C_5 
REMARK    2  A    between atoms: C_7  and  C_8 
REMARK    3  A    between atoms: C_8  and  C_9 
REMARK       I    between atoms: C_9  and  N_10 
REMARK    4  A    between atoms: N_10  and  C_11 
REMARK    5  A    between atoms: C_11  and  C_12 
REMARK    6  A    between atoms: C_12  and  N_13 
REMARK    7  A    between atoms: C_27  and  C_28 
REMARK    8  A    between atoms: C_28  and  O_29 
REMARK    9  A    between atoms: O_29  and  C_30 
ROOT
HETATM    1  C   UNL     1      22.289  47.410  49.005  1.00  0.00     0.166 C 
HETATM    2  N   UNL     1      23.653  47.949  49.162  1.00  0.00    -0.319 N 
HETATM    3  C   UNL     1      24.694  47.579  49.829  1.00  0.00     0.011 C 
HETATM    4  C   UNL     1      23.944  49.181  48.278  1.00  0.00     0.170 C 
HETATM    5  S   UNL     1      25.633  49.562  48.249  1.00  0.00    -0.086 SA
HETATM    6  C   UNL     1      25.943  48.402  49.610  1.00  0.00     0.135 C 
HETATM    7  N   UNL     1      23.054  49.880  47.671  1.00  0.00    -0.229 NA
HETATM    8  C   UNL     1      21.725  49.595  47.908  1.00  0.00     0.048 C 
HETATM    9  C   UNL     1      20.794  50.704  47.470  1.00  0.00     0.071 C 
HETATM   10  C   UNL     1      21.323  48.475  48.551  1.00  0.00     0.069 C 
ENDROOT
BRANCH   3  11
HETATM   11  C   UNL     1      24.660  46.447  50.813  1.00  0.00     0.156 C 
BRANCH  11  12
HETATM   12  C   UNL     1      25.745  45.417  50.548  1.00  0.00     0.223 C 
HETATM   13  N   UNL     1      26.431  44.997  51.656  1.00  0.00    -0.359 N 
HETATM   14  H   UNL     1      26.274  45.507  52.523  1.00  0.00     0.162 HD
HETATM   15  O   UNL     1      25.956  44.987  49.416  1.00  0.00    -0.273 OA
BRANCH  13  16
HETATM   16  C   UNL     1      27.640  44.167  51.676  1.00  0.00     0.150 C 
BRANCH  16  17
HETATM   17  C   UNL     1      27.986  43.379  52.960  1.00  0.00     0.254 C 
BRANCH  17  18
HETATM   18  N   UNL     1      28.973  44.087  53.874  1.00  0.00    -0.070 N 
HETATM   19  H   UNL     1      29.641  44.574  53.243  1.00  0.00     0.279 HD
HETATM   20  C   UNL     1      28.342  45.127  54.775  1.00  0.00     0.235 C 
HETATM   21  C   UNL     1      29.416  45.835  55.588  1.00  0.00     0.028 C 
HETATM   22  C   UNL     1      30.248  44.852  56.397  1.00  0.00     0.003 C 
HETATM   23  C   UNL     1      30.842  43.780  55.494  1.00  0.00     0.028 C 
HETATM   24  C   UNL     1      29.771  43.076  54.676  1.00  0.00     0.235 C 
ENDBRANCH  17  18
ENDBRANCH  16  17
ENDBRANCH  13  16
ENDBRANCH  11  12
ENDBRANCH   3  11
BRANCH   1  25
HETATM   25  C   UNL     1      22.277  46.190  48.079  1.00  0.00    -0.030 A 
HETATM   26  C   UNL     1      22.573  44.882  48.522  1.00  0.00     0.016 A 
HETATM   27  C   UNL     1      22.539  43.790  47.640  1.00  0.00    -0.061 A 
HETATM   28  C   UNL     1      22.852  42.401  48.120  1.00  0.00     0.048 C 
HETATM   29  C   UNL     1      22.277  44.014  46.287  1.00  0.00     0.007 A 
HETATM   30  C   UNL     1      22.019  45.301  45.824  1.00  0.00     0.001 A 
HETATM   31  C   UNL     1      22.009  46.379  46.712  1.00  0.00     0.009 A 
ENDBRANCH   1  25
BRANCH  10  32
HETATM   32  C   UNL     1      19.938  48.223  49.025  1.00  0.00     0.294 C 
HETATM   33  O   UNL     1      19.609  48.560  50.153  1.00  0.00    -0.259 OA
BRANCH  32  34
HETATM   34  O   UNL     1      19.180  47.607  48.103  1.00  0.00    -0.313 OA
BRANCH  34  35
HETATM   35  C   UNL     1      18.331  46.498  48.489  1.00  0.00     0.124 C 
HETATM   36  C   UNL     1      16.854  46.867  48.433  1.00  0.00     0.040 C 
HETATM   37  C   UNL     1      18.660  45.227  47.708  1.00  0.00     0.040 C 
ENDBRANCH  34  35
ENDBRANCH  32  34
ENDBRANCH  10  32
TORSDOF 9
ENDMDL
MODEL 5
REMARK VINA RESULT:      -7.9      1.446      1.991
REMARK  9 active torsions:
REMARK  status: ('A' for Active; 'I' for Inactive)
REMARK    1  A    between atoms: C_4  and  C_5 
REMARK    2  A    between atoms: C_7  and  C_8 
REMARK    3  A    between atoms: C_8  and  C_9 
REMARK       I    between atoms: C_9  and  N_10 
REMARK    4  A    between atoms: N_10  and  C_11 
REMARK    5  A    between atoms: C_11  and  C_12 
REMARK    6  A    between atoms: C_12  and  N_13 
REMARK    7  A    between atoms: C_27  and  C_28 
REMARK    8  A    between atoms: C_28  and  O_29 
REMARK    9  A    between atoms: O_29  and  C_30 
ROOT
HETATM    1  C   UNL     1      25.101  45.040  51.290  1.00  0.00     0.166 C 
HETATM    2  N   UNL     1      25.009  43.895  50.364  1.00  0.00    -0.319 N 
HETATM    3  C   UNL     1      24.066  43.405  49.631  1.00  0.00     0.011 C 
HETATM    4  C   UNL     1      26.347  43.154  50.151  1.00  0.00     0.170 C 
HETATM    5  S   UNL     1      26.260  42.049  48.821  1.00  0.00    -0.086 SA
HETATM    6  C   UNL     1      24.458  42.247  48.741  1.00  0.00     0.135 C 
HETATM    7  N   UNL     1      27.391  43.291  50.886  1.00  0.00    -0.229 NA
HETATM    8  C   UNL     1      27.292  44.062  52.025  1.00  0.00     0.048 C 
HETATM    9  C   UNL     1      28.428  43.833  52.998  1.00  0.00     0.071 C 
HETATM   10  C   UNL     1      26.232  44.867  52.271  1.00  0.00     0.069 C 
ENDROOT
BRANCH   3  11
HETATM   11  C   UNL     1      22.652  43.903  49.698  1.00  0.00     0.156 C 
BRANCH  11  12
HETATM   12  C   UNL     1      22.074  44.192  48.324  1.00  0.00     0.223 C 
HETATM   13  N   UNL     1      22.358  45.434  47.823  1.00  0.00    -0.359 N 
HETATM   14  H   UNL     1      22.789  46.106  48.456  1.00  0.00     0.162 HD
HETATM   15  O   UNL     1      21.424  43.347  47.713  1.00  0.00    -0.273 OA
BRANCH  13  16
HETATM   16  C   UNL     1      21.780  46.050  46.623  1.00  0.00     0.150 C 
BRANCH  16  17
HETATM   17  C   UNL     1      20.387  46.711  46.718  1.00  0.00     0.254 C 
BRANCH  17  18
HETATM   18  N   UNL     1      20.421  48.171  47.140  1.00  0.00    -0.070 N 
HETATM   19  H   UNL     1      21.308  48.554  46.755  1.00  0.00     0.279 HD
HETATM   20  C   UNL     1      19.279  48.998  46.589  1.00  0.00     0.235 C 
HETATM   21  C   UNL     1      19.447  50.455  46.997  1.00  0.00     0.028 C 
HETATM   22  C   UNL     1      19.547  50.608  48.507  1.00  0.00     0.003 C 
HETATM   23  C   UNL     1      20.666  49.737  49.063  1.00  0.00     0.028 C 
HETATM   24  C   UNL     1      20.503  48.282  48.651  1.00  0.00     0.235 C 
ENDBRANCH  17  18
ENDBRANCH  16  17
ENDBRANCH  13  16
ENDBRANCH  11  12
ENDBRANCH   3  11
BRANCH   1  25
HETATM   25  C   UNL     1      25.197  46.364  50.527  1.00  0.00    -0.030 A 
HETATM   26  C   UNL     1      26.425  46.972  50.188  1.00  0.00     0.016 A 
HETATM   27  C   UNL     1      26.467  48.182  49.477  1.00  0.00    -0.061 A 
HETATM   28  C   UNL     1      27.779  48.821  49.117  1.00  0.00     0.048 C 
HETATM   29  C   UNL     1      25.271  48.831  49.164  1.00  0.00     0.007 A 
HETATM   30  C   UNL     1      24.050  48.265  49.522  1.00  0.00     0.001 A 
HETATM   31  C   UNL     1      24.011  47.040  50.189  1.00  0.00     0.009 A 
ENDBRANCH   1  25
BRANCH  10  32
HETATM   32  C   UNL     1      25.968  45.546  53.566  1.00  0.00     0.294 C 
HETATM   33  O   UNL     1      25.128  45.095  54.329  1.00  0.00    -0.259 OA
BRANCH  32  34
HETATM   34  O   UNL     1      26.722  46.645  53.736  1.00  0.00    -0.313 OA
BRANCH  34  35
HETATM   35  C   UNL     1      27.179  47.009  55.062  1.00  0.00     0.124 C 
HETATM   36  C   UNL     1      28.690  46.878  55.199  1.00  0.00     0.040 C 
HETATM   37  C   UNL     1      26.655  48.378  55.492  1.00  0.00     0.040 C 
ENDBRANCH  34  35
ENDBRANCH  32  34
ENDBRANCH  10  32
TORSDOF 9
ENDMDL
MODEL 6
REMARK VINA RESULT:      -7.7      3.066      4.864
REMARK  9 active torsions:
REMARK  status: ('A' for Active; 'I' for Inactive)
REMARK    1  A    between atoms: C_4  and  C_5 
REMARK    2  A    between atoms: C_7  and  C_8 
REMARK    3  A    between atoms: C_8  and  C_9 
REMARK       I    between atoms: C_9  and  N_10 
REMARK    4  A    between atoms: N_10  and  C_11 
REMARK    5  A    between atoms: C_11  and  C_12 
REMARK    6  A    between atoms: C_12  and  N_13 
REMARK    7  A    between atoms: C_27  and  C_28 
REMARK    8  A    between atoms: C_28  and  O_29 
REMARK    9  A    between atoms: O_29  and  C_30 
ROOT
HETATM    1  C   UNL     1      25.229  44.888  51.269  1.00  0.00     0.166 C 
HETATM    2  N   UNL     1      25.350  43.738  50.352  1.00  0.00    -0.319 N 
HETATM    3  C   UNL     1      24.547  43.162  49.523  1.00  0.00     0.011 C 
HETATM    4  C   UNL     1      26.767  43.126  50.300  1.00  0.00     0.170 C 
HETATM    5  S   UNL     1      26.935  42.016  48.983  1.00  0.00    -0.086 SA
HETATM    6  C   UNL     1      25.144  42.045  48.697  1.00  0.00     0.135 C 
HETATM    7  N   UNL     1      27.703  43.361  51.148  1.00  0.00    -0.229 NA
HETATM    8  C   UNL     1      27.403  44.121  52.260  1.00  0.00     0.048 C 
HETATM    9  C   UNL     1      28.438  44.000  53.357  1.00  0.00     0.071 C 
HETATM   10  C   UNL     1      26.253  44.823  52.374  1.00  0.00     0.069 C 
ENDROOT
BRANCH   3  11
HETATM   11  C   UNL     1      23.095  43.525  49.423  1.00  0.00     0.156 C 
BRANCH  11  12
HETATM   12  C   UNL     1      22.570  43.432  48.001  1.00  0.00     0.223 C 
HETATM   13  N   UNL     1      23.140  44.304  47.112  1.00  0.00    -0.359 N 
HETATM   14  H   UNL     1      23.740  45.034  47.494  1.00  0.00     0.162 HD
HETATM   15  O   UNL     1      21.715  42.607  47.687  1.00  0.00    -0.273 OA
BRANCH  13  16
HETATM   16  C   UNL     1      22.702  44.568  45.738  1.00  0.00     0.150 C 
BRANCH  16  17
HETATM   17  C   UNL     1      23.017  43.529  44.638  1.00  0.00     0.254 C 
BRANCH  17  18
HETATM   18  N   UNL     1      24.443  43.595  44.114  1.00  0.00    -0.070 N 
HETATM   19  H   UNL     1      25.028  43.875  44.926  1.00  0.00     0.279 HD
HETATM   20  C   UNL     1      24.970  42.276  43.593  1.00  0.00     0.235 C 
HETATM   21  C   UNL     1      26.424  42.425  43.170  1.00  0.00     0.028 C 
HETATM   22  C   UNL     1      26.599  43.524  42.133  1.00  0.00     0.003 C 
HETATM   23  C   UNL     1      26.024  44.839  42.642  1.00  0.00     0.028 C 
HETATM   24  C   UNL     1      24.572  44.690  43.071  1.00  0.00     0.235 C 
ENDBRANCH  17  18
ENDBRANCH  16  17
ENDBRANCH  13  16
ENDBRANCH  11  12
ENDBRANCH   3  11
BRANCH   1  25
HETATM   25  C   UNL     1      25.288  46.215  50.507  1.00  0.00    -0.030 A 
HETATM   26  C   UNL     1      26.497  46.877  50.202  1.00  0.00     0.016 A 
HETATM   27  C   UNL     1      26.506  48.087  49.491  1.00  0.00    -0.061 A 
HETATM   28  C   UNL     1      27.798  48.784  49.168  1.00  0.00     0.048 C 
HETATM   29  C   UNL     1      25.291  48.681  49.141  1.00  0.00     0.007 A 
HETATM   30  C   UNL     1      24.087  48.062  49.465  1.00  0.00     0.001 A 
HETATM   31  C   UNL     1      24.083  46.836  50.133  1.00  0.00     0.009 A 
ENDBRANCH   1  25
BRANCH  10  32
HETATM   32  C   UNL     1      25.781  45.476  53.622  1.00  0.00     0.294 C 
HETATM   33  O   UNL     1      25.053  44.865  54.391  1.00  0.00    -0.259 OA
BRANCH  32  34
HETATM   34  O   UNL     1      26.230  46.735  53.749  1.00  0.00    -0.313 OA
BRANCH  34  35
HETATM   35  C   UNL     1      26.829  47.167  54.996  1.00  0.00     0.124 C 
HETATM   36  C   UNL     1      28.350  47.195  54.916  1.00  0.00     0.040 C 
HETATM   37  C   UNL     1      26.231  48.482  55.492  1.00  0.00     0.040 C 
ENDBRANCH  34  35
ENDBRANCH  32  34
ENDBRANCH  10  32
TORSDOF 9
ENDMDL
MODEL 7
REMARK VINA RESULT:      -7.3     11.222     14.157
REMARK  9 active torsions:
REMARK  status: ('A' for Active; 'I' for Inactive)
REMARK    1  A    between atoms: C_4  and  C_5 
REMARK    2  A    between atoms: C_7  and  C_8 
REMARK    3  A    between atoms: C_8  and  C_9 
REMARK       I    between atoms: C_9  and  N_10 
REMARK    4  A    between atoms: N_10  and  C_11 
REMARK    5  A    between atoms: C_11  and  C_12 
REMARK    6  A    between atoms: C_12  and  N_13 
REMARK    7  A    between atoms: C_27  and  C_28 
REMARK    8  A    between atoms: C_28  and  O_29 
REMARK    9  A    between atoms: O_29  and  C_30 
ROOT
HETATM    1  C   UNL     1      26.210  48.444  38.948  1.00  0.00     0.166 C 
HETATM    2  N   UNL     1      26.692  47.214  39.606  1.00  0.00    -0.319 N 
HETATM    3  C   UNL     1      27.745  46.480  39.477  1.00  0.00     0.011 C 
HETATM    4  C   UNL     1      25.789  46.727  40.760  1.00  0.00     0.170 C 
HETATM    5  S   UNL     1      26.562  45.495  41.699  1.00  0.00    -0.086 SA
HETATM    6  C   UNL     1      27.873  45.334  40.455  1.00  0.00     0.135 C 
HETATM    7  N   UNL     1      24.592  47.136  40.983  1.00  0.00    -0.229 NA
HETATM    8  C   UNL     1      24.010  47.986  40.066  1.00  0.00     0.048 C 
HETATM    9  C   UNL     1      22.508  48.081  40.215  1.00  0.00     0.071 C 
HETATM   10  C   UNL     1      24.716  48.593  39.084  1.00  0.00     0.069 C 
ENDROOT
BRANCH   3  11
HETATM   11  C   UNL     1      28.753  46.700  38.388  1.00  0.00     0.156 C 
BRANCH  11  12
HETATM   12  C   UNL     1      29.919  47.560  38.843  1.00  0.00     0.223 C 
HETATM   13  N   UNL     1      30.693  47.013  39.831  1.00  0.00    -0.359 N 
HETATM   14  H   UNL     1      30.347  46.168  40.282  1.00  0.00     0.162 HD
HETATM   15  O   UNL     1      30.148  48.652  38.328  1.00  0.00    -0.273 OA
BRANCH  13  16
HETATM   16  C   UNL     1      31.754  47.687  40.589  1.00  0.00     0.150 C 
BRANCH  16  17
HETATM   17  C   UNL     1      31.361  48.677  41.708  1.00  0.00     0.254 C 
BRANCH  17  18
HETATM   18  N   UNL     1      32.540  49.412  42.326  1.00  0.00    -0.070 N 
HETATM   19  H   UNL     1      32.909  48.780  43.065  1.00  0.00     0.279 HD
HETATM   20  C   UNL     1      33.665  49.699  41.355  1.00  0.00     0.235 C 
HETATM   21  C   UNL     1      34.828  50.359  42.083  1.00  0.00     0.028 C 
HETATM   22  C   UNL     1      34.394  51.629  42.800  1.00  0.00     0.003 C 
HETATM   23  C   UNL     1      33.230  51.346  43.740  1.00  0.00     0.028 C 
HETATM   24  C   UNL     1      32.071  50.680  43.015  1.00  0.00     0.235 C 
ENDBRANCH  17  18
ENDBRANCH  16  17
ENDBRANCH  13  16
ENDBRANCH  11  12
ENDBRANCH   3  11
BRANCH   1  25
HETATM   25  C   UNL     1      26.961  49.677  39.459  1.00  0.00    -0.030 A 
HETATM   26  C   UNL     1      27.448  50.692  38.608  1.00  0.00     0.016 A 
HETATM   27  C   UNL     1      28.122  51.811  39.121  1.00  0.00    -0.061 A 
HETATM   28  C   UNL     1      28.635  52.889  38.207  1.00  0.00     0.048 C 
HETATM   29  C   UNL     1      28.377  51.885  40.492  1.00  0.00     0.007 A 
HETATM   30  C   UNL     1      27.936  50.876  41.344  1.00  0.00     0.001 A 
HETATM   31  C   UNL     1      27.227  49.786  40.836  1.00  0.00     0.009 A 
ENDBRANCH   1  25
BRANCH  10  32
HETATM   32  C   UNL     1      24.116  49.338  37.947  1.00  0.00     0.294 C 
HETATM   33  O   UNL     1      23.590  50.424  38.141  1.00  0.00    -0.259 OA
BRANCH  32  34
HETATM   34  O   UNL     1      24.222  48.677  36.783  1.00  0.00    -0.313 OA
BRANCH  34  35
HETATM   35  C   UNL     1      23.377  47.528  36.524  1.00  0.00     0.124 C 
HETATM   36  C   UNL     1      22.151  47.898  35.699  1.00  0.00     0.040 C 
HETATM   37  C   UNL     1      24.166  46.361  35.934  1.00  0.00     0.040 C 
ENDBRANCH  34  35
ENDBRANCH  32  34
ENDBRANCH  10  32
TORSDOF 9
ENDMDL
MODEL 8
REMARK VINA RESULT:      -7.3      7.071     10.865
REMARK  9 active torsions:
REMARK  status: ('A' for Active; 'I' for Inactive)
REMARK    1  A    between atoms: C_4  and  C_5 
REMARK    2  A    between atoms: C_7  and  C_8 
REMARK    3  A    between atoms: C_8  and  C_9 
REMARK       I    between atoms: C_9  and  N_10 
REMARK    4  A    between atoms: N_10  and  C_11 
REMARK    5  A    between atoms: C_11  and  C_12 
REMARK    6  A    between atoms: C_12  and  N_13 
REMARK    7  A    between atoms: C_27  and  C_28 
REMARK    8  A    between atoms: C_28  and  O_29 
REMARK    9  A    between atoms: O_29  and  C_30 
ROOT
HETATM    1  C   UNL     1      17.754  49.519  47.698  1.00  0.00     0.166 C 
HETATM    2  N   UNL     1      17.002  50.642  47.106  1.00  0.00    -0.319 N 
HETATM    3  C   UNL     1      16.172  51.513  47.573  1.00  0.00     0.011 C 
HETATM    4  C   UNL     1      17.327  50.897  45.619  1.00  0.00     0.170 C 
HETATM    5  S   UNL     1      16.682  52.409  45.074  1.00  0.00    -0.086 SA
HETATM    6  C   UNL     1      15.709  52.571  46.598  1.00  0.00     0.135 C 
HETATM    7  N   UNL     1      17.954  50.082  44.850  1.00  0.00    -0.229 NA
HETATM    8  C   UNL     1      18.265  48.830  45.339  1.00  0.00     0.048 C 
HETATM    9  C   UNL     1      18.631  47.843  44.253  1.00  0.00     0.071 C 
HETATM   10  C   UNL     1      18.158  48.513  46.650  1.00  0.00     0.069 C 
ENDROOT
BRANCH   3  11
HETATM   11  C   UNL     1      15.643  51.451  48.976  1.00  0.00     0.156 C 
BRANCH  11  12
HETATM   12  C   UNL     1      16.032  52.667  49.797  1.00  0.00     0.223 C 
HETATM   13  N   UNL     1      14.999  53.278  50.456  1.00  0.00    -0.359 N 
HETATM   14  H   UNL     1      14.054  52.974  50.228  1.00  0.00     0.162 HD
HETATM   15  O   UNL     1      17.200  53.043  49.870  1.00  0.00    -0.273 OA
BRANCH  13  16
HETATM   16  C   UNL     1      15.045  54.566  51.157  1.00  0.00     0.150 C 
BRANCH  16  17
HETATM   17  C   UNL     1      13.876  54.954  52.089  1.00  0.00     0.254 C 
BRANCH  17  18
HETATM   18  N   UNL     1      14.303  55.708  53.339  1.00  0.00    -0.070 N 
HETATM   19  H   UNL     1      14.465  54.981  54.064  1.00  0.00     0.279 HD
HETATM   20  C   UNL     1      15.585  56.495  53.175  1.00  0.00     0.235 C 
HETATM   21  C   UNL     1      15.972  57.143  54.496  1.00  0.00     0.028 C 
HETATM   22  C   UNL     1      14.859  58.029  55.036  1.00  0.00     0.003 C 
HETATM   23  C   UNL     1      13.559  57.245  55.154  1.00  0.00     0.028 C 
HETATM   24  C   UNL     1      13.174  56.592  53.835  1.00  0.00     0.235 C 
ENDBRANCH  17  18
ENDBRANCH  16  17
ENDBRANCH  13  16
ENDBRANCH  11  12
ENDBRANCH   3  11
BRANCH   1  25
HETATM   25  C   UNL     1      18.953  50.019  48.509  1.00  0.00    -0.030 A 
HETATM   26  C   UNL     1      20.180  50.395  47.921  1.00  0.00     0.016 A 
HETATM   27  C   UNL     1      21.250  50.859  48.702  1.00  0.00    -0.061 A 
HETATM   28  C   UNL     1      22.552  51.260  48.068  1.00  0.00     0.048 C 
HETATM   29  C   UNL     1      21.120  50.882  50.092  1.00  0.00     0.007 A 
HETATM   30  C   UNL     1      19.930  50.480  50.694  1.00  0.00     0.001 A 
HETATM   31  C   UNL     1      18.852  50.062  49.911  1.00  0.00     0.009 A 
ENDBRANCH   1  25
BRANCH  10  32
HETATM   32  C   UNL     1      18.267  47.136  47.199  1.00  0.00     0.294 C 
HETATM   33  O   UNL     1      17.355  46.340  47.030  1.00  0.00    -0.259 OA
BRANCH  32  34
HETATM   34  O   UNL     1      19.416  46.934  47.863  1.00  0.00    -0.313 OA
BRANCH  34  35
HETATM   35  C   UNL     1      20.668  46.858  47.137  1.00  0.00     0.124 C 
HETATM   36  C   UNL     1      21.865  47.137  48.037  1.00  0.00     0.040 C 
HETATM   37  C   UNL     1      20.797  45.552  46.357  1.00  0.00     0.040 C 
ENDBRANCH  34  35
ENDBRANCH  32  34
ENDBRANCH  10  32
TORSDOF 9
ENDMDL
MODEL 9
REMARK VINA RESULT:      -7.2      4.651     10.679
REMARK  9 active torsions:
REMARK  status: ('A' for Active; 'I' for Inactive)
REMARK    1  A    between atoms: C_4  and  C_5 
REMARK    2  A    between atoms: C_7  and  C_8 
REMARK    3  A    between atoms: C_8  and  C_9 
REMARK       I    between atoms: C_9  and  N_10 
REMARK    4  A    between atoms: N_10  and  C_11 
REMARK    5  A    between atoms: C_11  and  C_12 
REMARK    6  A    between atoms: C_12  and  N_13 
REMARK    7  A    between atoms: C_27  and  C_28 
REMARK    8  A    between atoms: C_28  and  O_29 
REMARK    9  A    between atoms: O_29  and  C_30 
ROOT
HETATM    1  C   UNL     1      18.689  49.798  46.321  1.00  0.00     0.166 C 
HETATM    2  N   UNL     1      18.807  48.420  46.835  1.00  0.00    -0.319 N 
HETATM    3  C   UNL     1      19.695  47.794  47.531  1.00  0.00     0.011 C 
HETATM    4  C   UNL     1      17.568  47.541  46.559  1.00  0.00     0.170 C 
HETATM    5  S   UNL     1      17.619  46.064  47.462  1.00  0.00    -0.086 SA
HETATM    6  C   UNL     1      19.346  46.376  47.922  1.00  0.00     0.135 C 
HETATM    7  N   UNL     1      16.630  47.828  45.731  1.00  0.00    -0.229 NA
HETATM    8  C   UNL     1      16.781  48.944  44.933  1.00  0.00     0.048 C 
HETATM    9  C   UNL     1      15.836  48.960  43.751  1.00  0.00     0.071 C 
HETATM   10  C   UNL     1      17.742  49.870  45.150  1.00  0.00     0.069 C 
ENDROOT
BRANCH   3  11
HETATM   11  C   UNL     1      21.022  48.402  47.880  1.00  0.00     0.156 C 
BRANCH  11  12
HETATM   12  C   UNL     1      22.122  47.363  48.002  1.00  0.00     0.223 C 
HETATM   13  N   UNL     1      22.728  47.298  49.229  1.00  0.00    -0.359 N 
HETATM   14  H   UNL     1      22.510  48.036  49.896  1.00  0.00     0.162 HD
HETATM   15  O   UNL     1      22.413  46.626  47.063  1.00  0.00    -0.273 OA
BRANCH  13  16
HETATM   16  C   UNL     1      23.933  46.536  49.573  1.00  0.00     0.150 C 
BRANCH  16  17
HETATM   17  C   UNL     1      25.021  47.207  50.441  1.00  0.00     0.254 C 
BRANCH  17  18
HETATM   18  N   UNL     1      25.597  46.304  51.520  1.00  0.00    -0.070 N 
HETATM   19  H   UNL     1      26.491  45.939  51.133  1.00  0.00     0.279 HD
HETATM   20  C   UNL     1      25.909  47.016  52.818  1.00  0.00     0.235 C 
HETATM   21  C   UNL     1      26.555  46.051  53.801  1.00  0.00     0.028 C 
HETATM   22  C   UNL     1      25.680  44.832  54.050  1.00  0.00     0.003 C 
HETATM   23  C   UNL     1      25.329  44.145  52.737  1.00  0.00     0.028 C 
HETATM   24  C   UNL     1      24.689  45.111  51.751  1.00  0.00     0.235 C 
ENDBRANCH  17  18
ENDBRANCH  16  17
ENDBRANCH  13  16
ENDBRANCH  11  12
ENDBRANCH   3  11
BRANCH   1  25
HETATM   25  C   UNL     1      18.304  50.775  47.435  1.00  0.00    -0.030 A 
HETATM   26  C   UNL     1      16.977  50.948  47.884  1.00  0.00     0.016 A 
HETATM   27  C   UNL     1      16.669  51.848  48.917  1.00  0.00    -0.061 A 
HETATM   28  C   UNL     1      15.254  52.024  49.392  1.00  0.00     0.048 C 
HETATM   29  C   UNL     1      17.686  52.638  49.459  1.00  0.00     0.007 A 
HETATM   30  C   UNL     1      18.995  52.508  49.003  1.00  0.00     0.001 A 
HETATM   31  C   UNL     1      19.305  51.580  48.007  1.00  0.00     0.009 A 
ENDBRANCH   1  25
BRANCH  10  32
HETATM   32  C   UNL     1      18.090  50.965  44.207  1.00  0.00     0.294 C 
HETATM   33  O   UNL     1      18.714  50.714  43.187  1.00  0.00    -0.259 OA
BRANCH  32  34
HETATM   34  O   UNL     1      17.661  52.165  44.628  1.00  0.00    -0.313 OA
BRANCH  34  35
HETATM   35  C   UNL     1      16.419  52.710  44.117  1.00  0.00     0.124 C 
HETATM   36  C   UNL     1      15.487  53.151  45.238  1.00  0.00     0.040 C 
HETATM   37  C   UNL     1      16.659  53.799  43.074  1.00  0.00     0.040 C 
ENDBRANCH  34  35
ENDBRANCH  32  34
ENDBRANCH  10  32
TORSDOF 9
ENDMDL
MODEL 10
REMARK VINA RESULT:      -7.1     19.195     22.501
REMARK  9 active torsions:
REMARK  status: ('A' for Active; 'I' for Inactive)
REMARK    1  A    between atoms: C_4  and  C_5 
REMARK    2  A    between atoms: C_7  and  C_8 
REMARK    3  A    between atoms: C_8  and  C_9 
REMARK       I    between atoms: C_9  and  N_10 
REMARK    4  A    between atoms: N_10  and  C_11 
REMARK    5  A    between atoms: C_11  and  C_12 
REMARK    6  A    between atoms: C_12  and  N_13 
REMARK    7  A    between atoms: C_27  and  C_28 
REMARK    8  A    between atoms: C_28  and  O_29 
REMARK    9  A    between atoms: O_29  and  C_30 
ROOT
HETATM    1  C   UNL     1      39.884  45.282  65.941  1.00  0.00     0.166 C 
HETATM    2  N   UNL     1      41.301  45.081  65.584  1.00  0.00    -0.319 N 
HETATM    3  C   UNL     1      42.148  44.126  65.772  1.00  0.00     0.011 C 
HETATM    4  C   UNL     1      41.897  46.219  64.727  1.00  0.00     0.170 C 
HETATM    5  S   UNL     1      43.436  45.780  64.065  1.00  0.00    -0.086 SA
HETATM    6  C   UNL     1      43.505  44.313  65.131  1.00  0.00     0.135 C 
HETATM    7  N   UNL     1      41.359  47.372  64.555  1.00  0.00    -0.229 NA
HETATM    8  C   UNL     1      40.222  47.677  65.275  1.00  0.00     0.048 C 
HETATM    9  C   UNL     1      39.914  49.158  65.296  1.00  0.00     0.071 C 
HETATM   10  C   UNL     1      39.521  46.745  65.959  1.00  0.00     0.069 C 
ENDROOT
BRANCH   3  11
HETATM   11  C   UNL     1      41.840  42.931  66.625  1.00  0.00     0.156 C 
BRANCH  11  12
HETATM   12  C   UNL     1      41.735  41.651  65.815  1.00  0.00     0.223 C 
HETATM   13  N   UNL     1      40.682  41.601  64.941  1.00  0.00    -0.359 N 
HETATM   14  H   UNL     1      39.980  42.337  65.012  1.00  0.00     0.162 HD
HETATM   15  O   UNL     1      42.562  40.750  65.932  1.00  0.00    -0.273 OA
BRANCH  13  16
HETATM   16  C   UNL     1      40.226  40.432  64.181  1.00  0.00     0.150 C 
BRANCH  16  17
HETATM   17  C   UNL     1      39.619  39.233  64.944  1.00  0.00     0.254 C 
BRANCH  17  18
HETATM   18  N   UNL     1      40.649  38.232  65.445  1.00  0.00    -0.070 N 
HETATM   19  H   UNL     1      41.275  38.768  66.079  1.00  0.00     0.279 HD
HETATM   20  C   UNL     1      40.058  37.085  66.236  1.00  0.00     0.235 C 
HETATM   21  C   UNL     1      41.169  36.187  66.763  1.00  0.00     0.028 C 
HETATM   22  C   UNL     1      42.055  35.671  65.638  1.00  0.00     0.003 C 
HETATM   23  C   UNL     1      42.608  36.826  64.816  1.00  0.00     0.028 C 
HETATM   24  C   UNL     1      41.499  37.728  64.295  1.00  0.00     0.235 C 
ENDBRANCH  17  18
ENDBRANCH  16  17
ENDBRANCH  13  16
ENDBRANCH  11  12
ENDBRANCH   3  11
BRANCH   1  25
HETATM   25  C   UNL     1      38.961  44.471  65.026  1.00  0.00    -0.030 A 
HETATM   26  C   UNL     1      37.973  43.588  65.513  1.00  0.00     0.016 A 
HETATM   27  C   UNL     1      37.140  42.873  64.637  1.00  0.00    -0.061 A 
HETATM   28  C   UNL     1      36.088  41.937  65.164  1.00  0.00     0.048 C 
HETATM   29  C   UNL     1      37.343  42.984  63.260  1.00  0.00     0.007 A 
HETATM   30  C   UNL     1      38.337  43.822  62.761  1.00  0.00     0.001 A 
HETATM   31  C   UNL     1      39.133  44.566  63.633  1.00  0.00     0.009 A 
ENDBRANCH   1  25
BRANCH  10  32
HETATM   32  C   UNL     1      38.428  47.045  66.920  1.00  0.00     0.294 C 
HETATM   33  O   UNL     1      38.423  46.515  68.021  1.00  0.00    -0.259 OA
BRANCH  32  34
HETATM   34  O   UNL     1      37.522  47.902  66.421  1.00  0.00    -0.313 OA
BRANCH  34  35
HETATM   35  C   UNL     1      36.352  47.397  65.731  1.00  0.00     0.124 C 
HETATM   36  C   UNL     1      36.608  47.207  64.241  1.00  0.00     0.040 C 
HETATM   37  C   UNL     1      35.785  46.149  66.404  1.00  0.00     0.040 C 
ENDBRANCH  34  35
ENDBRANCH  32  34
ENDBRANCH  10  32
TORSDOF 9
ENDMDL
