MODEL 1
REMARK VINA RESULT:      -7.2      0.000      0.000
REMARK  10 active torsions:
REMARK  status: ('A' for Active; 'I' for Inactive)
REMARK    1  A    between atoms: O_2  and  C_3 
REMARK    2  A    between atoms: C_6  and  C_7 
REMARK       I    between atoms: C_7  and  N_8 
REMARK    3  A    between atoms: N_8  and  C_9 
REMARK    4  A    between atoms: C_9  and  N_10 
REMARK    5  A    between atoms: N_10  and  C_11 
REMARK    6  A    between atoms: C_12  and  C_13 
REMARK       I    between atoms: C_13  and  N_14 
REMARK    7  A    between atoms: N_14  and  C_15 
REMARK    8  A    between atoms: C_15  and  C_16 
REMARK    9  A    between atoms: C_16  and  C_17 
REMARK   10  A    between atoms: C_17  and  O_18 
ROOT
HETATM    1  N   UNL     1      31.020  49.835  39.275  1.00  0.00    -0.332 N 
HETATM    2  H   UNL     1      31.430  49.876  38.350  1.00  0.00     0.168 HD
ENDROOT
BRANCH   1   3
HETATM    3  C   UNL     1      30.428  48.618  39.550  1.00  0.00     0.179 C 
HETATM    4  S   UNL     1      29.386  47.748  38.566  1.00  0.00    -0.040 SA
BRANCH   3   5
HETATM    5  N   UNL     1      30.861  47.979  40.701  1.00  0.00    -0.299 N 
HETATM    6  C   UNL     1      32.153  47.974  41.182  1.00  0.00     0.257 C 
HETATM    7  O   UNL     1      32.891  47.003  41.064  1.00  0.00    -0.267 OA
HETATM    8  H   UNL     1      30.450  47.053  40.716  1.00  0.00     0.171 HD
BRANCH   6   9
HETATM    9  C   UNL     1      32.630  49.199  41.862  1.00  0.00     0.032 A 
HETATM   10  C   UNL     1      31.835  49.832  42.822  1.00  0.00     0.020 A 
HETATM   11  C   UNL     1      32.355  50.908  43.549  1.00  0.00     0.038 A 
HETATM   12  C   UNL     1      33.657  51.346  43.301  1.00  0.00     0.068 A 
HETATM   13  C   UNL     1      34.429  50.747  42.305  1.00  0.00     0.038 A 
HETATM   14  C   UNL     1      33.929  49.651  41.604  1.00  0.00     0.020 A 
BRANCH  12  15
HETATM   15  O   UNL     1      34.223  52.393  43.977  1.00  0.00    -0.356 OA
HETATM   16  C   UNL     1      35.647  52.366  43.907  1.00  0.00     0.210 C 
ENDBRANCH  12  15
ENDBRANCH   6   9
ENDBRANCH   3   5
ENDBRANCH   1   3
BRANCH   1  17
HETATM   17  C   UNL     1      30.667  51.106  39.795  1.00  0.00     0.050 A 
HETATM   18  C   UNL     1      31.521  52.220  39.889  1.00  0.00     0.058 A 
HETATM   19  C   UNL     1      31.043  53.420  40.455  1.00  0.00     0.019 A 
HETATM   20  C   UNL     1      29.731  53.517  40.916  1.00  0.00     0.001 A 
HETATM   21  C   UNL     1      28.872  52.431  40.786  1.00  0.00     0.002 A 
HETATM   22  C   UNL     1      29.332  51.242  40.215  1.00  0.00     0.030 A 
BRANCH  18  23
HETATM   23  C   UNL     1      32.862  52.258  39.249  1.00  0.00     0.253 C 
HETATM   24  N   UNL     1      33.752  53.171  39.784  1.00  0.00    -0.357 N 
HETATM   25  H   UNL     1      33.470  53.734  40.578  1.00  0.00     0.162 HD
HETATM   26  O   UNL     1      33.120  51.535  38.294  1.00  0.00    -0.268 OA
BRANCH  24  27
HETATM   27  C   UNL     1      35.053  53.388  39.192  1.00  0.00     0.125 C 
BRANCH  27  28
HETATM   28  C   UNL     1      36.196  52.977  40.109  1.00  0.00     0.046 C 
BRANCH  28  29
HETATM   29  C   UNL     1      36.864  51.682  39.666  1.00  0.00     0.165 C 
BRANCH  29  30
HETATM   30  O   UNL     1      35.915  50.872  38.981  1.00  0.00    -0.401 OA
HETATM   31  H   UNL     1      35.831  50.040  39.478  1.00  0.00     0.209 HD
ENDBRANCH  29  30
ENDBRANCH  28  29
ENDBRANCH  27  28
ENDBRANCH  24  27
ENDBRANCH  18  23
ENDBRANCH   1  17
TORSDOF 10
ENDMDL
MODEL 2
REMARK VINA RESULT:      -6.9     12.056     14.067
REMARK  10 active torsions:
REMARK  status: ('A' for Active; 'I' for Inactive)
REMARK    1  A    between atoms: O_2  and  C_3 
REMARK    2  A    between atoms: C_6  and  C_7 
REMARK       I    between atoms: C_7  and  N_8 
REMARK    3  A    between atoms: N_8  and  C_9 
REMARK    4  A    between atoms: C_9  and  N_10 
REMARK    5  A    between atoms: N_10  and  C_11 
REMARK    6  A    between atoms: C_12  and  C_13 
REMARK       I    between atoms: C_13  and  N_14 
REMARK    7  A    between atoms: N_14  and  C_15 
REMARK    8  A    between atoms: C_15  and  C_16 
REMARK    9  A    between atoms: C_16  and  C_17 
REMARK   10  A    between atoms: C_17  and  O_18 
ROOT
HETATM    1  N   UNL     1      24.369  47.161  50.192  1.00  0.00    -0.332 N 
HETATM    2  H   UNL     1      23.723  47.523  50.883  1.00  0.00     0.168 HD
ENDROOT
BRANCH   1   3
HETATM    3  C   UNL     1      24.746  45.856  50.435  1.00  0.00     0.179 C 
HETATM    4  S   UNL     1      25.751  44.896  49.498  1.00  0.00    -0.040 SA
BRANCH   3   5
HETATM    5  N   UNL     1      24.370  45.335  51.664  1.00  0.00    -0.299 N 
HETATM    6  C   UNL     1      25.123  44.481  52.441  1.00  0.00     0.257 C 
HETATM    7  O   UNL     1      24.883  43.282  52.514  1.00  0.00    -0.267 OA
HETATM    8  H   UNL     1      23.407  45.027  51.590  1.00  0.00     0.171 HD
BRANCH   6   9
HETATM    9  C   UNL     1      26.248  45.068  53.202  1.00  0.00     0.032 A 
HETATM   10  C   UNL     1      26.167  46.375  53.692  1.00  0.00     0.020 A 
HETATM   11  C   UNL     1      27.181  46.866  54.520  1.00  0.00     0.038 A 
HETATM   12  C   UNL     1      28.269  46.051  54.841  1.00  0.00     0.068 A 
HETATM   13  C   UNL     1      28.374  44.766  54.307  1.00  0.00     0.038 A 
HETATM   14  C   UNL     1      27.348  44.260  53.510  1.00  0.00     0.020 A 
BRANCH  12  15
HETATM   15  O   UNL     1      29.293  46.473  55.645  1.00  0.00    -0.356 OA
HETATM   16  C   UNL     1      30.053  45.380  56.157  1.00  0.00     0.210 C 
ENDBRANCH  12  15
ENDBRANCH   6   9
ENDBRANCH   3   5
ENDBRANCH   1   3
BRANCH   1  17
HETATM   17  C   UNL     1      25.118  48.171  49.534  1.00  0.00     0.050 A 
HETATM   18  C   UNL     1      24.592  49.167  48.692  1.00  0.00     0.058 A 
HETATM   19  C   UNL     1      25.459  50.095  48.080  1.00  0.00     0.019 A 
HETATM   20  C   UNL     1      26.834  50.040  48.307  1.00  0.00     0.001 A 
HETATM   21  C   UNL     1      27.353  49.083  49.172  1.00  0.00     0.002 A 
HETATM   22  C   UNL     1      26.500  48.168  49.793  1.00  0.00     0.030 A 
BRANCH  18  23
HETATM   23  C   UNL     1      23.131  49.410  48.555  1.00  0.00     0.253 C 
HETATM   24  N   UNL     1      22.720  50.710  48.784  1.00  0.00    -0.357 N 
HETATM   25  H   UNL     1      23.410  51.419  49.001  1.00  0.00     0.162 HD
HETATM   26  O   UNL     1      22.366  48.492  48.283  1.00  0.00    -0.268 OA
BRANCH  24  27
HETATM   27  C   UNL     1      21.318  51.065  48.789  1.00  0.00     0.125 C 
BRANCH  27  28
HETATM   28  C   UNL     1      20.688  50.962  50.171  1.00  0.00     0.046 C 
BRANCH  28  29
HETATM   29  C   UNL     1      19.332  50.270  50.145  1.00  0.00     0.165 C 
BRANCH  29  30
HETATM   30  O   UNL     1      19.148  49.546  51.356  1.00  0.00    -0.401 OA
HETATM   31  H   UNL     1      19.064  50.197  52.074  1.00  0.00     0.209 HD
ENDBRANCH  29  30
ENDBRANCH  28  29
ENDBRANCH  27  28
ENDBRANCH  24  27
ENDBRANCH  18  23
ENDBRANCH   1  17
TORSDOF 10
ENDMDL
MODEL 3
REMARK VINA RESULT:      -6.9     12.412     14.426
REMARK  10 active torsions:
REMARK  status: ('A' for Active; 'I' for Inactive)
REMARK    1  A    between atoms: O_2  and  C_3 
REMARK    2  A    between atoms: C_6  and  C_7 
REMARK       I    between atoms: C_7  and  N_8 
REMARK    3  A    between atoms: N_8  and  C_9 
REMARK    4  A    between atoms: C_9  and  N_10 
REMARK    5  A    between atoms: N_10  and  C_11 
REMARK    6  A    between atoms: C_12  and  C_13 
REMARK       I    between atoms: C_13  and  N_14 
REMARK    7  A    between atoms: N_14  and  C_15 
REMARK    8  A    between atoms: C_15  and  C_16 
REMARK    9  A    between atoms: C_16  and  C_17 
REMARK   10  A    between atoms: C_17  and  O_18 
ROOT
HETATM    1  N   UNL     1      24.806  43.498  51.839  1.00  0.00    -0.332 N 
HETATM    2  H   UNL     1      23.927  43.179  52.227  1.00  0.00     0.168 HD
ENDROOT
BRANCH   1   3
HETATM    3  C   UNL     1      25.323  42.636  50.892  1.00  0.00     0.179 C 
HETATM    4  S   UNL     1      25.561  42.941  49.261  1.00  0.00    -0.040 SA
BRANCH   3   5
HETATM    5  N   UNL     1      25.838  41.443  51.375  1.00  0.00    -0.299 N 
HETATM    6  C   UNL     1      27.146  41.025  51.258  1.00  0.00     0.257 C 
HETATM    7  O   UNL     1      27.489  40.170  50.448  1.00  0.00    -0.267 OA
HETATM    8  H   UNL     1      25.184  40.705  51.142  1.00  0.00     0.171 HD
BRANCH   6   9
HETATM    9  C   UNL     1      28.143  41.646  52.158  1.00  0.00     0.032 A 
HETATM   10  C   UNL     1      28.793  42.827  51.788  1.00  0.00     0.020 A 
HETATM   11  C   UNL     1      29.630  43.470  52.704  1.00  0.00     0.038 A 
HETATM   12  C   UNL     1      29.818  42.922  53.975  1.00  0.00     0.068 A 
HETATM   13  C   UNL     1      29.210  41.716  54.323  1.00  0.00     0.038 A 
HETATM   14  C   UNL     1      28.346  41.089  53.426  1.00  0.00     0.020 A 
BRANCH  12  15
HETATM   15  O   UNL     1      30.625  43.503  54.916  1.00  0.00    -0.356 OA
HETATM   16  C   UNL     1      29.960  44.557  55.610  1.00  0.00     0.210 C 
ENDBRANCH  12  15
ENDBRANCH   6   9
ENDBRANCH   3   5
ENDBRANCH   1   3
BRANCH   1  17
HETATM   17  C   UNL     1      25.522  44.370  52.699  1.00  0.00     0.050 A 
HETATM   18  C   UNL     1      25.946  45.672  52.381  1.00  0.00     0.058 A 
HETATM   19  C   UNL     1      26.675  46.421  53.327  1.00  0.00     0.019 A 
HETATM   20  C   UNL     1      26.975  45.885  54.579  1.00  0.00     0.001 A 
HETATM   21  C   UNL     1      26.521  44.614  54.913  1.00  0.00     0.002 A 
HETATM   22  C   UNL     1      25.786  43.870  53.986  1.00  0.00     0.030 A 
BRANCH  18  23
HETATM   23  C   UNL     1      25.503  46.381  51.150  1.00  0.00     0.253 C 
HETATM   24  N   UNL     1      26.436  47.227  50.582  1.00  0.00    -0.357 N 
HETATM   25  H   UNL     1      27.356  47.305  50.998  1.00  0.00     0.162 HD
HETATM   26  O   UNL     1      24.369  46.223  50.712  1.00  0.00    -0.268 OA
BRANCH  24  27
HETATM   27  C   UNL     1      26.104  48.059  49.447  1.00  0.00     0.125 C 
BRANCH  27  28
HETATM   28  C   UNL     1      27.284  48.885  48.953  1.00  0.00     0.046 C 
BRANCH  28  29
HETATM   29  C   UNL     1      26.866  50.262  48.456  1.00  0.00     0.165 C 
BRANCH  29  30
HETATM   30  O   UNL     1      25.908  50.117  47.413  1.00  0.00    -0.401 OA
HETATM   31  H   UNL     1      25.044  49.962  47.832  1.00  0.00     0.209 HD
ENDBRANCH  29  30
ENDBRANCH  28  29
ENDBRANCH  27  28
ENDBRANCH  24  27
ENDBRANCH  18  23
ENDBRANCH   1  17
TORSDOF 10
ENDMDL
MODEL 4
REMARK VINA RESULT:      -6.8      2.624      4.964
REMARK  10 active torsions:
REMARK  status: ('A' for Active; 'I' for Inactive)
REMARK    1  A    between atoms: O_2  and  C_3 
REMARK    2  A    between atoms: C_6  and  C_7 
REMARK       I    between atoms: C_7  and  N_8 
REMARK    3  A    between atoms: N_8  and  C_9 
REMARK    4  A    between atoms: C_9  and  N_10 
REMARK    5  A    between atoms: N_10  and  C_11 
REMARK    6  A    between atoms: C_12  and  C_13 
REMARK       I    between atoms: C_13  and  N_14 
REMARK    7  A    between atoms: N_14  and  C_15 
REMARK    8  A    between atoms: C_15  and  C_16 
REMARK    9  A    between atoms: C_16  and  C_17 
REMARK   10  A    between atoms: C_17  and  O_18 
ROOT
HETATM    1  N   UNL     1      29.245  49.619  41.544  1.00  0.00    -0.332 N 
HETATM    2  H   UNL     1      28.737  49.580  42.419  1.00  0.00     0.168 HD
ENDROOT
BRANCH   1   3
HETATM    3  C   UNL     1      29.926  48.452  41.262  1.00  0.00     0.179 C 
HETATM    4  S   UNL     1      29.566  47.326  40.073  1.00  0.00    -0.040 SA
BRANCH   3   5
HETATM    5  N   UNL     1      31.122  48.269  41.938  1.00  0.00    -0.299 N 
HETATM    6  C   UNL     1      32.380  48.311  41.376  1.00  0.00     0.257 C 
HETATM    7  O   UNL     1      33.027  47.296  41.146  1.00  0.00    -0.267 OA
HETATM    8  H   UNL     1      31.011  47.472  42.555  1.00  0.00     0.171 HD
BRANCH   6   9
HETATM    9  C   UNL     1      32.937  49.644  41.056  1.00  0.00     0.032 A 
HETATM   10  C   UNL     1      33.766  50.303  41.970  1.00  0.00     0.020 A 
HETATM   11  C   UNL     1      34.390  51.498  41.598  1.00  0.00     0.038 A 
HETATM   12  C   UNL     1      34.172  52.027  40.324  1.00  0.00     0.068 A 
HETATM   13  C   UNL     1      33.303  51.395  39.434  1.00  0.00     0.038 A 
HETATM   14  C   UNL     1      32.707  50.185  39.787  1.00  0.00     0.020 A 
BRANCH  12  15
HETATM   15  O   UNL     1      34.752  53.192  39.902  1.00  0.00    -0.356 OA
HETATM   16  C   UNL     1      36.046  52.971  39.342  1.00  0.00     0.210 C 
ENDBRANCH  12  15
ENDBRANCH   6   9
ENDBRANCH   3   5
ENDBRANCH   1   3
BRANCH   1  17
HETATM   17  C   UNL     1      29.583  50.938  41.144  1.00  0.00     0.050 A 
HETATM   18  C   UNL     1      29.305  51.512  39.891  1.00  0.00     0.058 A 
HETATM   19  C   UNL     1      29.724  52.831  39.619  1.00  0.00     0.019 A 
HETATM   20  C   UNL     1      30.405  53.574  40.582  1.00  0.00     0.001 A 
HETATM   21  C   UNL     1      30.644  53.024  41.836  1.00  0.00     0.002 A 
HETATM   22  C   UNL     1      30.221  51.723  42.120  1.00  0.00     0.030 A 
BRANCH  18  23
HETATM   23  C   UNL     1      28.421  50.860  38.888  1.00  0.00     0.253 C 
HETATM   24  N   UNL     1      27.067  50.934  39.153  1.00  0.00    -0.357 N 
HETATM   25  H   UNL     1      26.746  51.434  39.973  1.00  0.00     0.162 HD
HETATM   26  O   UNL     1      28.896  50.281  37.919  1.00  0.00    -0.268 OA
BRANCH  24  27
HETATM   27  C   UNL     1      26.100  50.253  38.320  1.00  0.00     0.125 C 
BRANCH  27  28
HETATM   28  C   UNL     1      25.164  49.353  39.115  1.00  0.00     0.046 C 
BRANCH  28  29
HETATM   29  C   UNL     1      25.906  48.257  39.867  1.00  0.00     0.165 C 
BRANCH  29  30
HETATM   30  O   UNL     1      26.331  48.756  41.131  1.00  0.00    -0.401 OA
HETATM   31  H   UNL     1      27.093  48.222  41.412  1.00  0.00     0.209 HD
ENDBRANCH  29  30
ENDBRANCH  28  29
ENDBRANCH  27  28
ENDBRANCH  24  27
ENDBRANCH  18  23
ENDBRANCH   1  17
TORSDOF 10
ENDMDL
MODEL 5
REMARK VINA RESULT:      -6.8     12.159     15.015
REMARK  10 active torsions:
REMARK  status: ('A' for Active; 'I' for Inactive)
REMARK    1  A    between atoms: O_2  and  C_3 
REMARK    2  A    between atoms: C_6  and  C_7 
REMARK       I    between atoms: C_7  and  N_8 
REMARK    3  A    between atoms: N_8  and  C_9 
REMARK    4  A    between atoms: C_9  and  N_10 
REMARK    5  A    between atoms: N_10  and  C_11 
REMARK    6  A    between atoms: C_12  and  C_13 
REMARK       I    between atoms: C_13  and  N_14 
REMARK    7  A    between atoms: N_14  and  C_15 
REMARK    8  A    between atoms: C_15  and  C_16 
REMARK    9  A    between atoms: C_16  and  C_17 
REMARK   10  A    between atoms: C_17  and  O_18 
ROOT
HETATM    1  N   UNL     1      25.951  43.090  52.173  1.00  0.00    -0.332 N 
HETATM    2  H   UNL     1      25.398  42.244  52.125  1.00  0.00     0.168 HD
ENDROOT
BRANCH   1   3
HETATM    3  C   UNL     1      25.459  44.102  51.373  1.00  0.00     0.179 C 
HETATM    4  S   UNL     1      25.188  44.051  49.719  1.00  0.00    -0.040 SA
BRANCH   3   5
HETATM    5  N   UNL     1      24.999  45.230  52.036  1.00  0.00    -0.299 N 
HETATM    6  C   UNL     1      25.590  46.474  52.013  1.00  0.00     0.257 C 
HETATM    7  O   UNL     1      26.248  46.903  52.954  1.00  0.00    -0.267 OA
HETATM    8  H   UNL     1      24.739  44.953  52.976  1.00  0.00     0.171 HD
BRANCH   6   9
HETATM    9  C   UNL     1      25.399  47.296  50.797  1.00  0.00     0.032 A 
HETATM   10  C   UNL     1      24.116  47.523  50.289  1.00  0.00     0.020 A 
HETATM   11  C   UNL     1      23.943  48.408  49.221  1.00  0.00     0.038 A 
HETATM   12  C   UNL     1      25.053  49.047  48.664  1.00  0.00     0.068 A 
HETATM   13  C   UNL     1      26.337  48.777  49.137  1.00  0.00     0.038 A 
HETATM   14  C   UNL     1      26.511  47.924  50.225  1.00  0.00     0.020 A 
BRANCH  12  15
HETATM   15  O   UNL     1      24.949  49.922  47.617  1.00  0.00    -0.356 OA
HETATM   16  C   UNL     1      23.660  50.530  47.556  1.00  0.00     0.210 C 
ENDBRANCH  12  15
ENDBRANCH   6   9
ENDBRANCH   3   5
ENDBRANCH   1   3
BRANCH   1  17
HETATM   17  C   UNL     1      27.299  42.867  52.554  1.00  0.00     0.050 A 
HETATM   18  C   UNL     1      28.094  41.776  52.160  1.00  0.00     0.058 A 
HETATM   19  C   UNL     1      29.416  41.665  52.638  1.00  0.00     0.019 A 
HETATM   20  C   UNL     1      29.946  42.630  53.494  1.00  0.00     0.001 A 
HETATM   21  C   UNL     1      29.177  43.732  53.853  1.00  0.00     0.002 A 
HETATM   22  C   UNL     1      27.871  43.857  53.373  1.00  0.00     0.030 A 
BRANCH  18  23
HETATM   23  C   UNL     1      27.671  40.816  51.105  1.00  0.00     0.253 C 
HETATM   24  N   UNL     1      28.698  40.169  50.443  1.00  0.00    -0.357 N 
HETATM   25  H   UNL     1      29.657  40.350  50.714  1.00  0.00     0.162 HD
HETATM   26  O   UNL     1      26.485  40.654  50.846  1.00  0.00    -0.268 OA
BRANCH  24  27
HETATM   27  C   UNL     1      28.435  39.291  49.325  1.00  0.00     0.125 C 
BRANCH  27  28
HETATM   28  C   UNL     1      28.554  37.817  49.690  1.00  0.00     0.046 C 
BRANCH  28  29
HETATM   29  C   UNL     1      27.222  37.085  49.602  1.00  0.00     0.165 C 
BRANCH  29  30
HETATM   30  O   UNL     1      26.214  37.858  50.244  1.00  0.00    -0.401 OA
HETATM   31  H   UNL     1      25.362  37.423  50.074  1.00  0.00     0.209 HD
ENDBRANCH  29  30
ENDBRANCH  28  29
ENDBRANCH  27  28
ENDBRANCH  24  27
ENDBRANCH  18  23
ENDBRANCH   1  17
TORSDOF 10
ENDMDL
MODEL 6
REMARK VINA RESULT:      -6.5     14.294     15.491
REMARK  10 active torsions:
REMARK  status: ('A' for Active; 'I' for Inactive)
REMARK    1  A    between atoms: O_2  and  C_3 
REMARK    2  A    between atoms: C_6  and  C_7 
REMARK       I    between atoms: C_7  and  N_8 
REMARK    3  A    between atoms: N_8  and  C_9 
REMARK    4  A    between atoms: C_9  and  N_10 
REMARK    5  A    between atoms: N_10  and  C_11 
REMARK    6  A    between atoms: C_12  and  C_13 
REMARK       I    between atoms: C_13  and  N_14 
REMARK    7  A    between atoms: N_14  and  C_15 
REMARK    8  A    between atoms: C_15  and  C_16 
REMARK    9  A    between atoms: C_16  and  C_17 
REMARK   10  A    between atoms: C_17  and  O_18 
ROOT
HETATM    1  N   UNL     1      25.848  43.024  51.250  1.00  0.00    -0.332 N 
HETATM    2  H   UNL     1      25.619  42.655  52.165  1.00  0.00     0.168 HD
ENDROOT
BRANCH   1   3
HETATM    3  C   UNL     1      26.241  44.348  51.285  1.00  0.00     0.179 C 
HETATM    4  S   UNL     1      26.831  45.267  50.014  1.00  0.00    -0.040 SA
BRANCH   3   5
HETATM    5  N   UNL     1      25.976  45.028  52.464  1.00  0.00    -0.299 N 
HETATM    6  C   UNL     1      26.027  44.491  53.732  1.00  0.00     0.257 C 
HETATM    7  O   UNL     1      25.015  44.196  54.357  1.00  0.00    -0.267 OA
HETATM    8  H   UNL     1      25.139  45.581  52.321  1.00  0.00     0.171 HD
BRANCH   6   9
HETATM    9  C   UNL     1      27.364  44.281  54.329  1.00  0.00     0.032 A 
HETATM   10  C   UNL     1      28.058  43.086  54.112  1.00  0.00     0.020 A 
HETATM   11  C   UNL     1      29.372  42.958  54.571  1.00  0.00     0.038 A 
HETATM   12  C   UNL     1      29.975  44.018  55.252  1.00  0.00     0.068 A 
HETATM   13  C   UNL     1      29.262  45.188  55.514  1.00  0.00     0.038 A 
HETATM   14  C   UNL     1      27.965  45.335  55.027  1.00  0.00     0.020 A 
BRANCH  12  15
HETATM   15  O   UNL     1      31.257  43.953  55.727  1.00  0.00    -0.356 OA
HETATM   16  C   UNL     1      31.293  43.864  57.150  1.00  0.00     0.210 C 
ENDBRANCH  12  15
ENDBRANCH   6   9
ENDBRANCH   3   5
ENDBRANCH   1   3
BRANCH   1  17
HETATM   17  C   UNL     1      25.210  42.338  50.186  1.00  0.00     0.050 A 
HETATM   18  C   UNL     1      25.826  41.427  49.309  1.00  0.00     0.058 A 
HETATM   19  C   UNL     1      25.073  40.835  48.274  1.00  0.00     0.019 A 
HETATM   20  C   UNL     1      23.722  41.138  48.115  1.00  0.00     0.001 A 
HETATM   21  C   UNL     1      23.099  42.006  49.005  1.00  0.00     0.002 A 
HETATM   22  C   UNL     1      23.834  42.587  50.042  1.00  0.00     0.030 A 
BRANCH  18  23
HETATM   23  C   UNL     1      27.202  40.908  49.530  1.00  0.00     0.253 C 
HETATM   24  N   UNL     1      27.708  40.115  48.518  1.00  0.00    -0.357 N 
HETATM   25  H   UNL     1      27.151  39.950  47.688  1.00  0.00     0.162 HD
HETATM   26  O   UNL     1      27.808  41.163  50.564  1.00  0.00    -0.268 OA
BRANCH  24  27
HETATM   27  C   UNL     1      28.990  39.457  48.648  1.00  0.00     0.125 C 
BRANCH  27  28
HETATM   28  C   UNL     1      28.885  38.076  49.279  1.00  0.00     0.046 C 
BRANCH  28  29
HETATM   29  C   UNL     1      29.776  37.923  50.504  1.00  0.00     0.165 C 
BRANCH  29  30
HETATM   30  O   UNL     1      29.486  38.962  51.432  1.00  0.00    -0.401 OA
HETATM   31  H   UNL     1      28.906  39.599  50.983  1.00  0.00     0.209 HD
ENDBRANCH  29  30
ENDBRANCH  28  29
ENDBRANCH  27  28
ENDBRANCH  24  27
ENDBRANCH  18  23
ENDBRANCH   1  17
TORSDOF 10
ENDMDL
MODEL 7
REMARK VINA RESULT:      -6.5     15.497     18.039
REMARK  10 active torsions:
REMARK  status: ('A' for Active; 'I' for Inactive)
REMARK    1  A    between atoms: O_2  and  C_3 
REMARK    2  A    between atoms: C_6  and  C_7 
REMARK       I    between atoms: C_7  and  N_8 
REMARK    3  A    between atoms: N_8  and  C_9 
REMARK    4  A    between atoms: C_9  and  N_10 
REMARK    5  A    between atoms: N_10  and  C_11 
REMARK    6  A    between atoms: C_12  and  C_13 
REMARK       I    between atoms: C_13  and  N_14 
REMARK    7  A    between atoms: N_14  and  C_15 
REMARK    8  A    between atoms: C_15  and  C_16 
REMARK    9  A    between atoms: C_16  and  C_17 
REMARK   10  A    between atoms: C_17  and  O_18 
ROOT
HETATM    1  N   UNL     1      16.644  52.218  46.779  1.00  0.00    -0.332 N 
HETATM    2  H   UNL     1      16.266  53.157  46.765  1.00  0.00     0.168 HD
ENDROOT
BRANCH   1   3
HETATM    3  C   UNL     1      15.779  51.281  46.250  1.00  0.00     0.179 C 
HETATM    4  S   UNL     1      15.409  51.036  44.634  1.00  0.00    -0.040 SA
BRANCH   3   5
HETATM    5  N   UNL     1      15.279  50.346  47.143  1.00  0.00    -0.299 N 
HETATM    6  C   UNL     1      15.460  48.982  47.066  1.00  0.00     0.257 C 
HETATM    7  O   UNL     1      14.576  48.226  46.681  1.00  0.00    -0.267 OA
HETATM    8  H   UNL     1      14.314  50.587  47.339  1.00  0.00     0.171 HD
BRANCH   6   9
HETATM    9  C   UNL     1      16.778  48.446  47.476  1.00  0.00     0.032 A 
HETATM   10  C   UNL     1      17.699  48.019  46.514  1.00  0.00     0.020 A 
HETATM   11  C   UNL     1      18.986  47.642  46.910  1.00  0.00     0.038 A 
HETATM   12  C   UNL     1      19.335  47.685  48.261  1.00  0.00     0.068 A 
HETATM   13  C   UNL     1      18.398  48.060  49.224  1.00  0.00     0.038 A 
HETATM   14  C   UNL     1      17.125  48.472  48.831  1.00  0.00     0.020 A 
BRANCH  12  15
HETATM   15  O   UNL     1      20.577  47.327  48.712  1.00  0.00    -0.356 OA
HETATM   16  C   UNL     1      21.614  48.033  48.033  1.00  0.00     0.210 C 
ENDBRANCH  12  15
ENDBRANCH   6   9
ENDBRANCH   3   5
ENDBRANCH   1   3
BRANCH   1  17
HETATM   17  C   UNL     1      17.632  52.020  47.777  1.00  0.00     0.050 A 
HETATM   18  C   UNL     1      17.473  52.270  49.151  1.00  0.00     0.058 A 
HETATM   19  C   UNL     1      18.553  52.052  50.031  1.00  0.00     0.019 A 
HETATM   20  C   UNL     1      19.776  51.583  49.553  1.00  0.00     0.001 A 
HETATM   21  C   UNL     1      19.924  51.294  48.201  1.00  0.00     0.002 A 
HETATM   22  C   UNL     1      18.855  51.495  47.324  1.00  0.00     0.030 A 
BRANCH  18  23
HETATM   23  C   UNL     1      16.154  52.583  49.761  1.00  0.00     0.253 C 
HETATM   24  N   UNL     1      16.081  53.786  50.439  1.00  0.00    -0.357 N 
HETATM   25  H   UNL     1      16.893  54.392  50.466  1.00  0.00     0.162 HD
HETATM   26  O   UNL     1      15.221  51.793  49.674  1.00  0.00    -0.268 OA
BRANCH  24  27
HETATM   27  C   UNL     1      14.893  54.167  51.169  1.00  0.00     0.125 C 
BRANCH  27  28
HETATM   28  C   UNL     1      14.772  55.673  51.358  1.00  0.00     0.046 C 
BRANCH  28  29
HETATM   29  C   UNL     1      15.195  56.124  52.749  1.00  0.00     0.165 C 
BRANCH  29  30
HETATM   30  O   UNL     1      15.116  55.022  53.647  1.00  0.00    -0.401 OA
HETATM   31  H   UNL     1      15.892  54.459  53.485  1.00  0.00     0.209 HD
ENDBRANCH  29  30
ENDBRANCH  28  29
ENDBRANCH  27  28
ENDBRANCH  24  27
ENDBRANCH  18  23
ENDBRANCH   1  17
TORSDOF 10
ENDMDL
MODEL 8
REMARK VINA RESULT:      -6.5      2.819      6.131
REMARK  10 active torsions:
REMARK  status: ('A' for Active; 'I' for Inactive)
REMARK    1  A    between atoms: O_2  and  C_3 
REMARK    2  A    between atoms: C_6  and  C_7 
REMARK       I    between atoms: C_7  and  N_8 
REMARK    3  A    between atoms: N_8  and  C_9 
REMARK    4  A    between atoms: C_9  and  N_10 
REMARK    5  A    between atoms: N_10  and  C_11 
REMARK    6  A    between atoms: C_12  and  C_13 
REMARK       I    between atoms: C_13  and  N_14 
REMARK    7  A    between atoms: N_14  and  C_15 
REMARK    8  A    between atoms: C_15  and  C_16 
REMARK    9  A    between atoms: C_16  and  C_17 
REMARK   10  A    between atoms: C_17  and  O_18 
ROOT
HETATM    1  N   UNL     1      28.656  49.591  41.088  1.00  0.00    -0.332 N 
HETATM    2  H   UNL     1      27.984  48.836  41.040  1.00  0.00     0.168 HD
ENDROOT
BRANCH   1   3
HETATM    3  C   UNL     1      28.187  50.767  40.537  1.00  0.00     0.179 C 
HETATM    4  S   UNL     1      27.443  52.039  41.337  1.00  0.00    -0.040 SA
BRANCH   3   5
HETATM    5  N   UNL     1      28.501  50.980  39.204  1.00  0.00    -0.299 N 
HETATM    6  C   UNL     1      29.232  52.038  38.708  1.00  0.00     0.257 C 
HETATM    7  O   UNL     1      28.706  52.983  38.132  1.00  0.00    -0.267 OA
HETATM    8  H   UNL     1      27.664  50.811  38.657  1.00  0.00     0.171 HD
BRANCH   6   9
HETATM    9  C   UNL     1      30.700  51.995  38.891  1.00  0.00     0.032 A 
HETATM   10  C   UNL     1      31.302  52.682  39.950  1.00  0.00     0.020 A 
HETATM   11  C   UNL     1      32.671  52.524  40.186  1.00  0.00     0.038 A 
HETATM   12  C   UNL     1      33.425  51.690  39.357  1.00  0.00     0.068 A 
HETATM   13  C   UNL     1      32.832  51.048  38.270  1.00  0.00     0.038 A 
HETATM   14  C   UNL     1      31.461  51.175  38.052  1.00  0.00     0.020 A 
BRANCH  12  15
HETATM   15  O   UNL     1      34.768  51.495  39.535  1.00  0.00    -0.356 OA
HETATM   16  C   UNL     1      35.098  51.287  40.908  1.00  0.00     0.210 C 
ENDBRANCH  12  15
ENDBRANCH   6   9
ENDBRANCH   3   5
ENDBRANCH   1   3
BRANCH   1  17
HETATM   17  C   UNL     1      30.001  49.148  41.167  1.00  0.00     0.050 A 
HETATM   18  C   UNL     1      30.588  48.155  40.363  1.00  0.00     0.058 A 
HETATM   19  C   UNL     1      31.935  47.794  40.570  1.00  0.00     0.019 A 
HETATM   20  C   UNL     1      32.694  48.416  41.560  1.00  0.00     0.001 A 
HETATM   21  C   UNL     1      32.130  49.428  42.328  1.00  0.00     0.002 A 
HETATM   22  C   UNL     1      30.800  49.802  42.122  1.00  0.00     0.030 A 
BRANCH  18  23
HETATM   23  C   UNL     1      29.908  47.586  39.169  1.00  0.00     0.253 C 
HETATM   24  N   UNL     1      29.836  46.206  39.127  1.00  0.00    -0.357 N 
HETATM   25  H   UNL     1      30.211  45.664  39.895  1.00  0.00     0.162 HD
HETATM   26  O   UNL     1      29.477  48.319  38.287  1.00  0.00    -0.268 OA
BRANCH  24  27
HETATM   27  C   UNL     1      29.297  45.517  37.975  1.00  0.00     0.125 C 
BRANCH  27  28
HETATM   28  C   UNL     1      27.921  44.920  38.233  1.00  0.00     0.046 C 
BRANCH  28  29
HETATM   29  C   UNL     1      27.829  44.226  39.585  1.00  0.00     0.165 C 
BRANCH  29  30
HETATM   30  O   UNL     1      28.898  43.294  39.711  1.00  0.00    -0.401 OA
HETATM   31  H   UNL     1      29.137  43.004  38.815  1.00  0.00     0.209 HD
ENDBRANCH  29  30
ENDBRANCH  28  29
ENDBRANCH  27  28
ENDBRANCH  24  27
ENDBRANCH  18  23
ENDBRANCH   1  17
TORSDOF 10
ENDMDL
MODEL 9
REMARK VINA RESULT:      -6.5     13.330     15.838
REMARK  10 active torsions:
REMARK  status: ('A' for Active; 'I' for Inactive)
REMARK    1  A    between atoms: O_2  and  C_3 
REMARK    2  A    between atoms: C_6  and  C_7 
REMARK       I    between atoms: C_7  and  N_8 
REMARK    3  A    between atoms: N_8  and  C_9 
REMARK    4  A    between atoms: C_9  and  N_10 
REMARK    5  A    between atoms: N_10  and  C_11 
REMARK    6  A    between atoms: C_12  and  C_13 
REMARK       I    between atoms: C_13  and  N_14 
REMARK    7  A    between atoms: N_14  and  C_15 
REMARK    8  A    between atoms: C_15  and  C_16 
REMARK    9  A    between atoms: C_16  and  C_17 
REMARK   10  A    between atoms: C_17  and  O_18 
ROOT
HETATM    1  N   UNL     1      21.460  48.311  49.614  1.00  0.00    -0.332 N 
HETATM    2  H   UNL     1      21.512  48.009  50.579  1.00  0.00     0.168 HD
ENDROOT
BRANCH   1   3
HETATM    3  C   UNL     1      20.489  47.646  48.892  1.00  0.00     0.179 C 
HETATM    4  S   UNL     1      20.669  46.881  47.411  1.00  0.00    -0.040 SA
BRANCH   3   5
HETATM    5  N   UNL     1      19.274  47.466  49.533  1.00  0.00    -0.299 N 
HETATM    6  C   UNL     1      18.621  48.407  50.300  1.00  0.00     0.257 C 
HETATM    7  O   UNL     1      18.612  48.359  51.525  1.00  0.00    -0.267 OA
HETATM    8  H   UNL     1      19.292  46.558  49.984  1.00  0.00     0.171 HD
BRANCH   6   9
HETATM    9  C   UNL     1      17.913  49.494  49.587  1.00  0.00     0.032 A 
HETATM   10  C   UNL     1      17.005  49.198  48.566  1.00  0.00     0.020 A 
HETATM   11  C   UNL     1      16.248  50.226  47.996  1.00  0.00     0.038 A 
HETATM   12  C   UNL     1      16.414  51.538  48.443  1.00  0.00     0.068 A 
HETATM   13  C   UNL     1      17.359  51.838  49.424  1.00  0.00     0.038 A 
HETATM   14  C   UNL     1      18.090  50.812  50.021  1.00  0.00     0.020 A 
BRANCH  12  15
HETATM   15  O   UNL     1      15.705  52.588  47.925  1.00  0.00    -0.356 OA
HETATM   16  C   UNL     1      15.117  53.390  48.947  1.00  0.00     0.210 C 
ENDBRANCH  12  15
ENDBRANCH   6   9
ENDBRANCH   3   5
ENDBRANCH   1   3
BRANCH   1  17
HETATM   17  C   UNL     1      22.671  48.870  49.129  1.00  0.00     0.050 A 
HETATM   18  C   UNL     1      23.961  48.358  49.357  1.00  0.00     0.058 A 
HETATM   19  C   UNL     1      25.082  49.033  48.834  1.00  0.00     0.019 A 
HETATM   20  C   UNL     1      24.926  50.200  48.087  1.00  0.00     0.001 A 
HETATM   21  C   UNL     1      23.650  50.686  47.825  1.00  0.00     0.002 A 
HETATM   22  C   UNL     1      22.532  50.016  48.327  1.00  0.00     0.030 A 
BRANCH  18  23
HETATM   23  C   UNL     1      24.196  47.025  49.973  1.00  0.00     0.253 C 
HETATM   24  N   UNL     1      24.982  47.025  51.110  1.00  0.00    -0.357 N 
HETATM   25  H   UNL     1      25.327  47.904  51.476  1.00  0.00     0.162 HD
HETATM   26  O   UNL     1      23.733  46.010  49.464  1.00  0.00    -0.268 OA
BRANCH  24  27
HETATM   27  C   UNL     1      25.379  45.790  51.749  1.00  0.00     0.125 C 
BRANCH  27  28
HETATM   28  C   UNL     1      25.839  45.990  53.187  1.00  0.00     0.046 C 
BRANCH  28  29
HETATM   29  C   UNL     1      25.278  44.938  54.133  1.00  0.00     0.165 C 
BRANCH  29  30
HETATM   30  O   UNL     1      24.848  43.808  53.380  1.00  0.00    -0.401 OA
HETATM   31  H   UNL     1      25.612  43.490  52.871  1.00  0.00     0.209 HD
ENDBRANCH  29  30
ENDBRANCH  28  29
ENDBRANCH  27  28
ENDBRANCH  24  27
ENDBRANCH  18  23
ENDBRANCH   1  17
TORSDOF 10
ENDMDL
MODEL 10
REMARK VINA RESULT:      -6.4     12.099     14.195
REMARK  10 active torsions:
REMARK  status: ('A' for Active; 'I' for Inactive)
REMARK    1  A    between atoms: O_2  and  C_3 
REMARK    2  A    between atoms: C_6  and  C_7 
REMARK       I    between atoms: C_7  and  N_8 
REMARK    3  A    between atoms: N_8  and  C_9 
REMARK    4  A    between atoms: C_9  and  N_10 
REMARK    5  A    between atoms: N_10  and  C_11 
REMARK    6  A    between atoms: C_12  and  C_13 
REMARK       I    between atoms: C_13  and  N_14 
REMARK    7  A    between atoms: N_14  and  C_15 
REMARK    8  A    between atoms: C_15  and  C_16 
REMARK    9  A    between atoms: C_16  and  C_17 
REMARK   10  A    between atoms: C_17  and  O_18 
ROOT
HETATM    1  N   UNL     1      23.574  45.794  50.187  1.00  0.00    -0.332 N 
HETATM    2  H   UNL     1      23.258  45.819  51.148  1.00  0.00     0.168 HD
ENDROOT
BRANCH   1   3
HETATM    3  C   UNL     1      23.622  44.516  49.667  1.00  0.00     0.179 C 
HETATM    4  S   UNL     1      23.732  44.078  48.052  1.00  0.00    -0.040 SA
BRANCH   3   5
HETATM    5  N   UNL     1      23.743  43.490  50.591  1.00  0.00    -0.299 N 
HETATM    6  C   UNL     1      24.914  42.846  50.931  1.00  0.00     0.257 C 
HETATM    7  O   UNL     1      25.186  41.724  50.520  1.00  0.00    -0.267 OA
HETATM    8  H   UNL     1      22.986  42.835  50.429  1.00  0.00     0.171 HD
BRANCH   6   9
HETATM    9  C   UNL     1      25.847  43.562  51.829  1.00  0.00     0.032 A 
HETATM   10  C   UNL     1      25.371  44.222  52.966  1.00  0.00     0.020 A 
HETATM   11  C   UNL     1      26.279  44.778  53.872  1.00  0.00     0.038 A 
HETATM   12  C   UNL     1      27.650  44.681  53.627  1.00  0.00     0.068 A 
HETATM   13  C   UNL     1      28.121  44.069  52.465  1.00  0.00     0.038 A 
HETATM   14  C   UNL     1      27.221  43.481  51.577  1.00  0.00     0.020 A 
BRANCH  12  15
HETATM   15  O   UNL     1      28.589  45.205  54.474  1.00  0.00    -0.356 OA
HETATM   16  C   UNL     1      28.167  46.450  55.030  1.00  0.00     0.210 C 
ENDBRANCH  12  15
ENDBRANCH   6   9
ENDBRANCH   3   5
ENDBRANCH   1   3
BRANCH   1  17
HETATM   17  C   UNL     1      24.375  46.907  49.825  1.00  0.00     0.050 A 
HETATM   18  C   UNL     1      23.975  47.975  49.002  1.00  0.00     0.058 A 
HETATM   19  C   UNL     1      24.888  49.006  48.702  1.00  0.00     0.019 A 
HETATM   20  C   UNL     1      26.183  48.983  49.220  1.00  0.00     0.001 A 
HETATM   21  C   UNL     1      26.569  47.952  50.068  1.00  0.00     0.002 A 
HETATM   22  C   UNL     1      25.667  46.932  50.381  1.00  0.00     0.030 A 
BRANCH  18  23
HETATM   23  C   UNL     1      22.565  48.170  48.573  1.00  0.00     0.253 C 
HETATM   24  N   UNL     1      21.686  48.546  49.571  1.00  0.00    -0.357 N 
HETATM   25  H   UNL     1      22.034  48.693  50.511  1.00  0.00     0.162 HD
HETATM   26  O   UNL     1      22.232  47.976  47.409  1.00  0.00    -0.268 OA
BRANCH  24  27
HETATM   27  C   UNL     1      20.267  48.667  49.317  1.00  0.00     0.125 C 
BRANCH  27  28
HETATM   28  C   UNL     1      19.635  49.846  50.044  1.00  0.00     0.046 C 
BRANCH  28  29
HETATM   29  C   UNL     1      20.510  51.092  50.009  1.00  0.00     0.165 C 
BRANCH  29  30
HETATM   30  O   UNL     1      21.516  50.991  51.011  1.00  0.00    -0.401 OA
HETATM   31  H   UNL     1      22.352  50.778  50.563  1.00  0.00     0.209 HD
ENDBRANCH  29  30
ENDBRANCH  28  29
ENDBRANCH  27  28
ENDBRANCH  24  27
ENDBRANCH  18  23
ENDBRANCH   1  17
TORSDOF 10
ENDMDL
