MODEL 1
REMARK VINA RESULT:      -9.8      0.000      0.000
REMARK  7 active torsions:
REMARK  status: ('A' for Active; 'I' for Inactive)
REMARK    1  A    between atoms: C_4  and  O_5 
REMARK    2  A    between atoms: O_5  and  C_6 
REMARK    3  A    between atoms: C_6  and  C_7 
REMARK       I    between atoms: C_7  and  N_8 
REMARK    4  A    between atoms: N_8  and  N_9 
REMARK       I    between atoms: N_9  and  C_10 
REMARK    5  A    between atoms: C_10  and  C_11 
REMARK    6  A    between atoms: C_13  and  C_14 
REMARK    7  A    between atoms: C_21  and  C_22 
ROOT
HETATM    1  N   UNL     1      25.788  45.806  51.530  1.00  0.00    -0.262 N 
HETATM    2  C   UNL     1      25.345  45.806  50.217  1.00  0.00     0.291 C 
HETATM    3  O   UNL     1      25.420  44.812  49.496  1.00  0.00    -0.264 OA
HETATM    4  H   UNL     1      25.944  46.706  51.981  1.00  0.00     0.190 HD
ENDROOT
BRANCH   2   5
HETATM    5  C   UNL     1      24.775  47.081  49.806  1.00  0.00     0.159 A 
HETATM    6  N   UNL     1      23.425  47.235  49.504  1.00  0.00    -0.216 NA
HETATM    7  C   UNL     1      23.325  48.491  49.111  1.00  0.00     0.180 A 
HETATM    8  O   UNL     1      24.498  49.190  49.178  1.00  0.00    -0.293 OA
HETATM    9  C   UNL     1      25.423  48.287  49.627  1.00  0.00     0.094 A 
BRANCH   7  10
HETATM   10  C   UNL     1      22.162  49.211  48.596  1.00  0.00     0.017 A 
HETATM   11  C   UNL     1      21.996  50.572  48.896  1.00  0.00     0.016 A 
HETATM   12  C   UNL     1      20.879  51.276  48.436  1.00  0.00     0.001 A 
HETATM   13  C   UNL     1      19.912  50.628  47.672  1.00  0.00     0.000 A 
HETATM   14  C   UNL     1      20.062  49.277  47.363  1.00  0.00     0.001 A 
HETATM   15  C   UNL     1      21.180  48.574  47.821  1.00  0.00     0.016 A 
ENDBRANCH   7  10
BRANCH   9  16
HETATM   16  C   UNL     1      26.882  48.617  49.877  1.00  0.00     0.046 A 
HETATM   17  C   UNL     1      27.911  48.066  48.912  1.00  0.00     0.012 A 
HETATM   18  C   UNL     1      27.579  49.517  48.877  1.00  0.00     0.012 A 
ENDBRANCH   9  16
ENDBRANCH   2   5
BRANCH   1  19
HETATM   19  N   UNL     1      26.566  44.713  51.960  1.00  0.00    -0.265 N 
HETATM   20  C   UNL     1      26.111  44.008  53.070  1.00  0.00     0.260 C 
HETATM   21  O   UNL     1      24.977  44.140  53.525  1.00  0.00    -0.269 OA
HETATM   22  H   UNL     1      27.568  44.841  51.839  1.00  0.00     0.190 HD
BRANCH  20  23
HETATM   23  C   UNL     1      27.167  43.059  53.642  1.00  0.00     0.280 C 
BRANCH  23  24
HETATM   24  O   UNL     1      28.471  43.566  53.399  1.00  0.00    -0.342 OA
BRANCH  24  25
HETATM   25  C   UNL     1      29.171  44.037  54.474  1.00  0.00     0.069 A 
HETATM   26  C   UNL     1      30.195  43.368  55.151  1.00  0.00     0.043 A 
HETATM   27  C   UNL     1      30.821  43.962  56.260  1.00  0.00    -0.059 A 
HETATM   28  C   UNL     1      31.923  43.257  56.995  1.00  0.00     0.048 C 
HETATM   29  C   UNL     1      30.426  45.241  56.668  1.00  0.00     0.007 A 
HETATM   30  C   UNL     1      29.413  45.915  55.989  1.00  0.00     0.003 A 
HETATM   31  C   UNL     1      28.789  45.312  54.897  1.00  0.00     0.037 A 
ENDBRANCH  24  25
ENDBRANCH  23  24
ENDBRANCH  20  23
ENDBRANCH   1  19
TORSDOF 7
ENDMDL
MODEL 2
REMARK VINA RESULT:      -9.7      1.983      3.130
REMARK  7 active torsions:
REMARK  status: ('A' for Active; 'I' for Inactive)
REMARK    1  A    between atoms: C_4  and  O_5 
REMARK    2  A    between atoms: O_5  and  C_6 
REMARK    3  A    between atoms: C_6  and  C_7 
REMARK       I    between atoms: C_7  and  N_8 
REMARK    4  A    between atoms: N_8  and  N_9 
REMARK       I    between atoms: N_9  and  C_10 
REMARK    5  A    between atoms: C_10  and  C_11 
REMARK    6  A    between atoms: C_13  and  C_14 
REMARK    7  A    between atoms: C_21  and  C_22 
ROOT
HETATM    1  N   UNL     1      25.229  46.770  51.996  1.00  0.00    -0.262 N 
HETATM    2  C   UNL     1      25.453  47.034  50.655  1.00  0.00     0.291 C 
HETATM    3  O   UNL     1      26.571  46.957  50.146  1.00  0.00    -0.264 OA
HETATM    4  H   UNL     1      24.358  47.102  52.408  1.00  0.00     0.190 HD
ENDROOT
BRANCH   2   5
HETATM    5  C   UNL     1      24.240  47.384  49.929  1.00  0.00     0.159 A 
HETATM    6  N   UNL     1      23.736  48.681  49.894  1.00  0.00    -0.216 NA
HETATM    7  C   UNL     1      22.611  48.570  49.212  1.00  0.00     0.180 A 
HETATM    8  O   UNL     1      22.361  47.307  48.753  1.00  0.00    -0.293 OA
HETATM    9  C   UNL     1      23.407  46.551  49.209  1.00  0.00     0.094 A 
BRANCH   7  10
HETATM   10  C   UNL     1      21.603  49.587  48.915  1.00  0.00     0.017 A 
HETATM   11  C   UNL     1      21.041  49.654  47.631  1.00  0.00     0.016 A 
HETATM   12  C   UNL     1      20.094  50.634  47.315  1.00  0.00     0.001 A 
HETATM   13  C   UNL     1      19.699  51.559  48.278  1.00  0.00     0.000 A 
HETATM   14  C   UNL     1      20.247  51.504  49.559  1.00  0.00     0.001 A 
HETATM   15  C   UNL     1      21.192  50.524  49.875  1.00  0.00     0.016 A 
ENDBRANCH   7  10
BRANCH   9  16
HETATM   16  C   UNL     1      23.572  45.070  48.929  1.00  0.00     0.046 A 
HETATM   17  C   UNL     1      23.341  44.101  50.069  1.00  0.00     0.012 A 
HETATM   18  C   UNL     1      22.330  44.203  48.981  1.00  0.00     0.012 A 
ENDBRANCH   9  16
ENDBRANCH   2   5
BRANCH   1  19
HETATM   19  N   UNL     1      26.350  46.654  52.839  1.00  0.00    -0.265 N 
HETATM   20  C   UNL     1      26.396  47.487  53.954  1.00  0.00     0.260 C 
HETATM   21  O   UNL     1      25.422  48.122  54.350  1.00  0.00    -0.269 OA
HETATM   22  H   UNL     1      27.218  46.440  52.353  1.00  0.00     0.190 HD
BRANCH  20  23
HETATM   23  C   UNL     1      27.775  47.511  54.618  1.00  0.00     0.280 C 
BRANCH  23  24
HETATM   24  O   UNL     1      27.850  46.525  55.637  1.00  0.00    -0.342 OA
BRANCH  24  25
HETATM   25  C   UNL     1      28.758  45.517  55.468  1.00  0.00     0.069 A 
HETATM   26  C   UNL     1      28.724  44.530  54.480  1.00  0.00     0.043 A 
HETATM   27  C   UNL     1      29.714  43.535  54.432  1.00  0.00    -0.059 A 
HETATM   28  C   UNL     1      29.691  42.470  53.375  1.00  0.00     0.048 C 
HETATM   29  C   UNL     1      30.751  43.552  55.373  1.00  0.00     0.007 A 
HETATM   30  C   UNL     1      30.793  44.541  56.354  1.00  0.00     0.003 A 
HETATM   31  C   UNL     1      29.798  45.517  56.400  1.00  0.00     0.037 A 
ENDBRANCH  24  25
ENDBRANCH  23  24
ENDBRANCH  20  23
ENDBRANCH   1  19
TORSDOF 7
ENDMDL
MODEL 3
REMARK VINA RESULT:      -9.6      1.576     10.013
REMARK  7 active torsions:
REMARK  status: ('A' for Active; 'I' for Inactive)
REMARK    1  A    between atoms: C_4  and  O_5 
REMARK    2  A    between atoms: O_5  and  C_6 
REMARK    3  A    between atoms: C_6  and  C_7 
REMARK       I    between atoms: C_7  and  N_8 
REMARK    4  A    between atoms: N_8  and  N_9 
REMARK       I    between atoms: N_9  and  C_10 
REMARK    5  A    between atoms: C_10  and  C_11 
REMARK    6  A    between atoms: C_13  and  C_14 
REMARK    7  A    between atoms: C_21  and  C_22 
ROOT
HETATM    1  N   UNL     1      26.390  46.413  50.589  1.00  0.00    -0.262 N 
HETATM    2  C   UNL     1      25.862  45.470  51.456  1.00  0.00     0.291 C 
HETATM    3  O   UNL     1      24.652  45.266  51.549  1.00  0.00    -0.264 OA
HETATM    4  H   UNL     1      27.349  46.720  50.744  1.00  0.00     0.190 HD
ENDROOT
BRANCH   2   5
HETATM    5  C   UNL     1      26.880  44.752  52.209  1.00  0.00     0.159 A 
HETATM    6  N   UNL     1      27.404  45.232  53.406  1.00  0.00    -0.216 NA
HETATM    7  C   UNL     1      28.331  44.349  53.728  1.00  0.00     0.180 A 
HETATM    8  O   UNL     1      28.424  43.298  52.858  1.00  0.00    -0.293 OA
HETATM    9  C   UNL     1      27.491  43.556  51.891  1.00  0.00     0.094 A 
BRANCH   7  10
HETATM   10  C   UNL     1      29.273  44.360  54.846  1.00  0.00     0.017 A 
HETATM   11  C   UNL     1      30.155  43.283  55.023  1.00  0.00     0.016 A 
HETATM   12  C   UNL     1      31.048  43.258  56.099  1.00  0.00     0.001 A 
HETATM   13  C   UNL     1      31.068  44.308  57.013  1.00  0.00     0.000 A 
HETATM   14  C   UNL     1      30.199  45.386  56.851  1.00  0.00     0.001 A 
HETATM   15  C   UNL     1      29.309  45.412  55.774  1.00  0.00     0.016 A 
ENDBRANCH   7  10
BRANCH   9  16
HETATM   16  C   UNL     1      27.216  42.644  50.710  1.00  0.00     0.046 A 
HETATM   17  C   UNL     1      27.882  41.284  50.692  1.00  0.00     0.012 A 
HETATM   18  C   UNL     1      26.422  41.380  50.971  1.00  0.00     0.012 A 
ENDBRANCH   9  16
ENDBRANCH   2   5
BRANCH   1  19
HETATM   19  N   UNL     1      25.500  47.325  49.988  1.00  0.00    -0.265 N 
HETATM   20  C   UNL     1      26.056  48.332  49.205  1.00  0.00     0.260 C 
HETATM   21  O   UNL     1      27.226  48.316  48.831  1.00  0.00    -0.269 OA
HETATM   22  H   UNL     1      24.679  47.538  50.550  1.00  0.00     0.190 HD
BRANCH  20  23
HETATM   23  C   UNL     1      25.053  49.437  48.864  1.00  0.00     0.280 C 
BRANCH  23  24
HETATM   24  O   UNL     1      23.893  49.319  49.674  1.00  0.00    -0.342 OA
BRANCH  24  25
HETATM   25  C   UNL     1      22.684  49.537  49.074  1.00  0.00     0.069 A 
HETATM   26  C   UNL     1      21.908  50.695  49.174  1.00  0.00     0.043 A 
HETATM   27  C   UNL     1      20.668  50.780  48.518  1.00  0.00    -0.059 A 
HETATM   28  C   UNL     1      19.826  52.018  48.615  1.00  0.00     0.048 C 
HETATM   29  C   UNL     1      20.225  49.701  47.744  1.00  0.00     0.007 A 
HETATM   30  C   UNL     1      21.002  48.549  47.634  1.00  0.00     0.003 A 
HETATM   31  C   UNL     1      22.225  48.470  48.299  1.00  0.00     0.037 A 
ENDBRANCH  24  25
ENDBRANCH  23  24
ENDBRANCH  20  23
ENDBRANCH   1  19
TORSDOF 7
ENDMDL
MODEL 4
REMARK VINA RESULT:      -9.5      2.035      9.689
REMARK  7 active torsions:
REMARK  status: ('A' for Active; 'I' for Inactive)
REMARK    1  A    between atoms: C_4  and  O_5 
REMARK    2  A    between atoms: O_5  and  C_6 
REMARK    3  A    between atoms: C_6  and  C_7 
REMARK       I    between atoms: C_7  and  N_8 
REMARK    4  A    between atoms: N_8  and  N_9 
REMARK       I    between atoms: N_9  and  C_10 
REMARK    5  A    between atoms: C_10  and  C_11 
REMARK    6  A    between atoms: C_13  and  C_14 
REMARK    7  A    between atoms: C_21  and  C_22 
ROOT
HETATM    1  N   UNL     1      24.759  45.025  50.609  1.00  0.00    -0.262 N 
HETATM    2  C   UNL     1      24.751  43.795  51.246  1.00  0.00     0.291 C 
HETATM    3  O   UNL     1      23.755  43.071  51.267  1.00  0.00    -0.264 OA
HETATM    4  H   UNL     1      25.502  45.680  50.847  1.00  0.00     0.190 HD
ENDROOT
BRANCH   2   5
HETATM    5  C   UNL     1      26.029  43.456  51.853  1.00  0.00     0.159 A 
HETATM    6  N   UNL     1      26.502  44.082  53.003  1.00  0.00    -0.216 NA
HETATM    7  C   UNL     1      27.700  43.558  53.186  1.00  0.00     0.180 A 
HETATM    8  O   UNL     1      28.032  42.598  52.270  1.00  0.00    -0.293 OA
HETATM    9  C   UNL     1      26.960  42.531  51.422  1.00  0.00     0.094 A 
BRANCH   7  10
HETATM   10  C   UNL     1      28.709  43.880  54.192  1.00  0.00     0.017 A 
HETATM   11  C   UNL     1      28.635  45.097  54.887  1.00  0.00     0.016 A 
HETATM   12  C   UNL     1      29.604  45.440  55.836  1.00  0.00     0.001 A 
HETATM   13  C   UNL     1      30.659  44.571  56.101  1.00  0.00     0.000 A 
HETATM   14  C   UNL     1      30.746  43.357  55.421  1.00  0.00     0.001 A 
HETATM   15  C   UNL     1      29.777  43.014  54.474  1.00  0.00     0.016 A 
ENDBRANCH   7  10
BRANCH   9  16
HETATM   16  C   UNL     1      26.865  41.581  50.244  1.00  0.00     0.046 A 
HETATM   17  C   UNL     1      27.758  40.358  50.244  1.00  0.00     0.012 A 
HETATM   18  C   UNL     1      26.300  40.198  50.502  1.00  0.00     0.012 A 
ENDBRANCH   9  16
ENDBRANCH   2   5
BRANCH   1  19
HETATM   19  N   UNL     1      23.524  45.559  50.194  1.00  0.00    -0.265 N 
HETATM   20  C   UNL     1      23.206  45.450  48.843  1.00  0.00     0.260 C 
HETATM   21  O   UNL     1      23.823  44.721  48.071  1.00  0.00    -0.269 OA
HETATM   22  H   UNL     1      23.241  46.397  50.697  1.00  0.00     0.190 HD
BRANCH  20  23
HETATM   23  C   UNL     1      22.015  46.324  48.444  1.00  0.00     0.280 C 
BRANCH  23  24
HETATM   24  O   UNL     1      22.418  47.310  47.505  1.00  0.00    -0.342 OA
BRANCH  24  25
HETATM   25  C   UNL     1      22.401  48.614  47.918  1.00  0.00     0.069 A 
HETATM   26  C   UNL     1      21.281  49.444  47.991  1.00  0.00     0.043 A 
HETATM   27  C   UNL     1      21.408  50.777  48.416  1.00  0.00    -0.059 A 
HETATM   28  C   UNL     1      20.212  51.680  48.501  1.00  0.00     0.048 C 
HETATM   29  C   UNL     1      22.668  51.262  48.788  1.00  0.00     0.007 A 
HETATM   30  C   UNL     1      23.786  50.432  48.725  1.00  0.00     0.003 A 
HETATM   31  C   UNL     1      23.651  49.115  48.291  1.00  0.00     0.037 A 
ENDBRANCH  24  25
ENDBRANCH  23  24
ENDBRANCH  20  23
ENDBRANCH   1  19
TORSDOF 7
ENDMDL
MODEL 5
REMARK VINA RESULT:      -9.0      1.671      2.860
REMARK  7 active torsions:
REMARK  status: ('A' for Active; 'I' for Inactive)
REMARK    1  A    between atoms: C_4  and  O_5 
REMARK    2  A    between atoms: O_5  and  C_6 
REMARK    3  A    between atoms: C_6  and  C_7 
REMARK       I    between atoms: C_7  and  N_8 
REMARK    4  A    between atoms: N_8  and  N_9 
REMARK       I    between atoms: N_9  and  C_10 
REMARK    5  A    between atoms: C_10  and  C_11 
REMARK    6  A    between atoms: C_13  and  C_14 
REMARK    7  A    between atoms: C_21  and  C_22 
ROOT
HETATM    1  N   UNL     1      24.644  46.026  51.550  1.00  0.00    -0.262 N 
HETATM    2  C   UNL     1      24.990  46.893  50.526  1.00  0.00     0.291 C 
HETATM    3  O   UNL     1      26.147  47.275  50.349  1.00  0.00    -0.264 OA
HETATM    4  H   UNL     1      23.660  45.959  51.806  1.00  0.00     0.190 HD
ENDROOT
BRANCH   2   5
HETATM    5  C   UNL     1      23.860  47.274  49.692  1.00  0.00     0.159 A 
HETATM    6  N   UNL     1      23.344  48.567  49.674  1.00  0.00    -0.216 NA
HETATM    7  C   UNL     1      22.303  48.486  48.866  1.00  0.00     0.180 A 
HETATM    8  O   UNL     1      22.123  47.249  48.312  1.00  0.00    -0.293 OA
HETATM    9  C   UNL     1      23.123  46.477  48.838  1.00  0.00     0.094 A 
BRANCH   7  10
HETATM   10  C   UNL     1      21.319  49.509  48.516  1.00  0.00     0.017 A 
HETATM   11  C   UNL     1      20.328  49.226  47.565  1.00  0.00     0.016 A 
HETATM   12  C   UNL     1      19.392  50.196  47.195  1.00  0.00     0.001 A 
HETATM   13  C   UNL     1      19.436  51.463  47.771  1.00  0.00     0.000 A 
HETATM   14  C   UNL     1      20.413  51.761  48.719  1.00  0.00     0.001 A 
HETATM   15  C   UNL     1      21.348  50.790  49.090  1.00  0.00     0.016 A 
ENDBRANCH   7  10
BRANCH   9  16
HETATM   16  C   UNL     1      23.340  45.016  48.494  1.00  0.00     0.046 A 
HETATM   17  C   UNL     1      22.744  43.973  49.417  1.00  0.00     0.012 A 
HETATM   18  C   UNL     1      22.128  44.205  48.081  1.00  0.00     0.012 A 
ENDBRANCH   9  16
ENDBRANCH   2   5
BRANCH   1  19
HETATM   19  N   UNL     1      25.601  45.780  52.553  1.00  0.00    -0.265 N 
HETATM   20  C   UNL     1      26.089  44.481  52.660  1.00  0.00     0.260 C 
HETATM   21  O   UNL     1      25.910  43.629  51.793  1.00  0.00    -0.269 OA
HETATM   22  H   UNL     1      25.463  46.322  53.404  1.00  0.00     0.190 HD
BRANCH  20  23
HETATM   23  C   UNL     1      26.867  44.246  53.957  1.00  0.00     0.280 C 
BRANCH  23  24
HETATM   24  O   UNL     1      27.906  45.204  54.091  1.00  0.00    -0.342 OA
BRANCH  24  25
HETATM   25  C   UNL     1      28.908  44.923  54.977  1.00  0.00     0.069 A 
HETATM   26  C   UNL     1      29.237  45.663  56.116  1.00  0.00     0.043 A 
HETATM   27  C   UNL     1      30.310  45.271  56.934  1.00  0.00    -0.059 A 
HETATM   28  C   UNL     1      30.673  46.055  58.161  1.00  0.00     0.048 C 
HETATM   29  C   UNL     1      31.036  44.119  56.610  1.00  0.00     0.007 A 
HETATM   30  C   UNL     1      30.704  43.373  55.480  1.00  0.00     0.003 A 
HETATM   31  C   UNL     1      29.645  43.777  54.668  1.00  0.00     0.037 A 
ENDBRANCH  24  25
ENDBRANCH  23  24
ENDBRANCH  20  23
ENDBRANCH   1  19
TORSDOF 7
ENDMDL
MODEL 6
REMARK VINA RESULT:      -8.9      4.717      9.648
REMARK  7 active torsions:
REMARK  status: ('A' for Active; 'I' for Inactive)
REMARK    1  A    between atoms: C_4  and  O_5 
REMARK    2  A    between atoms: O_5  and  C_6 
REMARK    3  A    between atoms: C_6  and  C_7 
REMARK       I    between atoms: C_7  and  N_8 
REMARK    4  A    between atoms: N_8  and  N_9 
REMARK       I    between atoms: N_9  and  C_10 
REMARK    5  A    between atoms: C_10  and  C_11 
REMARK    6  A    between atoms: C_13  and  C_14 
REMARK    7  A    between atoms: C_21  and  C_22 
ROOT
HETATM    1  N   UNL     1      26.613  42.322  52.180  1.00  0.00    -0.262 N 
HETATM    2  C   UNL     1      27.224  43.536  51.913  1.00  0.00     0.291 C 
HETATM    3  O   UNL     1      27.334  43.981  50.770  1.00  0.00    -0.264 OA
HETATM    4  H   UNL     1      26.784  41.891  53.087  1.00  0.00     0.190 HD
ENDROOT
BRANCH   2   5
HETATM    5  C   UNL     1      27.689  44.219  53.111  1.00  0.00     0.159 A 
HETATM    6  N   UNL     1      28.849  43.847  53.784  1.00  0.00    -0.216 NA
HETATM    7  C   UNL     1      28.881  44.644  54.835  1.00  0.00     0.180 A 
HETATM    8  O   UNL     1      27.855  45.547  54.880  1.00  0.00    -0.293 OA
HETATM    9  C   UNL     1      27.097  45.276  53.774  1.00  0.00     0.094 A 
BRANCH   7  10
HETATM   10  C   UNL     1      29.826  44.670  55.950  1.00  0.00     0.017 A 
HETATM   11  C   UNL     1      30.833  43.697  56.031  1.00  0.00     0.016 A 
HETATM   12  C   UNL     1      31.733  43.685  57.101  1.00  0.00     0.001 A 
HETATM   13  C   UNL     1      31.637  44.646  58.104  1.00  0.00     0.000 A 
HETATM   14  C   UNL     1      30.643  45.621  58.038  1.00  0.00     0.001 A 
HETATM   15  C   UNL     1      29.745  45.634  56.967  1.00  0.00     0.016 A 
ENDBRANCH   7  10
BRANCH   9  16
HETATM   16  C   UNL     1      25.847  46.045  53.391  1.00  0.00     0.046 A 
HETATM   17  C   UNL     1      25.768  47.509  53.772  1.00  0.00     0.012 A 
HETATM   18  C   UNL     1      25.985  47.135  52.347  1.00  0.00     0.012 A 
ENDBRANCH   9  16
ENDBRANCH   2   5
BRANCH   1  19
HETATM   19  N   UNL     1      26.339  41.470  51.092  1.00  0.00    -0.265 N 
HETATM   20  C   UNL     1      27.358  40.617  50.681  1.00  0.00     0.260 C 
HETATM   21  O   UNL     1      28.365  40.410  51.354  1.00  0.00    -0.269 OA
HETATM   22  H   UNL     1      25.726  41.877  50.388  1.00  0.00     0.190 HD
BRANCH  20  23
HETATM   23  C   UNL     1      27.078  39.974  49.320  1.00  0.00     0.280 C 
BRANCH  23  24
HETATM   24  O   UNL     1      27.551  40.808  48.273  1.00  0.00    -0.342 OA
BRANCH  24  25
HETATM   25  C   UNL     1      27.842  40.210  47.078  1.00  0.00     0.069 A 
HETATM   26  C   UNL     1      28.114  40.861  45.872  1.00  0.00     0.043 A 
HETATM   27  C   UNL     1      28.380  40.121  44.708  1.00  0.00    -0.059 A 
HETATM   28  C   UNL     1      28.675  40.807  43.406  1.00  0.00     0.048 C 
HETATM   29  C   UNL     1      28.393  38.722  44.771  1.00  0.00     0.007 A 
HETATM   30  C   UNL     1      28.132  38.071  45.975  1.00  0.00     0.003 A 
HETATM   31  C   UNL     1      27.857  38.814  47.122  1.00  0.00     0.037 A 
ENDBRANCH  24  25
ENDBRANCH  23  24
ENDBRANCH  20  23
ENDBRANCH   1  19
TORSDOF 7
ENDMDL
MODEL 7
REMARK VINA RESULT:      -8.9      2.479     10.696
REMARK  7 active torsions:
REMARK  status: ('A' for Active; 'I' for Inactive)
REMARK    1  A    between atoms: C_4  and  O_5 
REMARK    2  A    between atoms: O_5  and  C_6 
REMARK    3  A    between atoms: C_6  and  C_7 
REMARK       I    between atoms: C_7  and  N_8 
REMARK    4  A    between atoms: N_8  and  N_9 
REMARK       I    between atoms: N_9  and  C_10 
REMARK    5  A    between atoms: C_10  and  C_11 
REMARK    6  A    between atoms: C_13  and  C_14 
REMARK    7  A    between atoms: C_21  and  C_22 
ROOT
HETATM    1  N   UNL     1      23.056  48.221  49.838  1.00  0.00    -0.262 N 
HETATM    2  C   UNL     1      24.426  48.058  49.712  1.00  0.00     0.291 C 
HETATM    3  O   UNL     1      25.090  48.683  48.884  1.00  0.00    -0.264 OA
HETATM    4  H   UNL     1      22.535  47.503  50.340  1.00  0.00     0.190 HD
ENDROOT
BRANCH   2   5
HETATM    5  C   UNL     1      24.980  47.104  50.661  1.00  0.00     0.159 A 
HETATM    6  N   UNL     1      25.643  47.499  51.820  1.00  0.00    -0.216 NA
HETATM    7  C   UNL     1      26.048  46.364  52.360  1.00  0.00     0.180 A 
HETATM    8  O   UNL     1      25.661  45.249  51.670  1.00  0.00    -0.293 OA
HETATM    9  C   UNL     1      24.974  45.725  50.587  1.00  0.00     0.094 A 
BRANCH   7  10
HETATM   10  C   UNL     1      26.865  46.146  53.553  1.00  0.00     0.017 A 
HETATM   11  C   UNL     1      27.029  47.183  54.483  1.00  0.00     0.016 A 
HETATM   12  C   UNL     1      27.826  47.007  55.619  1.00  0.00     0.001 A 
HETATM   13  C   UNL     1      28.471  45.792  55.836  1.00  0.00     0.000 A 
HETATM   14  C   UNL     1      28.318  44.751  54.922  1.00  0.00     0.001 A 
HETATM   15  C   UNL     1      27.520  44.927  53.789  1.00  0.00     0.016 A 
ENDBRANCH   7  10
BRANCH   9  16
HETATM   16  C   UNL     1      24.331  44.843  49.533  1.00  0.00     0.046 A 
HETATM   17  C   UNL     1      24.193  43.365  49.831  1.00  0.00     0.012 A 
HETATM   18  C   UNL     1      22.983  44.233  49.856  1.00  0.00     0.012 A 
ENDBRANCH   9  16
ENDBRANCH   2   5
BRANCH   1  19
HETATM   19  N   UNL     1      22.383  48.933  48.827  1.00  0.00    -0.265 N 
HETATM   20  C   UNL     1      21.907  50.200  49.151  1.00  0.00     0.260 C 
HETATM   21  O   UNL     1      22.247  50.799  50.168  1.00  0.00    -0.269 OA
HETATM   22  H   UNL     1      21.833  48.349  48.200  1.00  0.00     0.190 HD
BRANCH  20  23
HETATM   23  C   UNL     1      20.932  50.750  48.108  1.00  0.00     0.280 C 
BRANCH  23  24
HETATM   24  O   UNL     1      20.345  51.958  48.568  1.00  0.00    -0.342 OA
BRANCH  24  25
HETATM   25  C   UNL     1      18.981  52.047  48.531  1.00  0.00     0.069 A 
HETATM   26  C   UNL     1      18.177  51.966  47.392  1.00  0.00     0.043 A 
HETATM   27  C   UNL     1      16.781  52.093  47.495  1.00  0.00    -0.059 A 
HETATM   28  C   UNL     1      15.905  52.006  46.280  1.00  0.00     0.048 C 
HETATM   29  C   UNL     1      16.200  52.281  48.754  1.00  0.00     0.007 A 
HETATM   30  C   UNL     1      16.999  52.353  49.894  1.00  0.00     0.003 A 
HETATM   31  C   UNL     1      18.383  52.237  49.779  1.00  0.00     0.037 A 
ENDBRANCH  24  25
ENDBRANCH  23  24
ENDBRANCH  20  23
ENDBRANCH   1  19
TORSDOF 7
ENDMDL
MODEL 8
REMARK VINA RESULT:      -8.7      1.931     10.326
REMARK  7 active torsions:
REMARK  status: ('A' for Active; 'I' for Inactive)
REMARK    1  A    between atoms: C_4  and  O_5 
REMARK    2  A    between atoms: O_5  and  C_6 
REMARK    3  A    between atoms: C_6  and  C_7 
REMARK       I    between atoms: C_7  and  N_8 
REMARK    4  A    between atoms: N_8  and  N_9 
REMARK       I    between atoms: N_9  and  C_10 
REMARK    5  A    between atoms: C_10  and  C_11 
REMARK    6  A    between atoms: C_13  and  C_14 
REMARK    7  A    between atoms: C_21  and  C_22 
ROOT
HETATM    1  N   UNL     1      23.743  47.606  50.292  1.00  0.00    -0.262 N 
HETATM    2  C   UNL     1      25.121  47.540  50.177  1.00  0.00     0.291 C 
HETATM    3  O   UNL     1      25.794  48.485  49.765  1.00  0.00    -0.264 OA
HETATM    4  H   UNL     1      23.229  46.730  50.380  1.00  0.00     0.190 HD
ENDROOT
BRANCH   2   5
HETATM    5  C   UNL     1      25.672  46.264  50.610  1.00  0.00     0.159 A 
HETATM    6  N   UNL     1      26.544  46.152  51.690  1.00  0.00    -0.216 NA
HETATM    7  C   UNL     1      26.866  44.872  51.711  1.00  0.00     0.180 A 
HETATM    8  O   UNL     1      26.235  44.123  50.756  1.00  0.00    -0.293 OA
HETATM    9  C   UNL     1      25.468  45.015  50.057  1.00  0.00     0.094 A 
BRANCH   7  10
HETATM   10  C   UNL     1      27.810  44.168  52.577  1.00  0.00     0.017 A 
HETATM   11  C   UNL     1      28.001  44.603  53.897  1.00  0.00     0.016 A 
HETATM   12  C   UNL     1      28.918  43.962  54.737  1.00  0.00     0.001 A 
HETATM   13  C   UNL     1      29.656  42.879  54.266  1.00  0.00     0.000 A 
HETATM   14  C   UNL     1      29.477  42.434  52.958  1.00  0.00     0.001 A 
HETATM   15  C   UNL     1      28.560  43.073  52.120  1.00  0.00     0.016 A 
ENDBRANCH   7  10
BRANCH   9  16
HETATM   16  C   UNL     1      24.565  44.636  48.899  1.00  0.00     0.046 A 
HETATM   17  C   UNL     1      24.175  43.181  48.749  1.00  0.00     0.012 A 
HETATM   18  C   UNL     1      23.163  44.164  49.227  1.00  0.00     0.012 A 
ENDBRANCH   9  16
ENDBRANCH   2   5
BRANCH   1  19
HETATM   19  N   UNL     1      23.084  48.693  49.687  1.00  0.00    -0.265 N 
HETATM   20  C   UNL     1      22.696  48.542  48.359  1.00  0.00     0.260 C 
HETATM   21  O   UNL     1      22.687  47.455  47.788  1.00  0.00    -0.269 OA
HETATM   22  H   UNL     1      23.408  49.605  50.002  1.00  0.00     0.190 HD
BRANCH  20  23
HETATM   23  C   UNL     1      22.283  49.865  47.710  1.00  0.00     0.280 C 
BRANCH  23  24
HETATM   24  O   UNL     1      21.634  50.700  48.657  1.00  0.00    -0.342 OA
BRANCH  24  25
HETATM   25  C   UNL     1      20.346  51.071  48.388  1.00  0.00     0.069 A 
HETATM   26  C   UNL     1      19.504  51.803  49.228  1.00  0.00     0.043 A 
HETATM   27  C   UNL     1      18.188  52.101  48.834  1.00  0.00    -0.059 A 
HETATM   28  C   UNL     1      17.273  52.888  49.726  1.00  0.00     0.048 C 
HETATM   29  C   UNL     1      17.734  51.676  47.580  1.00  0.00     0.007 A 
HETATM   30  C   UNL     1      18.576  50.954  46.735  1.00  0.00     0.003 A 
HETATM   31  C   UNL     1      19.875  50.654  47.141  1.00  0.00     0.037 A 
ENDBRANCH  24  25
ENDBRANCH  23  24
ENDBRANCH  20  23
ENDBRANCH   1  19
TORSDOF 7
ENDMDL
MODEL 9
REMARK VINA RESULT:      -8.7      2.329      3.481
REMARK  7 active torsions:
REMARK  status: ('A' for Active; 'I' for Inactive)
REMARK    1  A    between atoms: C_4  and  O_5 
REMARK    2  A    between atoms: O_5  and  C_6 
REMARK    3  A    between atoms: C_6  and  C_7 
REMARK       I    between atoms: C_7  and  N_8 
REMARK    4  A    between atoms: N_8  and  N_9 
REMARK       I    between atoms: N_9  and  C_10 
REMARK    5  A    between atoms: C_10  and  C_11 
REMARK    6  A    between atoms: C_13  and  C_14 
REMARK    7  A    between atoms: C_21  and  C_22 
ROOT
HETATM    1  N   UNL     1      25.094  45.735  50.308  1.00  0.00    -0.262 N 
HETATM    2  C   UNL     1      24.478  46.976  50.277  1.00  0.00     0.291 C 
HETATM    3  O   UNL     1      24.752  47.867  51.080  1.00  0.00    -0.264 OA
HETATM    4  H   UNL     1      24.648  44.969  49.805  1.00  0.00     0.190 HD
ENDROOT
BRANCH   2   5
HETATM    5  C   UNL     1      23.510  47.108  49.199  1.00  0.00     0.159 A 
HETATM    6  N   UNL     1      22.716  46.047  48.770  1.00  0.00    -0.216 NA
HETATM    7  C   UNL     1      22.042  46.543  47.749  1.00  0.00     0.180 A 
HETATM    8  O   UNL     1      22.295  47.864  47.503  1.00  0.00    -0.293 OA
HETATM    9  C   UNL     1      23.231  48.224  48.435  1.00  0.00     0.094 A 
BRANCH   7  10
HETATM   10  C   UNL     1      21.106  45.876  46.846  1.00  0.00     0.017 A 
HETATM   11  C   UNL     1      20.448  44.709  47.263  1.00  0.00     0.016 A 
HETATM   12  C   UNL     1      19.567  44.039  46.408  1.00  0.00     0.001 A 
HETATM   13  C   UNL     1      19.335  44.526  45.124  1.00  0.00     0.000 A 
HETATM   14  C   UNL     1      19.979  45.685  44.695  1.00  0.00     0.001 A 
HETATM   15  C   UNL     1      20.858  46.356  45.550  1.00  0.00     0.016 A 
ENDBRANCH   7  10
BRANCH   9  16
HETATM   16  C   UNL     1      23.810  49.620  48.563  1.00  0.00     0.046 A 
HETATM   17  C   UNL     1      23.232  50.712  47.688  1.00  0.00     0.012 A 
HETATM   18  C   UNL     1      22.918  50.699  49.144  1.00  0.00     0.012 A 
ENDBRANCH   9  16
ENDBRANCH   2   5
BRANCH   1  19
HETATM   19  N   UNL     1      25.867  45.413  51.440  1.00  0.00    -0.265 N 
HETATM   20  C   UNL     1      25.304  44.542  52.368  1.00  0.00     0.260 C 
HETATM   21  O   UNL     1      24.298  43.877  52.131  1.00  0.00    -0.269 OA
HETATM   22  H   UNL     1      26.452  46.175  51.777  1.00  0.00     0.190 HD
BRANCH  20  23
HETATM   23  C   UNL     1      26.074  44.506  53.690  1.00  0.00     0.280 C 
BRANCH  23  24
HETATM   24  O   UNL     1      27.326  45.161  53.550  1.00  0.00    -0.342 OA
BRANCH  24  25
HETATM   25  C   UNL     1      28.444  44.459  53.905  1.00  0.00     0.069 A 
HETATM   26  C   UNL     1      29.180  44.615  55.083  1.00  0.00     0.043 A 
HETATM   27  C   UNL     1      30.327  43.837  55.315  1.00  0.00    -0.059 A 
HETATM   28  C   UNL     1      31.124  43.993  56.576  1.00  0.00     0.048 C 
HETATM   29  C   UNL     1      30.716  42.888  54.364  1.00  0.00     0.007 A 
HETATM   30  C   UNL     1      29.979  42.723  53.192  1.00  0.00     0.003 A 
HETATM   31  C   UNL     1      28.849  43.507  52.967  1.00  0.00     0.037 A 
ENDBRANCH  24  25
ENDBRANCH  23  24
ENDBRANCH  20  23
ENDBRANCH   1  19
TORSDOF 7
ENDMDL
MODEL 10
REMARK VINA RESULT:      -8.6      5.382     10.093
REMARK  7 active torsions:
REMARK  status: ('A' for Active; 'I' for Inactive)
REMARK    1  A    between atoms: C_4  and  O_5 
REMARK    2  A    between atoms: O_5  and  C_6 
REMARK    3  A    between atoms: C_6  and  C_7 
REMARK       I    between atoms: C_7  and  N_8 
REMARK    4  A    between atoms: N_8  and  N_9 
REMARK       I    between atoms: N_9  and  C_10 
REMARK    5  A    between atoms: C_10  and  C_11 
REMARK    6  A    between atoms: C_13  and  C_14 
REMARK    7  A    between atoms: C_21  and  C_22 
ROOT
HETATM    1  N   UNL     1      28.872  40.913  51.185  1.00  0.00    -0.262 N 
HETATM    2  C   UNL     1      27.824  41.632  51.735  1.00  0.00     0.291 C 
HETATM    3  O   UNL     1      26.646  41.381  51.479  1.00  0.00    -0.264 OA
HETATM    4  H   UNL     1      29.804  41.325  51.221  1.00  0.00     0.190 HD
ENDROOT
BRANCH   2   5
HETATM    5  C   UNL     1      28.262  42.679  52.646  1.00  0.00     0.159 A 
HETATM    6  N   UNL     1      29.179  42.448  53.668  1.00  0.00    -0.216 NA
HETATM    7  C   UNL     1      29.254  43.604  54.300  1.00  0.00     0.180 A 
HETATM    8  O   UNL     1      28.494  44.594  53.742  1.00  0.00    -0.293 OA
HETATM    9  C   UNL     1      27.864  44.001  52.681  1.00  0.00     0.094 A 
BRANCH   7  10
HETATM   10  C   UNL     1      29.999  43.953  55.508  1.00  0.00     0.017 A 
HETATM   11  C   UNL     1      30.961  43.066  56.014  1.00  0.00     0.016 A 
HETATM   12  C   UNL     1      31.668  43.365  57.182  1.00  0.00     0.001 A 
HETATM   13  C   UNL     1      31.422  44.555  57.861  1.00  0.00     0.000 A 
HETATM   14  C   UNL     1      30.471  45.449  57.371  1.00  0.00     0.001 A 
HETATM   15  C   UNL     1      29.766  45.151  56.203  1.00  0.00     0.016 A 
ENDBRANCH   7  10
BRANCH   9  16
HETATM   16  C   UNL     1      26.919  44.724  51.741  1.00  0.00     0.046 A 
HETATM   17  C   UNL     1      25.434  44.647  52.027  1.00  0.00     0.012 A 
HETATM   18  C   UNL     1      26.164  45.919  52.286  1.00  0.00     0.012 A 
ENDBRANCH   9  16
ENDBRANCH   2   5
BRANCH   1  19
HETATM   19  N   UNL     1      28.583  40.040  50.119  1.00  0.00    -0.265 N 
HETATM   20  C   UNL     1      29.208  38.797  50.128  1.00  0.00     0.260 C 
HETATM   21  O   UNL     1      29.790  38.352  51.114  1.00  0.00    -0.269 OA
HETATM   22  H   UNL     1      28.433  40.506  49.226  1.00  0.00     0.190 HD
BRANCH  20  23
HETATM   23  C   UNL     1      29.081  38.061  48.792  1.00  0.00     0.280 C 
BRANCH  23  24
HETATM   24  O   UNL     1      27.933  38.510  48.087  1.00  0.00    -0.342 OA
BRANCH  24  25
HETATM   25  C   UNL     1      28.103  38.881  46.783  1.00  0.00     0.069 A 
HETATM   26  C   UNL     1      28.362  38.028  45.707  1.00  0.00     0.043 A 
HETATM   27  C   UNL     1      28.536  38.547  44.413  1.00  0.00    -0.059 A 
HETATM   28  C   UNL     1      28.813  37.642  43.248  1.00  0.00     0.048 C 
HETATM   29  C   UNL     1      28.425  39.927  44.205  1.00  0.00     0.007 A 
HETATM   30  C   UNL     1      28.157  40.779  45.275  1.00  0.00     0.003 A 
HETATM   31  C   UNL     1      27.998  40.255  46.557  1.00  0.00     0.037 A 
ENDBRANCH  24  25
ENDBRANCH  23  24
ENDBRANCH  20  23
ENDBRANCH   1  19
TORSDOF 7
ENDMDL
