MODEL 1
REMARK VINA RESULT:      -8.9      0.000      0.000
REMARK  7 active torsions:
REMARK  status: ('A' for Active; 'I' for Inactive)
REMARK    1  A    between atoms: C_3  and  C_4 
REMARK    2  A    between atoms: N_5  and  C_7 
REMARK    3  A    between atoms: N_10  and  C_11 
REMARK    4  A    between atoms: C_14  and  C_15 
REMARK       I    between atoms: C_15  and  N_16 
REMARK    5  A    between atoms: N_16  and  C_17 
REMARK    6  A    between atoms: C_17  and  C_18 
REMARK    7  A    between atoms: C_18  and  N_19 
ROOT
HETATM    1  C   UNL     1      15.285  52.581  48.859  1.00  0.00     0.191 C 
HETATM    2  C   UNL     1      15.540  51.105  48.551  1.00  0.00     0.048 C 
HETATM    3  C   UNL     1      16.998  50.747  48.380  1.00  0.00     0.098 C 
HETATM    4  N   UNL     1      17.753  51.235  49.541  1.00  0.00    -0.283 NA
HETATM    5  C   UNL     1      17.745  52.686  49.699  1.00  0.00     0.098 C 
HETATM    6  C   UNL     1      16.300  53.180  49.855  1.00  0.00     0.048 C 
ENDROOT
BRANCH   4   7
HETATM    7  C   UNL     1      18.983  50.553  49.633  1.00  0.00     0.010 A 
HETATM    8  C   UNL     1      20.219  51.186  49.824  1.00  0.00     0.024 A 
HETATM    9  C   UNL     1      21.423  50.476  49.681  1.00  0.00     0.019 A 
HETATM   10  C   UNL     1      21.391  49.115  49.359  1.00  0.00     0.032 A 
HETATM   11  C   UNL     1      20.171  48.452  49.253  1.00  0.00     0.019 A 
HETATM   12  C   UNL     1      18.984  49.165  49.408  1.00  0.00     0.024 A 
BRANCH  10  13
HETATM   13  C   UNL     1      22.610  48.390  48.943  1.00  0.00     0.251 C 
HETATM   14  N   UNL     1      23.451  47.932  49.926  1.00  0.00    -0.355 N 
HETATM   15  H   UNL     1      23.179  48.106  50.891  1.00  0.00     0.162 HD
HETATM   16  O   UNL     1      22.835  48.237  47.746  1.00  0.00    -0.268 OA
BRANCH  14  17
HETATM   17  C   UNL     1      24.821  47.466  49.704  1.00  0.00     0.150 C 
BRANCH  17  18
HETATM   18  C   UNL     1      25.228  46.097  50.305  1.00  0.00     0.254 C 
BRANCH  18  19
HETATM   19  N   UNL     1      25.181  46.058  51.813  1.00  0.00    -0.066 N 
HETATM   20  H   UNL     1      24.209  46.344  52.061  1.00  0.00     0.280 HD
HETATM   21  C   UNL     1      25.390  44.696  52.446  1.00  0.00     0.261 C 
HETATM   22  C   UNL     1      25.198  44.804  53.965  1.00  0.00     0.195 C 
HETATM   23  O   UNL     1      26.091  45.769  54.528  1.00  0.00    -0.388 OA
HETATM   24  C   UNL     1      25.863  47.075  53.985  1.00  0.00     0.195 C 
HETATM   25  C   UNL     1      26.086  47.088  52.468  1.00  0.00     0.261 C 
ENDBRANCH  18  19
ENDBRANCH  17  18
ENDBRANCH  14  17
ENDBRANCH  10  13
ENDBRANCH   4   7
BRANCH   1  26
HETATM   26  N   UNL     1      15.071  53.487  47.608  1.00  0.00    -0.056 N 
HETATM   27  C   UNL     1      13.856  54.443  47.729  1.00  0.00     0.257 C 
HETATM   28  C   UNL     1      13.830  55.418  46.545  1.00  0.00     0.041 C 
HETATM   29  C   UNL     1      13.830  54.682  45.213  1.00  0.00     0.004 C 
HETATM   30  C   UNL     1      15.037  53.764  45.125  1.00  0.00     0.028 C 
HETATM   31  C   UNL     1      15.074  52.772  46.277  1.00  0.00     0.236 C 
HETATM   32  H   UNL     1      15.890  54.104  47.605  1.00  0.00     0.281 HD
BRANCH  27  33
HETATM   33  C   UNL     1      13.703  55.122  49.068  1.00  0.00     0.136 A 
HETATM   34  N   UNL     1      12.698  54.964  50.000  1.00  0.00    -0.346 N 
HETATM   35  C   UNL     1      11.519  54.135  49.937  1.00  0.00     0.157 C 
HETATM   36  C   UNL     1      12.990  55.772  51.066  1.00  0.00     0.111 A 
HETATM   37  C   UNL     1      14.155  56.415  50.737  1.00  0.00     0.136 A 
HETATM   38  N   UNL     1      14.569  56.027  49.495  1.00  0.00    -0.244 NA
ENDBRANCH  27  33
ENDBRANCH   1  26
TORSDOF 7
ENDMDL
MODEL 2
REMARK VINA RESULT:      -8.7      4.290      7.309
REMARK  7 active torsions:
REMARK  status: ('A' for Active; 'I' for Inactive)
REMARK    1  A    between atoms: C_3  and  C_4 
REMARK    2  A    between atoms: N_5  and  C_7 
REMARK    3  A    between atoms: N_10  and  C_11 
REMARK    4  A    between atoms: C_14  and  C_15 
REMARK       I    between atoms: C_15  and  N_16 
REMARK    5  A    between atoms: N_16  and  C_17 
REMARK    6  A    between atoms: C_17  and  C_18 
REMARK    7  A    between atoms: C_18  and  N_19 
ROOT
HETATM    1  C   UNL     1      21.338  49.082  47.606  1.00  0.00     0.191 C 
HETATM    2  C   UNL     1      22.758  49.513  47.978  1.00  0.00     0.048 C 
HETATM    3  C   UNL     1      23.327  48.807  49.187  1.00  0.00     0.098 C 
HETATM    4  N   UNL     1      23.192  47.357  49.004  1.00  0.00    -0.283 NA
HETATM    5  C   UNL     1      21.812  46.886  48.917  1.00  0.00     0.098 C 
HETATM    6  C   UNL     1      21.111  47.560  47.730  1.00  0.00     0.048 C 
ENDROOT
BRANCH   4   7
HETATM    7  C   UNL     1      24.081  46.682  49.864  1.00  0.00     0.010 A 
HETATM    8  C   UNL     1      24.052  45.299  50.098  1.00  0.00     0.024 A 
HETATM    9  C   UNL     1      24.814  44.726  51.130  1.00  0.00     0.019 A 
HETATM   10  C   UNL     1      25.624  45.540  51.928  1.00  0.00     0.032 A 
HETATM   11  C   UNL     1      25.732  46.901  51.653  1.00  0.00     0.019 A 
HETATM   12  C   UNL     1      24.981  47.456  50.618  1.00  0.00     0.024 A 
BRANCH  10  13
HETATM   13  C   UNL     1      26.234  45.037  53.176  1.00  0.00     0.251 C 
HETATM   14  N   UNL     1      26.705  45.958  54.078  1.00  0.00    -0.355 N 
HETATM   15  H   UNL     1      26.595  46.941  53.841  1.00  0.00     0.162 HD
HETATM   16  O   UNL     1      26.312  43.825  53.357  1.00  0.00    -0.268 OA
BRANCH  14  17
HETATM   17  C   UNL     1      27.588  45.650  55.204  1.00  0.00     0.150 C 
BRANCH  17  18
HETATM   18  C   UNL     1      29.045  45.226  54.890  1.00  0.00     0.254 C 
BRANCH  18  19
HETATM   19  N   UNL     1      29.786  44.673  56.083  1.00  0.00    -0.066 N 
HETATM   20  H   UNL     1      29.092  44.071  56.577  1.00  0.00     0.280 HD
HETATM   21  C   UNL     1      30.968  43.777  55.769  1.00  0.00     0.261 C 
HETATM   22  C   UNL     1      31.537  43.205  57.075  1.00  0.00     0.195 C 
HETATM   23  O   UNL     1      31.918  44.254  57.971  1.00  0.00    -0.388 OA
HETATM   24  C   UNL     1      30.797  45.073  58.327  1.00  0.00     0.195 C 
HETATM   25  C   UNL     1      30.186  45.739  57.089  1.00  0.00     0.261 C 
ENDBRANCH  18  19
ENDBRANCH  17  18
ENDBRANCH  14  17
ENDBRANCH  10  13
ENDBRANCH   4   7
BRANCH   1  26
HETATM   26  N   UNL     1      20.201  49.911  48.277  1.00  0.00    -0.056 N 
HETATM   27  C   UNL     1      19.005  50.209  47.335  1.00  0.00     0.257 C 
HETATM   28  C   UNL     1      17.862  50.861  48.122  1.00  0.00     0.041 C 
HETATM   29  C   UNL     1      18.326  52.117  48.846  1.00  0.00     0.004 C 
HETATM   30  C   UNL     1      19.488  51.787  49.766  1.00  0.00     0.028 C 
HETATM   31  C   UNL     1      20.646  51.157  49.005  1.00  0.00     0.236 C 
HETATM   32  H   UNL     1      19.821  49.280  48.991  1.00  0.00     0.281 HD
BRANCH  27  33
HETATM   33  C   UNL     1      18.558  49.049  46.478  1.00  0.00     0.136 A 
HETATM   34  N   UNL     1      17.906  47.897  46.866  1.00  0.00    -0.346 N 
HETATM   35  C   UNL     1      17.500  47.481  48.187  1.00  0.00     0.157 C 
HETATM   36  C   UNL     1      17.692  47.143  45.743  1.00  0.00     0.111 A 
HETATM   37  C   UNL     1      18.242  47.852  44.708  1.00  0.00     0.136 A 
HETATM   38  N   UNL     1      18.796  49.010  45.177  1.00  0.00    -0.244 NA
ENDBRANCH  27  33
ENDBRANCH   1  26
TORSDOF 7
ENDMDL
MODEL 3
REMARK VINA RESULT:      -8.6      3.763      6.145
REMARK  7 active torsions:
REMARK  status: ('A' for Active; 'I' for Inactive)
REMARK    1  A    between atoms: C_3  and  C_4 
REMARK    2  A    between atoms: N_5  and  C_7 
REMARK    3  A    between atoms: N_10  and  C_11 
REMARK    4  A    between atoms: C_14  and  C_15 
REMARK       I    between atoms: C_15  and  N_16 
REMARK    5  A    between atoms: N_16  and  C_17 
REMARK    6  A    between atoms: C_17  and  C_18 
REMARK    7  A    between atoms: C_18  and  N_19 
ROOT
HETATM    1  C   UNL     1      20.365  49.826  47.331  1.00  0.00     0.191 C 
HETATM    2  C   UNL     1      21.804  50.237  47.645  1.00  0.00     0.048 C 
HETATM    3  C   UNL     1      22.461  49.422  48.735  1.00  0.00     0.098 C 
HETATM    4  N   UNL     1      22.322  47.994  48.418  1.00  0.00    -0.283 NA
HETATM    5  C   UNL     1      20.943  47.517  48.380  1.00  0.00     0.098 C 
HETATM    6  C   UNL     1      20.156  48.297  47.318  1.00  0.00     0.048 C 
ENDROOT
BRANCH   4   7
HETATM    7  C   UNL     1      23.274  47.249  49.143  1.00  0.00     0.010 A 
HETATM    8  C   UNL     1      24.299  47.820  49.911  1.00  0.00     0.024 A 
HETATM    9  C   UNL     1      25.343  47.030  50.421  1.00  0.00     0.019 A 
HETATM   10  C   UNL     1      25.355  45.653  50.173  1.00  0.00     0.032 A 
HETATM   11  C   UNL     1      24.299  45.058  49.488  1.00  0.00     0.019 A 
HETATM   12  C   UNL     1      23.263  45.851  48.997  1.00  0.00     0.024 A 
BRANCH  10  13
HETATM   13  C   UNL     1      26.548  44.827  50.457  1.00  0.00     0.251 C 
HETATM   14  N   UNL     1      26.812  44.508  51.765  1.00  0.00    -0.355 N 
HETATM   15  H   UNL     1      26.160  44.848  52.468  1.00  0.00     0.162 HD
HETATM   16  O   UNL     1      27.264  44.471  49.525  1.00  0.00    -0.268 OA
BRANCH  14  17
HETATM   17  C   UNL     1      28.080  43.964  52.254  1.00  0.00     0.150 C 
BRANCH  17  18
HETATM   18  C   UNL     1      28.047  43.073  53.521  1.00  0.00     0.254 C 
BRANCH  18  19
HETATM   19  N   UNL     1      28.822  43.644  54.684  1.00  0.00    -0.066 N 
HETATM   20  H   UNL     1      28.407  43.198  55.530  1.00  0.00     0.280 HD
HETATM   21  C   UNL     1      30.301  43.311  54.719  1.00  0.00     0.261 C 
HETATM   22  C   UNL     1      30.917  43.861  56.012  1.00  0.00     0.195 C 
HETATM   23  O   UNL     1      30.710  45.274  56.119  1.00  0.00    -0.388 OA
HETATM   24  C   UNL     1      29.315  45.599  56.151  1.00  0.00     0.195 C 
HETATM   25  C   UNL     1      28.613  45.137  54.869  1.00  0.00     0.261 C 
ENDBRANCH  18  19
ENDBRANCH  17  18
ENDBRANCH  14  17
ENDBRANCH  10  13
ENDBRANCH   4   7
BRANCH   1  26
HETATM   26  N   UNL     1      19.273  50.570  48.159  1.00  0.00    -0.056 N 
HETATM   27  C   UNL     1      18.224  51.311  47.287  1.00  0.00     0.257 C 
HETATM   28  C   UNL     1      17.093  51.854  48.169  1.00  0.00     0.041 C 
HETATM   29  C   UNL     1      17.628  52.748  49.278  1.00  0.00     0.004 C 
HETATM   30  C   UNL     1      18.641  51.989  50.116  1.00  0.00     0.028 C 
HETATM   31  C   UNL     1      19.787  51.458  49.267  1.00  0.00     0.236 C 
HETATM   32  H   UNL     1      18.748  49.815  48.614  1.00  0.00     0.281 HD
BRANCH  27  33
HETATM   33  C   UNL     1      17.732  50.544  46.084  1.00  0.00     0.136 A 
HETATM   34  N   UNL     1      16.971  49.393  46.053  1.00  0.00    -0.346 N 
HETATM   35  C   UNL     1      16.467  48.604  47.150  1.00  0.00     0.157 C 
HETATM   36  C   UNL     1      16.757  49.074  44.739  1.00  0.00     0.111 A 
HETATM   37  C   UNL     1      17.414  50.031  44.011  1.00  0.00     0.136 A 
HETATM   38  N   UNL     1      18.033  50.913  44.850  1.00  0.00    -0.244 NA
ENDBRANCH  27  33
ENDBRANCH   1  26
TORSDOF 7
ENDMDL
MODEL 4
REMARK VINA RESULT:      -8.4     15.076     19.110
REMARK  7 active torsions:
REMARK  status: ('A' for Active; 'I' for Inactive)
REMARK    1  A    between atoms: C_3  and  C_4 
REMARK    2  A    between atoms: N_5  and  C_7 
REMARK    3  A    between atoms: N_10  and  C_11 
REMARK    4  A    between atoms: C_14  and  C_15 
REMARK       I    between atoms: C_15  and  N_16 
REMARK    5  A    between atoms: N_16  and  C_17 
REMARK    6  A    between atoms: C_17  and  C_18 
REMARK    7  A    between atoms: C_18  and  N_19 
ROOT
HETATM    1  C   UNL     1      31.927  50.394  41.667  1.00  0.00     0.191 C 
HETATM    2  C   UNL     1      33.218  50.430  40.847  1.00  0.00     0.048 C 
HETATM    3  C   UNL     1      34.188  51.512  41.260  1.00  0.00     0.098 C 
HETATM    4  N   UNL     1      34.423  51.422  42.707  1.00  0.00    -0.283 NA
HETATM    5  C   UNL     1      33.237  51.657  43.525  1.00  0.00     0.098 C 
HETATM    6  C   UNL     1      32.156  50.625  43.175  1.00  0.00     0.048 C 
ENDROOT
BRANCH   4   7
HETATM    7  C   UNL     1      35.616  52.093  43.040  1.00  0.00     0.010 A 
HETATM    8  C   UNL     1      35.910  52.585  44.320  1.00  0.00     0.024 A 
HETATM    9  C   UNL     1      37.007  53.436  44.531  1.00  0.00     0.019 A 
HETATM   10  C   UNL     1      37.829  53.788  43.455  1.00  0.00     0.032 A 
HETATM   11  C   UNL     1      37.604  53.238  42.196  1.00  0.00     0.019 A 
HETATM   12  C   UNL     1      36.519  52.385  42.002  1.00  0.00     0.024 A 
BRANCH  10  13
HETATM   13  C   UNL     1      38.827  54.873  43.567  1.00  0.00     0.251 C 
HETATM   14  N   UNL     1      39.773  54.776  44.556  1.00  0.00    -0.355 N 
HETATM   15  H   UNL     1      39.743  53.952  45.151  1.00  0.00     0.162 HD
HETATM   16  O   UNL     1      38.767  55.822  42.790  1.00  0.00    -0.268 OA
BRANCH  14  17
HETATM   17  C   UNL     1      40.636  55.873  44.998  1.00  0.00     0.150 C 
BRANCH  17  18
HETATM   18  C   UNL     1      40.003  56.989  45.869  1.00  0.00     0.254 C 
BRANCH  18  19
HETATM   19  N   UNL     1      40.102  58.364  45.256  1.00  0.00    -0.066 N 
HETATM   20  H   UNL     1      40.388  58.990  46.039  1.00  0.00     0.280 HD
HETATM   21  C   UNL     1      41.156  58.534  44.179  1.00  0.00     0.261 C 
HETATM   22  C   UNL     1      41.209  60.005  43.744  1.00  0.00     0.195 C 
HETATM   23  O   UNL     1      39.931  60.449  43.278  1.00  0.00    -0.388 OA
HETATM   24  C   UNL     1      38.936  60.354  44.305  1.00  0.00     0.195 C 
HETATM   25  C   UNL     1      38.765  58.904  44.774  1.00  0.00     0.261 C 
ENDBRANCH  18  19
ENDBRANCH  17  18
ENDBRANCH  14  17
ENDBRANCH  10  13
ENDBRANCH   4   7
BRANCH   1  26
HETATM   26  N   UNL     1      30.764  51.263  41.099  1.00  0.00    -0.056 N 
HETATM   27  C   UNL     1      30.225  50.770  39.730  1.00  0.00     0.257 C 
HETATM   28  C   UNL     1      28.972  51.562  39.338  1.00  0.00     0.041 C 
HETATM   29  C   UNL     1      29.238  53.060  39.325  1.00  0.00     0.004 C 
HETATM   30  C   UNL     1      29.752  53.509  40.682  1.00  0.00     0.028 C 
HETATM   31  C   UNL     1      31.010  52.753  41.084  1.00  0.00     0.236 C 
HETATM   32  H   UNL     1      29.992  51.104  41.756  1.00  0.00     0.281 HD
BRANCH  27  33
HETATM   33  C   UNL     1      30.053  49.275  39.608  1.00  0.00     0.136 A 
HETATM   34  N   UNL     1      29.326  48.427  40.417  1.00  0.00    -0.346 N 
HETATM   35  C   UNL     1      28.561  48.731  41.602  1.00  0.00     0.157 C 
HETATM   36  C   UNL     1      29.449  47.162  39.909  1.00  0.00     0.111 A 
HETATM   37  C   UNL     1      30.268  47.278  38.817  1.00  0.00     0.136 A 
HETATM   38  N   UNL     1      30.654  48.578  38.658  1.00  0.00    -0.244 NA
ENDBRANCH  27  33
ENDBRANCH   1  26
TORSDOF 7
ENDMDL
MODEL 5
REMARK VINA RESULT:      -8.3     14.508     18.428
REMARK  7 active torsions:
REMARK  status: ('A' for Active; 'I' for Inactive)
REMARK    1  A    between atoms: C_3  and  C_4 
REMARK    2  A    between atoms: N_5  and  C_7 
REMARK    3  A    between atoms: N_10  and  C_11 
REMARK    4  A    between atoms: C_14  and  C_15 
REMARK       I    between atoms: C_15  and  N_16 
REMARK    5  A    between atoms: N_16  and  C_17 
REMARK    6  A    between atoms: C_17  and  C_18 
REMARK    7  A    between atoms: C_18  and  N_19 
ROOT
HETATM    1  C   UNL     1      31.532  50.229  41.448  1.00  0.00     0.191 C 
HETATM    2  C   UNL     1      32.826  50.201  40.633  1.00  0.00     0.048 C 
HETATM    3  C   UNL     1      33.901  51.134  41.139  1.00  0.00     0.098 C 
HETATM    4  N   UNL     1      34.113  50.891  42.571  1.00  0.00    -0.283 NA
HETATM    5  C   UNL     1      32.953  51.176  43.410  1.00  0.00     0.098 C 
HETATM    6  C   UNL     1      31.771  50.299  42.970  1.00  0.00     0.048 C 
ENDROOT
BRANCH   4   7
HETATM    7  C   UNL     1      35.368  51.400  42.961  1.00  0.00     0.010 A 
HETATM    8  C   UNL     1      36.596  50.884  42.524  1.00  0.00     0.024 A 
HETATM    9  C   UNL     1      37.802  51.287  43.121  1.00  0.00     0.019 A 
HETATM   10  C   UNL     1      37.783  52.228  44.156  1.00  0.00     0.032 A 
HETATM   11  C   UNL     1      36.581  52.815  44.542  1.00  0.00     0.019 A 
HETATM   12  C   UNL     1      35.392  52.416  43.934  1.00  0.00     0.024 A 
BRANCH  10  13
HETATM   13  C   UNL     1      38.977  52.488  44.986  1.00  0.00     0.251 C 
HETATM   14  N   UNL     1      39.411  53.785  45.098  1.00  0.00    -0.355 N 
HETATM   15  H   UNL     1      38.875  54.500  44.611  1.00  0.00     0.162 HD
HETATM   16  O   UNL     1      39.545  51.545  45.530  1.00  0.00    -0.268 OA
BRANCH  14  17
HETATM   17  C   UNL     1      40.718  54.188  45.620  1.00  0.00     0.150 C 
BRANCH  17  18
HETATM   18  C   UNL     1      40.813  54.579  47.117  1.00  0.00     0.254 C 
BRANCH  18  19
HETATM   19  N   UNL     1      42.108  54.163  47.771  1.00  0.00    -0.066 N 
HETATM   20  H   UNL     1      41.839  53.850  48.728  1.00  0.00     0.280 HD
HETATM   21  C   UNL     1      42.823  52.988  47.132  1.00  0.00     0.261 C 
HETATM   22  C   UNL     1      44.050  52.617  47.976  1.00  0.00     0.195 C 
HETATM   23  O   UNL     1      44.933  53.734  48.117  1.00  0.00    -0.388 OA
HETATM   24  C   UNL     1      44.290  54.832  48.777  1.00  0.00     0.195 C 
HETATM   25  C   UNL     1      43.073  55.317  47.979  1.00  0.00     0.261 C 
ENDBRANCH  18  19
ENDBRANCH  17  18
ENDBRANCH  14  17
ENDBRANCH  10  13
ENDBRANCH   4   7
BRANCH   1  26
HETATM   26  N   UNL     1      30.471  51.263  40.962  1.00  0.00    -0.056 N 
HETATM   27  C   UNL     1      29.482  50.697  39.909  1.00  0.00     0.257 C 
HETATM   28  C   UNL     1      28.369  51.714  39.627  1.00  0.00     0.041 C 
HETATM   29  C   UNL     1      28.936  53.058  39.193  1.00  0.00     0.004 C 
HETATM   30  C   UNL     1      29.889  53.587  40.251  1.00  0.00     0.028 C 
HETATM   31  C   UNL     1      31.016  52.604  40.533  1.00  0.00     0.236 C 
HETATM   32  H   UNL     1      29.895  51.438  41.793  1.00  0.00     0.281 HD
BRANCH  27  33
HETATM   33  C   UNL     1      28.967  49.307  40.193  1.00  0.00     0.136 A 
HETATM   34  N   UNL     1      29.431  48.103  39.705  1.00  0.00    -0.346 N 
HETATM   35  C   UNL     1      30.509  47.850  38.780  1.00  0.00     0.157 C 
HETATM   36  C   UNL     1      28.664  47.110  40.252  1.00  0.00     0.111 A 
HETATM   37  C   UNL     1      27.739  47.745  41.040  1.00  0.00     0.136 A 
HETATM   38  N   UNL     1      27.919  49.097  40.974  1.00  0.00    -0.244 NA
ENDBRANCH  27  33
ENDBRANCH   1  26
TORSDOF 7
ENDMDL
MODEL 6
REMARK VINA RESULT:      -8.1     14.924     18.856
REMARK  7 active torsions:
REMARK  status: ('A' for Active; 'I' for Inactive)
REMARK    1  A    between atoms: C_3  and  C_4 
REMARK    2  A    between atoms: N_5  and  C_7 
REMARK    3  A    between atoms: N_10  and  C_11 
REMARK    4  A    between atoms: C_14  and  C_15 
REMARK       I    between atoms: C_15  and  N_16 
REMARK    5  A    between atoms: N_16  and  C_17 
REMARK    6  A    between atoms: C_17  and  C_18 
REMARK    7  A    between atoms: C_18  and  N_19 
ROOT
HETATM    1  C   UNL     1      31.998  50.395  41.488  1.00  0.00     0.191 C 
HETATM    2  C   UNL     1      33.282  50.537  40.670  1.00  0.00     0.048 C 
HETATM    3  C   UNL     1      34.210  51.629  41.150  1.00  0.00     0.098 C 
HETATM    4  N   UNL     1      34.456  51.453  42.587  1.00  0.00    -0.283 NA
HETATM    5  C   UNL     1      33.266  51.585  43.423  1.00  0.00     0.098 C 
HETATM    6  C   UNL     1      32.225  50.535  43.008  1.00  0.00     0.048 C 
ENDROOT
BRANCH   4   7
HETATM    7  C   UNL     1      35.623  52.148  42.961  1.00  0.00     0.010 A 
HETATM    8  C   UNL     1      35.880  52.612  44.259  1.00  0.00     0.024 A 
HETATM    9  C   UNL     1      36.948  53.488  44.514  1.00  0.00     0.019 A 
HETATM   10  C   UNL     1      37.778  53.894  43.464  1.00  0.00     0.032 A 
HETATM   11  C   UNL     1      37.591  53.373  42.186  1.00  0.00     0.019 A 
HETATM   12  C   UNL     1      36.535  52.495  41.948  1.00  0.00     0.024 A 
BRANCH  10  13
HETATM   13  C   UNL     1      38.741  55.003  43.624  1.00  0.00     0.251 C 
HETATM   14  N   UNL     1      39.867  54.774  44.374  1.00  0.00    -0.355 N 
HETATM   15  H   UNL     1      39.982  53.843  44.768  1.00  0.00     0.162 HD
HETATM   16  O   UNL     1      38.497  56.087  43.100  1.00  0.00    -0.268 OA
BRANCH  14  17
HETATM   17  C   UNL     1      40.763  55.815  44.878  1.00  0.00     0.150 C 
BRANCH  17  18
HETATM   18  C   UNL     1      41.060  55.845  46.399  1.00  0.00     0.254 C 
BRANCH  18  19
HETATM   19  N   UNL     1      42.309  55.093  46.787  1.00  0.00    -0.066 N 
HETATM   20  H   UNL     1      42.923  55.135  45.945  1.00  0.00     0.280 HD
HETATM   21  C   UNL     1      43.116  55.694  47.922  1.00  0.00     0.261 C 
HETATM   22  C   UNL     1      44.406  54.885  48.116  1.00  0.00     0.195 C 
HETATM   23  O   UNL     1      44.114  53.508  48.373  1.00  0.00    -0.388 OA
HETATM   24  C   UNL     1      43.407  52.908  47.281  1.00  0.00     0.195 C 
HETATM   25  C   UNL     1      42.067  53.614  47.038  1.00  0.00     0.261 C 
ENDBRANCH  18  19
ENDBRANCH  17  18
ENDBRANCH  14  17
ENDBRANCH  10  13
ENDBRANCH   4   7
BRANCH   1  26
HETATM   26  N   UNL     1      30.798  51.252  40.982  1.00  0.00    -0.056 N 
HETATM   27  C   UNL     1      30.162  50.723  39.669  1.00  0.00     0.257 C 
HETATM   28  C   UNL     1      28.884  51.508  39.348  1.00  0.00     0.041 C 
HETATM   29  C   UNL     1      29.150  53.005  39.275  1.00  0.00     0.004 C 
HETATM   30  C   UNL     1      29.761  53.489  40.578  1.00  0.00     0.028 C 
HETATM   31  C   UNL     1      31.043  52.740  40.910  1.00  0.00     0.236 C 
HETATM   32  H   UNL     1      30.075  51.113  41.697  1.00  0.00     0.281 HD
BRANCH  27  33
HETATM   33  C   UNL     1      29.980  49.227  39.601  1.00  0.00     0.136 A 
HETATM   34  N   UNL     1      29.273  48.408  40.457  1.00  0.00    -0.346 N 
HETATM   35  C   UNL     1      28.543  48.754  41.653  1.00  0.00     0.157 C 
HETATM   36  C   UNL     1      29.376  47.127  39.987  1.00  0.00     0.111 A 
HETATM   37  C   UNL     1      30.164  47.203  38.868  1.00  0.00     0.136 A 
HETATM   38  N   UNL     1      30.551  48.496  38.657  1.00  0.00    -0.244 NA
ENDBRANCH  27  33
ENDBRANCH   1  26
TORSDOF 7
ENDMDL
MODEL 7
REMARK VINA RESULT:      -8.1     14.474     17.643
REMARK  7 active torsions:
REMARK  status: ('A' for Active; 'I' for Inactive)
REMARK    1  A    between atoms: C_3  and  C_4 
REMARK    2  A    between atoms: N_5  and  C_7 
REMARK    3  A    between atoms: N_10  and  C_11 
REMARK    4  A    between atoms: C_14  and  C_15 
REMARK       I    between atoms: C_15  and  N_16 
REMARK    5  A    between atoms: N_16  and  C_17 
REMARK    6  A    between atoms: C_17  and  C_18 
REMARK    7  A    between atoms: C_18  and  N_19 
ROOT
HETATM    1  C   UNL     1      30.567  48.774  41.123  1.00  0.00     0.191 C 
HETATM    2  C   UNL     1      31.842  48.916  40.291  1.00  0.00     0.048 C 
HETATM    3  C   UNL     1      32.667  50.140  40.618  1.00  0.00     0.098 C 
HETATM    4  N   UNL     1      32.912  50.182  42.065  1.00  0.00    -0.283 NA
HETATM    5  C   UNL     1      31.706  50.321  42.877  1.00  0.00     0.098 C 
HETATM    6  C   UNL     1      30.766  49.137  42.610  1.00  0.00     0.048 C 
ENDROOT
BRANCH   4   7
HETATM    7  C   UNL     1      34.010  51.021  42.339  1.00  0.00     0.010 A 
HETATM    8  C   UNL     1      35.106  51.187  41.481  1.00  0.00     0.024 A 
HETATM    9  C   UNL     1      36.264  51.857  41.910  1.00  0.00     0.019 A 
HETATM   10  C   UNL     1      36.322  52.379  43.206  1.00  0.00     0.032 A 
HETATM   11  C   UNL     1      35.210  52.301  44.041  1.00  0.00     0.019 A 
HETATM   12  C   UNL     1      34.063  51.645  43.599  1.00  0.00     0.024 A 
BRANCH  10  13
HETATM   13  C   UNL     1      37.593  52.855  43.792  1.00  0.00     0.251 C 
HETATM   14  N   UNL     1      37.899  54.187  43.666  1.00  0.00    -0.355 N 
HETATM   15  H   UNL     1      37.224  54.777  43.186  1.00  0.00     0.162 HD
HETATM   16  O   UNL     1      38.331  52.050  44.352  1.00  0.00    -0.268 OA
BRANCH  14  17
HETATM   17  C   UNL     1      39.220  54.769  43.914  1.00  0.00     0.150 C 
BRANCH  17  18
HETATM   18  C   UNL     1      39.419  55.590  45.213  1.00  0.00     0.254 C 
BRANCH  18  19
HETATM   19  N   UNL     1      39.747  54.745  46.419  1.00  0.00    -0.066 N 
HETATM   20  H   UNL     1      39.935  53.792  46.040  1.00  0.00     0.280 HD
HETATM   21  C   UNL     1      40.993  55.143  47.186  1.00  0.00     0.261 C 
HETATM   22  C   UNL     1      41.252  54.125  48.305  1.00  0.00     0.195 C 
HETATM   23  O   UNL     1      40.125  54.028  49.181  1.00  0.00    -0.388 OA
HETATM   24  C   UNL     1      38.952  53.591  48.483  1.00  0.00     0.195 C 
HETATM   25  C   UNL     1      38.574  54.577  47.371  1.00  0.00     0.261 C 
ENDBRANCH  18  19
ENDBRANCH  17  18
ENDBRANCH  14  17
ENDBRANCH  10  13
ENDBRANCH   4   7
BRANCH   1  26
HETATM   26  N   UNL     1      29.302  49.446  40.508  1.00  0.00    -0.056 N 
HETATM   27  C   UNL     1      28.834  48.798  39.178  1.00  0.00     0.257 C 
HETATM   28  C   UNL     1      27.489  49.394  38.744  1.00  0.00     0.041 C 
HETATM   29  C   UNL     1      27.559  50.910  38.631  1.00  0.00     0.004 C 
HETATM   30  C   UNL     1      28.009  51.510  39.951  1.00  0.00     0.028 C 
HETATM   31  C   UNL     1      29.353  50.951  40.394  1.00  0.00     0.236 C 
HETATM   32  H   UNL     1      28.556  49.232  41.179  1.00  0.00     0.281 HD
BRANCH  27  33
HETATM   33  C   UNL     1      28.856  47.289  39.156  1.00  0.00     0.136 A 
HETATM   34  N   UNL     1      28.160  46.409  39.958  1.00  0.00    -0.346 N 
HETATM   35  C   UNL     1      27.250  46.688  41.042  1.00  0.00     0.157 C 
HETATM   36  C   UNL     1      28.486  45.139  39.562  1.00  0.00     0.111 A 
HETATM   37  C   UNL     1      29.390  45.288  38.543  1.00  0.00     0.136 A 
HETATM   38  N   UNL     1      29.630  46.614  38.321  1.00  0.00    -0.244 NA
ENDBRANCH  27  33
ENDBRANCH   1  26
TORSDOF 7
ENDMDL
MODEL 8
REMARK VINA RESULT:      -7.9     15.194     19.132
REMARK  7 active torsions:
REMARK  status: ('A' for Active; 'I' for Inactive)
REMARK    1  A    between atoms: C_3  and  C_4 
REMARK    2  A    between atoms: N_5  and  C_7 
REMARK    3  A    between atoms: N_10  and  C_11 
REMARK    4  A    between atoms: C_14  and  C_15 
REMARK       I    between atoms: C_15  and  N_16 
REMARK    5  A    between atoms: N_16  and  C_17 
REMARK    6  A    between atoms: C_17  and  C_18 
REMARK    7  A    between atoms: C_18  and  N_19 
ROOT
HETATM    1  C   UNL     1      32.093  51.230  40.946  1.00  0.00     0.191 C 
HETATM    2  C   UNL     1      32.427  51.182  42.438  1.00  0.00     0.048 C 
HETATM    3  C   UNL     1      33.879  50.890  42.742  1.00  0.00     0.098 C 
HETATM    4  N   UNL     1      34.725  51.825  41.989  1.00  0.00    -0.283 NA
HETATM    5  C   UNL     1      34.619  51.698  40.538  1.00  0.00     0.098 C 
HETATM    6  C   UNL     1      33.168  51.948  40.103  1.00  0.00     0.048 C 
ENDROOT
BRANCH   4   7
HETATM    7  C   UNL     1      36.008  51.881  42.569  1.00  0.00     0.010 A 
HETATM    8  C   UNL     1      37.080  51.062  42.186  1.00  0.00     0.024 A 
HETATM    9  C   UNL     1      38.258  51.012  42.951  1.00  0.00     0.019 A 
HETATM   10  C   UNL     1      38.372  51.799  44.101  1.00  0.00     0.032 A 
HETATM   11  C   UNL     1      37.352  52.683  44.446  1.00  0.00     0.019 A 
HETATM   12  C   UNL     1      36.194  52.733  43.673  1.00  0.00     0.024 A 
BRANCH  10  13
HETATM   13  C   UNL     1      39.466  51.593  45.074  1.00  0.00     0.251 C 
HETATM   14  N   UNL     1      40.072  52.704  45.604  1.00  0.00    -0.355 N 
HETATM   15  H   UNL     1      39.723  53.612  45.306  1.00  0.00     0.162 HD
HETATM   16  O   UNL     1      39.802  50.448  45.360  1.00  0.00    -0.268 OA
BRANCH  14  17
HETATM   17  C   UNL     1      41.340  52.697  46.335  1.00  0.00     0.150 C 
BRANCH  17  18
HETATM   18  C   UNL     1      41.807  54.021  46.992  1.00  0.00     0.254 C 
BRANCH  18  19
HETATM   19  N   UNL     1      43.277  54.042  47.333  1.00  0.00    -0.066 N 
HETATM   20  H   UNL     1      43.756  54.324  46.451  1.00  0.00     0.280 HD
HETATM   21  C   UNL     1      43.697  55.055  48.380  1.00  0.00     0.261 C 
HETATM   22  C   UNL     1      45.225  55.032  48.529  1.00  0.00     0.195 C 
HETATM   23  O   UNL     1      45.687  53.723  48.874  1.00  0.00    -0.388 OA
HETATM   24  C   UNL     1      45.353  52.764  47.863  1.00  0.00     0.195 C 
HETATM   25  C   UNL     1      43.834  52.670  47.675  1.00  0.00     0.261 C 
ENDBRANCH  18  19
ENDBRANCH  17  18
ENDBRANCH  14  17
ENDBRANCH  10  13
ENDBRANCH   4   7
BRANCH   1  26
HETATM   26  N   UNL     1      31.659  49.867  40.325  1.00  0.00    -0.056 N 
HETATM   27  C   UNL     1      30.179  49.835  39.862  1.00  0.00     0.257 C 
HETATM   28  C   UNL     1      29.892  48.535  39.100  1.00  0.00     0.041 C 
HETATM   29  C   UNL     1      30.242  47.310  39.933  1.00  0.00     0.004 C 
HETATM   30  C   UNL     1      31.698  47.369  40.359  1.00  0.00     0.028 C 
HETATM   31  C   UNL     1      32.005  48.641  41.136  1.00  0.00     0.236 C 
HETATM   32  H   UNL     1      32.205  49.804  39.459  1.00  0.00     0.281 HD
BRANCH  27  33
HETATM   33  C   UNL     1      29.705  51.071  39.137  1.00  0.00     0.136 A 
HETATM   34  N   UNL     1      28.946  52.114  39.626  1.00  0.00    -0.346 N 
HETATM   35  C   UNL     1      28.382  52.292  40.942  1.00  0.00     0.157 C 
HETATM   36  C   UNL     1      28.778  53.017  38.610  1.00  0.00     0.111 A 
HETATM   37  C   UNL     1      29.424  52.482  37.527  1.00  0.00     0.136 A 
HETATM   38  N   UNL     1      29.967  51.273  37.856  1.00  0.00    -0.244 NA
ENDBRANCH  27  33
ENDBRANCH   1  26
TORSDOF 7
ENDMDL
MODEL 9
REMARK VINA RESULT:      -7.9      3.766     13.550
REMARK  7 active torsions:
REMARK  status: ('A' for Active; 'I' for Inactive)
REMARK    1  A    between atoms: C_3  and  C_4 
REMARK    2  A    between atoms: N_5  and  C_7 
REMARK    3  A    between atoms: N_10  and  C_11 
REMARK    4  A    between atoms: C_14  and  C_15 
REMARK       I    between atoms: C_15  and  N_16 
REMARK    5  A    between atoms: N_16  and  C_17 
REMARK    6  A    between atoms: C_17  and  C_18 
REMARK    7  A    between atoms: C_18  and  N_19 
ROOT
HETATM    1  C   UNL     1      27.100  44.683  51.250  1.00  0.00     0.191 C 
HETATM    2  C   UNL     1      27.274  45.295  49.859  1.00  0.00     0.048 C 
HETATM    3  C   UNL     1      26.010  45.879  49.273  1.00  0.00     0.098 C 
HETATM    4  N   UNL     1      25.414  46.806  50.243  1.00  0.00    -0.283 NA
HETATM    5  C   UNL     1      24.987  46.181  51.491  1.00  0.00     0.098 C 
HETATM    6  C   UNL     1      26.192  45.520  52.175  1.00  0.00     0.048 C 
ENDROOT
BRANCH   4   7
HETATM    7  C   UNL     1      24.521  47.677  49.586  1.00  0.00     0.010 A 
HETATM    8  C   UNL     1      24.822  49.006  49.252  1.00  0.00     0.024 A 
HETATM    9  C   UNL     1      23.819  49.881  48.805  1.00  0.00     0.019 A 
HETATM   10  C   UNL     1      22.504  49.422  48.675  1.00  0.00     0.032 A 
HETATM   11  C   UNL     1      22.206  48.083  48.917  1.00  0.00     0.019 A 
HETATM   12  C   UNL     1      23.212  47.221  49.349  1.00  0.00     0.024 A 
BRANCH  10  13
HETATM   13  C   UNL     1      21.377  50.354  48.465  1.00  0.00     0.251 C 
HETATM   14  N   UNL     1      20.808  50.934  49.571  1.00  0.00    -0.355 N 
HETATM   15  H   UNL     1      21.205  50.699  50.477  1.00  0.00     0.162 HD
HETATM   16  O   UNL     1      20.980  50.564  47.322  1.00  0.00    -0.268 OA
BRANCH  14  17
HETATM   17  C   UNL     1      19.522  51.633  49.580  1.00  0.00     0.150 C 
BRANCH  17  18
HETATM   18  C   UNL     1      18.230  50.777  49.590  1.00  0.00     0.254 C 
BRANCH  18  19
HETATM   19  N   UNL     1      17.512  50.749  48.263  1.00  0.00    -0.066 N 
HETATM   20  H   UNL     1      17.919  49.936  47.752  1.00  0.00     0.280 HD
HETATM   21  C   UNL     1      16.018  50.496  48.325  1.00  0.00     0.261 C 
HETATM   22  C   UNL     1      15.459  50.380  46.901  1.00  0.00     0.195 C 
HETATM   23  O   UNL     1      15.744  51.559  46.140  1.00  0.00    -0.388 OA
HETATM   24  C   UNL     1      17.155  51.776  46.019  1.00  0.00     0.195 C 
HETATM   25  C   UNL     1      17.805  51.961  47.396  1.00  0.00     0.261 C 
ENDBRANCH  18  19
ENDBRANCH  17  18
ENDBRANCH  14  17
ENDBRANCH  10  13
ENDBRANCH   4   7
BRANCH   1  26
HETATM   26  N   UNL     1      26.729  43.169  51.261  1.00  0.00    -0.056 N 
HETATM   27  C   UNL     1      27.898  42.241  51.686  1.00  0.00     0.257 C 
HETATM   28  C   UNL     1      27.398  40.800  51.848  1.00  0.00     0.041 C 
HETATM   29  C   UNL     1      26.719  40.297  50.582  1.00  0.00     0.004 C 
HETATM   30  C   UNL     1      25.575  41.221  50.202  1.00  0.00     0.028 C 
HETATM   31  C   UNL     1      26.049  42.655  50.014  1.00  0.00     0.236 C 
HETATM   32  H   UNL     1      26.042  43.087  52.018  1.00  0.00     0.281 HD
BRANCH  27  33
HETATM   33  C   UNL     1      28.711  42.730  52.859  1.00  0.00     0.136 A 
HETATM   34  N   UNL     1      28.275  43.077  54.121  1.00  0.00    -0.346 N 
HETATM   35  C   UNL     1      26.932  43.092  54.648  1.00  0.00     0.157 C 
HETATM   36  C   UNL     1      29.372  43.444  54.853  1.00  0.00     0.111 A 
HETATM   37  C   UNL     1      30.441  43.329  54.005  1.00  0.00     0.136 A 
HETATM   38  N   UNL     1      30.019  42.915  52.774  1.00  0.00    -0.244 NA
ENDBRANCH  27  33
ENDBRANCH   1  26
TORSDOF 7
ENDMDL
MODEL 10
REMARK VINA RESULT:      -7.6      2.618      3.600
REMARK  7 active torsions:
REMARK  status: ('A' for Active; 'I' for Inactive)
REMARK    1  A    between atoms: C_3  and  C_4 
REMARK    2  A    between atoms: N_5  and  C_7 
REMARK    3  A    between atoms: N_10  and  C_11 
REMARK    4  A    between atoms: C_14  and  C_15 
REMARK       I    between atoms: C_15  and  N_16 
REMARK    5  A    between atoms: N_16  and  C_17 
REMARK    6  A    between atoms: C_17  and  C_18 
REMARK    7  A    between atoms: C_18  and  N_19 
ROOT
HETATM    1  C   UNL     1      16.608  51.454  44.973  1.00  0.00     0.191 C 
HETATM    2  C   UNL     1      17.377  50.132  44.937  1.00  0.00     0.048 C 
HETATM    3  C   UNL     1      18.718  50.173  45.633  1.00  0.00     0.098 C 
HETATM    4  N   UNL     1      18.539  50.702  46.991  1.00  0.00    -0.283 NA
HETATM    5  C   UNL     1      18.054  52.078  47.043  1.00  0.00     0.098 C 
HETATM    6  C   UNL     1      16.695  52.173  46.335  1.00  0.00     0.048 C 
ENDROOT
BRANCH   4   7
HETATM    7  C   UNL     1      19.642  50.345  47.792  1.00  0.00     0.010 A 
HETATM    8  C   UNL     1      20.504  51.269  48.399  1.00  0.00     0.024 A 
HETATM    9  C   UNL     1      21.706  50.851  48.994  1.00  0.00     0.019 A 
HETATM   10  C   UNL     1      22.044  49.494  48.994  1.00  0.00     0.032 A 
HETATM   11  C   UNL     1      21.158  48.554  48.474  1.00  0.00     0.019 A 
HETATM   12  C   UNL     1      19.963  48.980  47.898  1.00  0.00     0.024 A 
BRANCH  10  13
HETATM   13  C   UNL     1      23.400  49.035  49.365  1.00  0.00     0.251 C 
HETATM   14  N   UNL     1      23.517  47.820  49.992  1.00  0.00    -0.355 N 
HETATM   15  H   UNL     1      22.662  47.295  50.154  1.00  0.00     0.162 HD
HETATM   16  O   UNL     1      24.363  49.755  49.118  1.00  0.00    -0.268 OA
BRANCH  14  17
HETATM   17  C   UNL     1      24.718  47.349  50.685  1.00  0.00     0.150 C 
BRANCH  17  18
HETATM   18  C   UNL     1      24.859  45.826  50.937  1.00  0.00     0.254 C 
BRANCH  18  19
HETATM   19  N   UNL     1      25.769  45.486  52.092  1.00  0.00    -0.066 N 
HETATM   20  H   UNL     1      26.725  45.434  51.677  1.00  0.00     0.280 HD
HETATM   21  C   UNL     1      25.849  46.520  53.197  1.00  0.00     0.261 C 
HETATM   22  C   UNL     1      26.896  46.084  54.231  1.00  0.00     0.195 C 
HETATM   23  O   UNL     1      26.583  44.793  54.764  1.00  0.00    -0.388 OA
HETATM   24  C   UNL     1      26.566  43.792  53.739  1.00  0.00     0.195 C 
HETATM   25  C   UNL     1      25.507  44.108  52.677  1.00  0.00     0.261 C 
ENDBRANCH  18  19
ENDBRANCH  17  18
ENDBRANCH  14  17
ENDBRANCH  10  13
ENDBRANCH   4   7
BRANCH   1  26
HETATM   26  N   UNL     1      16.887  52.410  43.774  1.00  0.00    -0.056 N 
HETATM   27  C   UNL     1      15.610  53.077  43.196  1.00  0.00     0.257 C 
HETATM   28  C   UNL     1      15.992  54.134  42.152  1.00  0.00     0.041 C 
HETATM   29  C   UNL     1      16.861  53.545  41.050  1.00  0.00     0.004 C 
HETATM   30  C   UNL     1      18.105  52.912  41.651  1.00  0.00     0.028 C 
HETATM   31  C   UNL     1      17.752  51.843  42.674  1.00  0.00     0.236 C 
HETATM   32  H   UNL     1      17.419  53.182  44.191  1.00  0.00     0.281 HD
BRANCH  27  33
HETATM   33  C   UNL     1      14.625  53.577  44.224  1.00  0.00     0.136 A 
HETATM   34  N   UNL     1      13.470  52.971  44.671  1.00  0.00    -0.346 N 
HETATM   35  C   UNL     1      12.882  51.718  44.263  1.00  0.00     0.157 C 
HETATM   36  C   UNL     1      12.911  53.789  45.616  1.00  0.00     0.111 A 
HETATM   37  C   UNL     1      13.734  54.881  45.697  1.00  0.00     0.136 A 
HETATM   38  N   UNL     1      14.770  54.751  44.817  1.00  0.00    -0.244 NA
ENDBRANCH  27  33
ENDBRANCH   1  26
TORSDOF 7
ENDMDL
