MODEL 1
REMARK VINA RESULT:      -8.1      0.000      0.000
REMARK  9 active torsions:
REMARK  status: ('A' for Active; 'I' for Inactive)
REMARK    1  A    between atoms: C_6  and  C_7 
REMARK    2  A    between atoms: C_7  and  C_8 
REMARK    3  A    between atoms: C_11  and  N_12 
REMARK       I    between atoms: N_12  and  C_13 
REMARK       I    between atoms: C_13  and  N_14 
REMARK    4  A    between atoms: N_14  and  C_15 
REMARK    5  A    between atoms: C_15  and  C_16 
REMARK    6  A    between atoms: C_16  and  C_17 
REMARK    7  A    between atoms: C_16  and  C_19 
REMARK    8  A    between atoms: C_17  and  O_18 
REMARK    9  A    between atoms: C_19  and  C_20 
ROOT
HETATM    1  N   UNL     1      26.607  48.621  49.160  1.00  0.00    -0.309 N 
HETATM    2  C   UNL     1      25.822  49.448  48.425  1.00  0.00     0.320 C 
HETATM    3  N   UNL     1      24.478  49.433  48.629  1.00  0.00    -0.342 N 
HETATM    4  O   UNL     1      26.363  50.205  47.621  1.00  0.00    -0.247 OA
HETATM    5  H   UNL     1      27.580  48.853  49.004  1.00  0.00     0.170 HD
HETATM    6  H   UNL     1      24.203  49.246  49.589  1.00  0.00     0.164 HD
ENDROOT
BRANCH   1   7
HETATM    7  C   UNL     1      26.365  47.523  50.003  1.00  0.00     0.036 A 
HETATM    8  C   UNL     1      25.575  47.548  51.151  1.00  0.00     0.030 A 
HETATM    9  C   UNL     1      25.382  46.384  51.907  1.00  0.00     0.010 A 
HETATM   10  C   UNL     1      25.961  45.169  51.516  1.00  0.00    -0.051 A 
HETATM   11  C   UNL     1      26.736  45.138  50.352  1.00  0.00     0.010 A 
HETATM   12  C   UNL     1      26.933  46.303  49.608  1.00  0.00     0.030 A 
BRANCH  10  13
HETATM   13  C   UNL     1      25.692  43.900  52.292  1.00  0.00     0.118 C 
BRANCH  13  14
HETATM   14  C   UNL     1      26.906  43.276  52.896  1.00  0.00     0.126 A 
HETATM   15  N   UNL     1      27.168  41.932  52.890  1.00  0.00    -0.263 N 
HETATM   16  N   UNL     1      28.323  41.653  53.511  1.00  0.00    -0.158 NA
HETATM   17  H   UNL     1      26.617  41.178  52.492  1.00  0.00     0.190 HD
HETATM   18  C   UNL     1      28.730  42.871  53.882  1.00  0.00     0.144 A 
HETATM   19  C   UNL     1      29.990  43.103  54.614  1.00  0.00     0.095 C 
HETATM   20  N   UNL     1      27.890  43.891  53.520  1.00  0.00    -0.217 NA
ENDBRANCH  13  14
ENDBRANCH  10  13
ENDBRANCH   1   7
BRANCH   3  21
HETATM   21  C   UNL     1      23.652  50.407  47.944  1.00  0.00     0.131 C 
BRANCH  21  22
HETATM   22  C   UNL     1      22.349  50.761  48.678  1.00  0.00     0.033 C 
BRANCH  22  23
HETATM   23  C   UNL     1      22.203  49.954  49.976  1.00  0.00     0.170 C 
BRANCH  23  24
HETATM   24  O   UNL     1      21.698  48.647  49.731  1.00  0.00    -0.400 OA
HETATM   25  H   UNL     1      22.379  48.029  50.060  1.00  0.00     0.209 HD
ENDBRANCH  23  24
ENDBRANCH  22  23
BRANCH  22  26
HETATM   26  C   UNL     1      21.144  50.619  47.732  1.00  0.00     0.073 C 
BRANCH  26  27
HETATM   27  C   UNL     1      19.901  51.172  48.332  1.00  0.00     0.053 A 
HETATM   28  O   UNL     1      19.093  50.291  48.987  1.00  0.00    -0.327 OA
HETATM   29  C   UNL     1      18.038  51.003  49.462  1.00  0.00     0.142 A 
HETATM   30  C   UNL     1      18.157  52.329  49.118  1.00  0.00     0.027 A 
HETATM   31  C   UNL     1      19.361  52.440  48.384  1.00  0.00     0.034 A 
ENDBRANCH  26  27
ENDBRANCH  22  26
ENDBRANCH  21  22
ENDBRANCH   3  21
TORSDOF 9
ENDMDL
MODEL 2
REMARK VINA RESULT:      -8.0      4.314     10.049
REMARK  9 active torsions:
REMARK  status: ('A' for Active; 'I' for Inactive)
REMARK    1  A    between atoms: C_6  and  C_7 
REMARK    2  A    between atoms: C_7  and  C_8 
REMARK    3  A    between atoms: C_11  and  N_12 
REMARK       I    between atoms: N_12  and  C_13 
REMARK       I    between atoms: C_13  and  N_14 
REMARK    4  A    between atoms: N_14  and  C_15 
REMARK    5  A    between atoms: C_15  and  C_16 
REMARK    6  A    between atoms: C_16  and  C_17 
REMARK    7  A    between atoms: C_16  and  C_19 
REMARK    8  A    between atoms: C_17  and  O_18 
REMARK    9  A    between atoms: C_19  and  C_20 
ROOT
HETATM    1  N   UNL     1      26.291  42.114  50.763  1.00  0.00    -0.309 N 
HETATM    2  C   UNL     1      27.398  42.325  51.518  1.00  0.00     0.320 C 
HETATM    3  N   UNL     1      27.541  43.516  52.157  1.00  0.00    -0.342 N 
HETATM    4  O   UNL     1      28.219  41.415  51.619  1.00  0.00    -0.247 OA
HETATM    5  H   UNL     1      26.257  41.142  50.480  1.00  0.00     0.170 HD
HETATM    6  H   UNL     1      26.667  43.930  52.470  1.00  0.00     0.164 HD
ENDROOT
BRANCH   1   7
HETATM    7  C   UNL     1      25.264  42.934  50.266  1.00  0.00     0.036 A 
HETATM    8  C   UNL     1      23.926  42.873  50.653  1.00  0.00     0.030 A 
HETATM    9  C   UNL     1      22.988  43.760  50.108  1.00  0.00     0.010 A 
HETATM   10  C   UNL     1      23.377  44.737  49.181  1.00  0.00    -0.051 A 
HETATM   11  C   UNL     1      24.722  44.814  48.810  1.00  0.00     0.010 A 
HETATM   12  C   UNL     1      25.652  43.921  49.348  1.00  0.00     0.030 A 
BRANCH  10  13
HETATM   13  C   UNL     1      22.376  45.740  48.651  1.00  0.00     0.118 C 
BRANCH  13  14
HETATM   14  C   UNL     1      22.807  47.164  48.768  1.00  0.00     0.126 A 
HETATM   15  N   UNL     1      23.360  47.713  49.894  1.00  0.00    -0.263 N 
HETATM   16  N   UNL     1      23.642  49.013  49.720  1.00  0.00    -0.158 NA
HETATM   17  H   UNL     1      23.564  47.271  50.784  1.00  0.00     0.190 HD
HETATM   18  C   UNL     1      23.238  49.209  48.461  1.00  0.00     0.144 A 
HETATM   19  C   UNL     1      23.346  50.516  47.783  1.00  0.00     0.095 C 
HETATM   20  N   UNL     1      22.724  48.099  47.844  1.00  0.00    -0.217 NA
ENDBRANCH  13  14
ENDBRANCH  10  13
ENDBRANCH   1   7
BRANCH   3  21
HETATM   21  C   UNL     1      28.653  43.696  53.069  1.00  0.00     0.131 C 
BRANCH  21  22
HETATM   22  C   UNL     1      28.242  44.008  54.517  1.00  0.00     0.033 C 
BRANCH  22  23
HETATM   23  C   UNL     1      26.747  44.346  54.611  1.00  0.00     0.170 C 
BRANCH  23  24
HETATM   24  O   UNL     1      25.945  43.173  54.683  1.00  0.00    -0.400 OA
HETATM   25  H   UNL     1      25.087  43.410  54.280  1.00  0.00     0.209 HD
ENDBRANCH  23  24
ENDBRANCH  22  23
BRANCH  22  26
HETATM   26  C   UNL     1      29.154  45.095  55.112  1.00  0.00     0.073 C 
BRANCH  26  27
HETATM   27  C   UNL     1      30.183  44.519  56.017  1.00  0.00     0.053 A 
HETATM   28  O   UNL     1      30.360  45.141  57.217  1.00  0.00    -0.327 OA
HETATM   29  C   UNL     1      31.324  44.450  57.880  1.00  0.00     0.142 A 
HETATM   30  C   UNL     1      31.769  43.393  57.120  1.00  0.00     0.027 A 
HETATM   31  C   UNL     1      31.033  43.438  55.913  1.00  0.00     0.034 A 
ENDBRANCH  26  27
ENDBRANCH  22  26
ENDBRANCH  21  22
ENDBRANCH   3  21
TORSDOF 9
ENDMDL
MODEL 3
REMARK VINA RESULT:      -8.0      2.871      5.181
REMARK  9 active torsions:
REMARK  status: ('A' for Active; 'I' for Inactive)
REMARK    1  A    between atoms: C_6  and  C_7 
REMARK    2  A    between atoms: C_7  and  C_8 
REMARK    3  A    between atoms: C_11  and  N_12 
REMARK       I    between atoms: N_12  and  C_13 
REMARK       I    between atoms: C_13  and  N_14 
REMARK    4  A    between atoms: N_14  and  C_15 
REMARK    5  A    between atoms: C_15  and  C_16 
REMARK    6  A    between atoms: C_16  and  C_17 
REMARK    7  A    between atoms: C_16  and  C_19 
REMARK    8  A    between atoms: C_17  and  O_18 
REMARK    9  A    between atoms: C_19  and  C_20 
ROOT
HETATM    1  N   UNL     1      25.471  43.331  52.439  1.00  0.00    -0.309 N 
HETATM    2  C   UNL     1      24.841  43.997  51.439  1.00  0.00     0.320 C 
HETATM    3  N   UNL     1      25.585  44.718  50.559  1.00  0.00    -0.342 N 
HETATM    4  O   UNL     1      23.618  43.896  51.348  1.00  0.00    -0.247 OA
HETATM    5  H   UNL     1      24.808  42.728  52.911  1.00  0.00     0.170 HD
HETATM    6  H   UNL     1      26.500  44.324  50.364  1.00  0.00     0.164 HD
ENDROOT
BRANCH   1   7
HETATM    7  C   UNL     1      26.771  43.349  52.970  1.00  0.00     0.036 A 
HETATM    8  C   UNL     1      27.335  44.406  53.683  1.00  0.00     0.030 A 
HETATM    9  C   UNL     1      28.638  44.305  54.190  1.00  0.00     0.010 A 
HETATM   10  C   UNL     1      29.391  43.137  54.010  1.00  0.00    -0.051 A 
HETATM   11  C   UNL     1      28.818  42.068  53.315  1.00  0.00     0.010 A 
HETATM   12  C   UNL     1      27.523  42.176  52.803  1.00  0.00     0.030 A 
BRANCH  10  13
HETATM   13  C   UNL     1      30.768  43.004  54.621  1.00  0.00     0.118 C 
BRANCH  13  14
HETATM   14  C   UNL     1      30.930  43.696  55.934  1.00  0.00     0.126 A 
HETATM   15  N   UNL     1      31.683  43.217  56.971  1.00  0.00    -0.263 N 
HETATM   16  N   UNL     1      31.642  44.039  58.030  1.00  0.00    -0.158 NA
HETATM   17  H   UNL     1      32.231  42.364  57.021  1.00  0.00     0.190 HD
HETATM   18  C   UNL     1      30.843  45.014  57.583  1.00  0.00     0.144 A 
HETATM   19  C   UNL     1      30.484  46.189  58.400  1.00  0.00     0.095 C 
HETATM   20  N   UNL     1      30.390  44.840  56.302  1.00  0.00    -0.217 NA
ENDBRANCH  13  14
ENDBRANCH  10  13
ENDBRANCH   1   7
BRANCH   3  21
HETATM   21  C   UNL     1      24.931  45.319  49.413  1.00  0.00     0.131 C 
BRANCH  21  22
HETATM   22  C   UNL     1      24.628  46.817  49.570  1.00  0.00     0.033 C 
BRANCH  22  23
HETATM   23  C   UNL     1      24.884  47.290  51.008  1.00  0.00     0.170 C 
BRANCH  23  24
HETATM   24  O   UNL     1      26.231  47.714  51.192  1.00  0.00    -0.400 OA
HETATM   25  H   UNL     1      26.705  47.464  50.375  1.00  0.00     0.209 HD
ENDBRANCH  23  24
ENDBRANCH  22  23
BRANCH  22  26
HETATM   26  C   UNL     1      23.208  47.134  49.067  1.00  0.00     0.073 C 
BRANCH  26  27
HETATM   27  C   UNL     1      23.034  48.581  48.778  1.00  0.00     0.053 A 
HETATM   28  O   UNL     1      23.977  49.165  47.985  1.00  0.00    -0.327 OA
HETATM   29  C   UNL     1      23.618  50.468  47.841  1.00  0.00     0.142 A 
HETATM   30  C   UNL     1      22.459  50.728  48.534  1.00  0.00     0.027 A 
HETATM   31  C   UNL     1      22.081  49.509  49.143  1.00  0.00     0.034 A 
ENDBRANCH  26  27
ENDBRANCH  22  26
ENDBRANCH  21  22
ENDBRANCH   3  21
TORSDOF 9
ENDMDL
MODEL 4
REMARK VINA RESULT:      -8.0      1.662      2.037
REMARK  9 active torsions:
REMARK  status: ('A' for Active; 'I' for Inactive)
REMARK    1  A    between atoms: C_6  and  C_7 
REMARK    2  A    between atoms: C_7  and  C_8 
REMARK    3  A    between atoms: C_11  and  N_12 
REMARK       I    between atoms: N_12  and  C_13 
REMARK       I    between atoms: C_13  and  N_14 
REMARK    4  A    between atoms: N_14  and  C_15 
REMARK    5  A    between atoms: C_15  and  C_16 
REMARK    6  A    between atoms: C_16  and  C_17 
REMARK    7  A    between atoms: C_16  and  C_19 
REMARK    8  A    between atoms: C_17  and  O_18 
REMARK    9  A    between atoms: C_19  and  C_20 
ROOT
HETATM    1  N   UNL     1      24.832  47.756  49.790  1.00  0.00    -0.309 N 
HETATM    2  C   UNL     1      23.791  48.284  49.098  1.00  0.00     0.320 C 
HETATM    3  N   UNL     1      22.528  48.096  49.565  1.00  0.00    -0.342 N 
HETATM    4  O   UNL     1      24.035  48.942  48.088  1.00  0.00    -0.247 OA
HETATM    5  H   UNL     1      25.702  48.104  49.407  1.00  0.00     0.170 HD
HETATM    6  H   UNL     1      22.457  48.063  50.577  1.00  0.00     0.164 HD
ENDROOT
BRANCH   1   7
HETATM    7  C   UNL     1      24.950  46.825  50.835  1.00  0.00     0.036 A 
HETATM    8  C   UNL     1      24.564  45.487  50.769  1.00  0.00     0.030 A 
HETATM    9  C   UNL     1      24.752  44.637  51.868  1.00  0.00     0.010 A 
HETATM   10  C   UNL     1      25.348  45.109  53.046  1.00  0.00    -0.051 A 
HETATM   11  C   UNL     1      25.757  46.444  53.105  1.00  0.00     0.010 A 
HETATM   12  C   UNL     1      25.558  47.289  52.011  1.00  0.00     0.030 A 
BRANCH  10  13
HETATM   13  C   UNL     1      25.616  44.173  54.204  1.00  0.00     0.118 C 
BRANCH  13  14
HETATM   14  C   UNL     1      26.970  43.544  54.188  1.00  0.00     0.126 A 
HETATM   15  N   UNL     1      27.238  42.300  53.684  1.00  0.00    -0.263 N 
HETATM   16  N   UNL     1      28.536  41.987  53.810  1.00  0.00    -0.158 NA
HETATM   17  H   UNL     1      26.601  41.636  53.256  1.00  0.00     0.190 HD
HETATM   18  C   UNL     1      29.021  43.082  54.403  1.00  0.00     0.144 A 
HETATM   19  C   UNL     1      30.445  43.234  54.757  1.00  0.00     0.095 C 
HETATM   20  N   UNL     1      28.092  44.060  54.648  1.00  0.00    -0.217 NA
ENDBRANCH  13  14
ENDBRANCH  10  13
ENDBRANCH   1   7
BRANCH   3  21
HETATM   21  C   UNL     1      21.427  48.770  48.905  1.00  0.00     0.131 C 
BRANCH  21  22
HETATM   22  C   UNL     1      20.897  50.002  49.655  1.00  0.00     0.033 C 
BRANCH  22  23
HETATM   23  C   UNL     1      19.493  49.748  50.221  1.00  0.00     0.170 C 
BRANCH  23  24
HETATM   24  O   UNL     1      19.367  48.432  50.750  1.00  0.00    -0.400 OA
HETATM   25  H   UNL     1      19.523  48.513  51.711  1.00  0.00     0.209 HD
ENDBRANCH  23  24
ENDBRANCH  22  23
BRANCH  22  26
HETATM   26  C   UNL     1      20.979  51.251  48.761  1.00  0.00     0.073 C 
BRANCH  26  27
HETATM   27  C   UNL     1      19.710  51.489  48.024  1.00  0.00     0.053 A 
HETATM   28  O   UNL     1      19.460  50.675  46.959  1.00  0.00    -0.327 OA
HETATM   29  C   UNL     1      18.258  51.053  46.450  1.00  0.00     0.142 A 
HETATM   30  C   UNL     1      17.736  52.100  47.172  1.00  0.00     0.027 A 
HETATM   31  C   UNL     1      18.675  52.385  48.190  1.00  0.00     0.034 A 
ENDBRANCH  26  27
ENDBRANCH  22  26
ENDBRANCH  21  22
ENDBRANCH   3  21
TORSDOF 9
ENDMDL
MODEL 5
REMARK VINA RESULT:      -7.9      2.493      4.583
REMARK  9 active torsions:
REMARK  status: ('A' for Active; 'I' for Inactive)
REMARK    1  A    between atoms: C_6  and  C_7 
REMARK    2  A    between atoms: C_7  and  C_8 
REMARK    3  A    between atoms: C_11  and  N_12 
REMARK       I    between atoms: N_12  and  C_13 
REMARK       I    between atoms: C_13  and  N_14 
REMARK    4  A    between atoms: N_14  and  C_15 
REMARK    5  A    between atoms: C_15  and  C_16 
REMARK    6  A    between atoms: C_16  and  C_17 
REMARK    7  A    between atoms: C_16  and  C_19 
REMARK    8  A    between atoms: C_17  and  O_18 
REMARK    9  A    between atoms: C_19  and  C_20 
ROOT
HETATM    1  N   UNL     1      23.890  44.590  48.781  1.00  0.00    -0.309 N 
HETATM    2  C   UNL     1      23.044  45.622  48.539  1.00  0.00     0.320 C 
HETATM    3  N   UNL     1      23.204  46.780  49.234  1.00  0.00    -0.342 N 
HETATM    4  O   UNL     1      22.181  45.481  47.673  1.00  0.00    -0.247 OA
HETATM    5  H   UNL     1      23.742  43.865  48.089  1.00  0.00     0.170 HD
HETATM    6  H   UNL     1      24.168  47.000  49.463  1.00  0.00     0.164 HD
ENDROOT
BRANCH   1   7
HETATM    7  C   UNL     1      24.838  44.304  49.777  1.00  0.00     0.036 A 
HETATM    8  C   UNL     1      24.581  43.610  50.958  1.00  0.00     0.030 A 
HETATM    9  C   UNL     1      25.612  43.359  51.874  1.00  0.00     0.010 A 
HETATM   10  C   UNL     1      26.923  43.781  51.614  1.00  0.00    -0.051 A 
HETATM   11  C   UNL     1      27.187  44.457  50.419  1.00  0.00     0.010 A 
HETATM   12  C   UNL     1      26.154  44.714  49.514  1.00  0.00     0.030 A 
BRANCH  10  13
HETATM   13  C   UNL     1      28.046  43.445  52.569  1.00  0.00     0.118 C 
BRANCH  13  14
HETATM   14  C   UNL     1      28.243  44.438  53.665  1.00  0.00     0.126 A 
HETATM   15  N   UNL     1      29.237  44.366  54.603  1.00  0.00    -0.263 N 
HETATM   16  N   UNL     1      29.168  45.385  55.472  1.00  0.00    -0.158 NA
HETATM   17  H   UNL     1      29.969  43.671  54.703  1.00  0.00     0.190 HD
HETATM   18  C   UNL     1      28.105  46.056  55.017  1.00  0.00     0.144 A 
HETATM   19  C   UNL     1      27.613  47.295  55.649  1.00  0.00     0.095 C 
HETATM   20  N   UNL     1      27.513  45.508  53.909  1.00  0.00    -0.217 NA
ENDBRANCH  13  14
ENDBRANCH  10  13
ENDBRANCH   1   7
BRANCH   3  21
HETATM   21  C   UNL     1      22.390  47.928  48.885  1.00  0.00     0.131 C 
BRANCH  21  22
HETATM   22  C   UNL     1      22.944  49.272  49.382  1.00  0.00     0.033 C 
BRANCH  22  23
HETATM   23  C   UNL     1      21.810  50.246  49.734  1.00  0.00     0.170 C 
BRANCH  23  24
HETATM   24  O   UNL     1      22.085  50.964  50.932  1.00  0.00    -0.400 OA
HETATM   25  H   UNL     1      21.885  51.900  50.736  1.00  0.00     0.209 HD
ENDBRANCH  23  24
ENDBRANCH  22  23
BRANCH  22  26
HETATM   26  C   UNL     1      23.950  49.846  48.370  1.00  0.00     0.073 C 
BRANCH  26  27
HETATM   27  C   UNL     1      25.351  49.491  48.721  1.00  0.00     0.053 A 
HETATM   28  O   UNL     1      25.518  48.557  49.699  1.00  0.00    -0.327 OA
HETATM   29  C   UNL     1      26.857  48.377  49.846  1.00  0.00     0.142 A 
HETATM   30  C   UNL     1      27.551  49.186  48.976  1.00  0.00     0.027 A 
HETATM   31  C   UNL     1      26.577  49.909  48.249  1.00  0.00     0.034 A 
ENDBRANCH  26  27
ENDBRANCH  22  26
ENDBRANCH  21  22
ENDBRANCH   3  21
TORSDOF 9
ENDMDL
MODEL 6
REMARK VINA RESULT:      -7.9      3.626      9.569
REMARK  9 active torsions:
REMARK  status: ('A' for Active; 'I' for Inactive)
REMARK    1  A    between atoms: C_6  and  C_7 
REMARK    2  A    between atoms: C_7  and  C_8 
REMARK    3  A    between atoms: C_11  and  N_12 
REMARK       I    between atoms: N_12  and  C_13 
REMARK       I    between atoms: C_13  and  N_14 
REMARK    4  A    between atoms: N_14  and  C_15 
REMARK    5  A    between atoms: C_15  and  C_16 
REMARK    6  A    between atoms: C_16  and  C_17 
REMARK    7  A    between atoms: C_16  and  C_19 
REMARK    8  A    between atoms: C_17  and  O_18 
REMARK    9  A    between atoms: C_19  and  C_20 
ROOT
HETATM    1  N   UNL     1      23.819  50.131  47.788  1.00  0.00    -0.309 N 
HETATM    2  C   UNL     1      25.053  49.704  48.155  1.00  0.00     0.320 C 
HETATM    3  N   UNL     1      25.163  48.795  49.160  1.00  0.00    -0.342 N 
HETATM    4  O   UNL     1      26.028  50.134  47.539  1.00  0.00    -0.247 OA
HETATM    5  H   UNL     1      23.892  50.680  46.939  1.00  0.00     0.170 HD
HETATM    6  H   UNL     1      24.397  48.130  49.208  1.00  0.00     0.164 HD
ENDROOT
BRANCH   1   7
HETATM    7  C   UNL     1      22.534  50.027  48.344  1.00  0.00     0.036 A 
HETATM    8  C   UNL     1      21.594  49.049  48.023  1.00  0.00     0.030 A 
HETATM    9  C   UNL     1      20.346  49.026  48.661  1.00  0.00     0.010 A 
HETATM   10  C   UNL     1      20.024  49.971  49.645  1.00  0.00    -0.051 A 
HETATM   11  C   UNL     1      20.975  50.939  49.984  1.00  0.00     0.010 A 
HETATM   12  C   UNL     1      22.213  50.963  49.339  1.00  0.00     0.030 A 
BRANCH  10  13
HETATM   13  C   UNL     1      18.706  49.899  50.383  1.00  0.00     0.118 C 
BRANCH  13  14
HETATM   14  C   UNL     1      17.585  50.623  49.715  1.00  0.00     0.126 A 
HETATM   15  N   UNL     1      16.915  50.163  48.614  1.00  0.00    -0.263 N 
HETATM   16  N   UNL     1      15.962  51.021  48.222  1.00  0.00    -0.158 NA
HETATM   17  H   UNL     1      17.054  49.300  48.099  1.00  0.00     0.190 HD
HETATM   18  C   UNL     1      16.093  51.999  49.125  1.00  0.00     0.144 A 
HETATM   19  C   UNL     1      15.242  53.204  49.125  1.00  0.00     0.095 C 
HETATM   20  N   UNL     1      17.075  51.789  50.058  1.00  0.00    -0.217 NA
ENDBRANCH  13  14
ENDBRANCH  10  13
ENDBRANCH   1   7
BRANCH   3  21
HETATM   21  C   UNL     1      26.466  48.237  49.465  1.00  0.00     0.131 C 
BRANCH  21  22
HETATM   22  C   UNL     1      26.427  46.998  50.373  1.00  0.00     0.033 C 
BRANCH  22  23
HETATM   23  C   UNL     1      26.288  45.708  49.552  1.00  0.00     0.170 C 
BRANCH  23  24
HETATM   24  O   UNL     1      27.437  44.878  49.675  1.00  0.00    -0.400 OA
HETATM   25  H   UNL     1      28.206  45.480  49.664  1.00  0.00     0.209 HD
ENDBRANCH  23  24
ENDBRANCH  22  23
BRANCH  22  26
HETATM   26  C   UNL     1      25.342  47.156  51.452  1.00  0.00     0.073 C 
BRANCH  26  27
HETATM   27  C   UNL     1      25.902  47.025  52.823  1.00  0.00     0.053 A 
HETATM   28  O   UNL     1      25.578  48.006  53.713  1.00  0.00    -0.327 OA
HETATM   29  C   UNL     1      26.176  47.683  54.889  1.00  0.00     0.142 A 
HETATM   30  C   UNL     1      26.881  46.508  54.765  1.00  0.00     0.027 A 
HETATM   31  C   UNL     1      26.706  46.083  53.428  1.00  0.00     0.034 A 
ENDBRANCH  26  27
ENDBRANCH  22  26
ENDBRANCH  21  22
ENDBRANCH   3  21
TORSDOF 9
ENDMDL
MODEL 7
REMARK VINA RESULT:      -7.8      3.019      4.823
REMARK  9 active torsions:
REMARK  status: ('A' for Active; 'I' for Inactive)
REMARK    1  A    between atoms: C_6  and  C_7 
REMARK    2  A    between atoms: C_7  and  C_8 
REMARK    3  A    between atoms: C_11  and  N_12 
REMARK       I    between atoms: N_12  and  C_13 
REMARK       I    between atoms: C_13  and  N_14 
REMARK    4  A    between atoms: N_14  and  C_15 
REMARK    5  A    between atoms: C_15  and  C_16 
REMARK    6  A    between atoms: C_16  and  C_17 
REMARK    7  A    between atoms: C_16  and  C_19 
REMARK    8  A    between atoms: C_17  and  O_18 
REMARK    9  A    between atoms: C_19  and  C_20 
ROOT
HETATM    1  N   UNL     1      25.118  43.426  52.173  1.00  0.00    -0.309 N 
HETATM    2  C   UNL     1      24.276  43.800  51.176  1.00  0.00     0.320 C 
HETATM    3  N   UNL     1      24.465  45.004  50.573  1.00  0.00    -0.342 N 
HETATM    4  O   UNL     1      23.390  43.018  50.836  1.00  0.00    -0.247 OA
HETATM    5  H   UNL     1      24.945  42.458  52.413  1.00  0.00     0.170 HD
HETATM    6  H   UNL     1      25.437  45.289  50.505  1.00  0.00     0.164 HD
ENDROOT
BRANCH   1   7
HETATM    7  C   UNL     1      26.088  44.087  52.944  1.00  0.00     0.036 A 
HETATM    8  C   UNL     1      27.456  43.815  52.922  1.00  0.00     0.030 A 
HETATM    9  C   UNL     1      28.340  44.556  53.718  1.00  0.00     0.010 A 
HETATM   10  C   UNL     1      27.873  45.595  54.535  1.00  0.00    -0.051 A 
HETATM   11  C   UNL     1      26.505  45.883  54.540  1.00  0.00     0.010 A 
HETATM   12  C   UNL     1      25.627  45.136  53.752  1.00  0.00     0.030 A 
BRANCH  10  13
HETATM   13  C   UNL     1      28.838  46.440  55.336  1.00  0.00     0.118 C 
BRANCH  13  14
HETATM   14  C   UNL     1      29.702  45.667  56.276  1.00  0.00     0.126 A 
HETATM   15  N   UNL     1      29.766  45.889  57.625  1.00  0.00    -0.263 N 
HETATM   16  N   UNL     1      30.631  45.054  58.221  1.00  0.00    -0.158 NA
HETATM   17  H   UNL     1      29.264  46.571  58.183  1.00  0.00     0.190 HD
HETATM   18  C   UNL     1      31.072  44.337  57.182  1.00  0.00     0.144 A 
HETATM   19  C   UNL     1      32.063  43.254  57.323  1.00  0.00     0.095 C 
HETATM   20  N   UNL     1      30.523  44.682  55.974  1.00  0.00    -0.217 NA
ENDBRANCH  13  14
ENDBRANCH  10  13
ENDBRANCH   1   7
BRANCH   3  21
HETATM   21  C   UNL     1      23.654  45.348  49.422  1.00  0.00     0.131 C 
BRANCH  21  22
HETATM   22  C   UNL     1      23.829  46.794  48.932  1.00  0.00     0.033 C 
BRANCH  22  23
HETATM   23  C   UNL     1      24.800  47.573  49.832  1.00  0.00     0.170 C 
BRANCH  23  24
HETATM   24  O   UNL     1      24.265  47.774  51.135  1.00  0.00    -0.400 OA
HETATM   25  H   UNL     1      25.014  48.063  51.691  1.00  0.00     0.209 HD
ENDBRANCH  23  24
ENDBRANCH  22  23
BRANCH  22  26
HETATM   26  C   UNL     1      22.460  47.478  48.774  1.00  0.00     0.073 C 
BRANCH  26  27
HETATM   27  C   UNL     1      22.586  48.957  48.703  1.00  0.00     0.053 A 
HETATM   28  O   UNL     1      22.145  49.662  49.784  1.00  0.00    -0.327 OA
HETATM   29  C   UNL     1      22.366  50.975  49.513  1.00  0.00     0.142 A 
HETATM   30  C   UNL     1      22.939  51.122  48.272  1.00  0.00     0.027 A 
HETATM   31  C   UNL     1      23.080  49.818  47.745  1.00  0.00     0.034 A 
ENDBRANCH  26  27
ENDBRANCH  22  26
ENDBRANCH  21  22
ENDBRANCH   3  21
TORSDOF 9
ENDMDL
MODEL 8
REMARK VINA RESULT:      -7.6     11.185     13.351
REMARK  9 active torsions:
REMARK  status: ('A' for Active; 'I' for Inactive)
REMARK    1  A    between atoms: C_6  and  C_7 
REMARK    2  A    between atoms: C_7  and  C_8 
REMARK    3  A    between atoms: C_11  and  N_12 
REMARK       I    between atoms: N_12  and  C_13 
REMARK       I    between atoms: C_13  and  N_14 
REMARK    4  A    between atoms: N_14  and  C_15 
REMARK    5  A    between atoms: C_15  and  C_16 
REMARK    6  A    between atoms: C_16  and  C_17 
REMARK    7  A    between atoms: C_16  and  C_19 
REMARK    8  A    between atoms: C_17  and  O_18 
REMARK    9  A    between atoms: C_19  and  C_20 
ROOT
HETATM    1  N   UNL     1      31.011  49.170  42.636  1.00  0.00    -0.309 N 
HETATM    2  C   UNL     1      29.890  49.097  41.875  1.00  0.00     0.320 C 
HETATM    3  N   UNL     1      29.963  49.445  40.563  1.00  0.00    -0.342 N 
HETATM    4  O   UNL     1      28.855  48.686  42.397  1.00  0.00    -0.247 OA
HETATM    5  H   UNL     1      30.835  48.741  43.536  1.00  0.00     0.170 HD
HETATM    6  H   UNL     1      30.852  49.229  40.122  1.00  0.00     0.164 HD
ENDROOT
BRANCH   1   7
HETATM    7  C   UNL     1      32.282  49.744  42.468  1.00  0.00     0.036 A 
HETATM    8  C   UNL     1      33.256  49.296  41.578  1.00  0.00     0.030 A 
HETATM    9  C   UNL     1      34.485  49.962  41.474  1.00  0.00     0.010 A 
HETATM   10  C   UNL     1      34.752  51.101  42.246  1.00  0.00    -0.051 A 
HETATM   11  C   UNL     1      33.767  51.565  43.123  1.00  0.00     0.010 A 
HETATM   12  C   UNL     1      32.548  50.892  43.229  1.00  0.00     0.030 A 
BRANCH  10  13
HETATM   13  C   UNL     1      36.050  51.860  42.079  1.00  0.00     0.118 C 
BRANCH  13  14
HETATM   14  C   UNL     1      36.634  52.371  43.354  1.00  0.00     0.126 A 
HETATM   15  N   UNL     1      37.123  51.575  44.354  1.00  0.00    -0.263 N 
HETATM   16  N   UNL     1      37.577  52.302  45.385  1.00  0.00    -0.158 NA
HETATM   17  H   UNL     1      37.173  50.562  44.395  1.00  0.00     0.190 HD
HETATM   18  C   UNL     1      37.340  53.548  44.961  1.00  0.00     0.144 A 
HETATM   19  C   UNL     1      37.679  54.741  45.760  1.00  0.00     0.095 C 
HETATM   20  N   UNL     1      36.766  53.630  43.719  1.00  0.00    -0.217 NA
ENDBRANCH  13  14
ENDBRANCH  10  13
ENDBRANCH   1   7
BRANCH   3  21
HETATM   21  C   UNL     1      28.804  49.241  39.716  1.00  0.00     0.131 C 
BRANCH  21  22
HETATM   22  C   UNL     1      27.980  50.511  39.451  1.00  0.00     0.033 C 
BRANCH  22  23
HETATM   23  C   UNL     1      26.614  50.172  38.839  1.00  0.00     0.170 C 
BRANCH  23  24
HETATM   24  O   UNL     1      26.618  50.323  37.424  1.00  0.00    -0.400 OA
HETATM   25  H   UNL     1      27.437  49.892  37.110  1.00  0.00     0.209 HD
ENDBRANCH  23  24
ENDBRANCH  22  23
BRANCH  22  26
HETATM   26  C   UNL     1      28.794  51.514  38.614  1.00  0.00     0.073 C 
BRANCH  26  27
HETATM   27  C   UNL     1      29.803  52.231  39.437  1.00  0.00     0.053 A 
HETATM   28  O   UNL     1      31.109  51.898  39.231  1.00  0.00    -0.327 OA
HETATM   29  C   UNL     1      31.849  52.674  40.066  1.00  0.00     0.142 A 
HETATM   30  C   UNL     1      31.035  53.498  40.807  1.00  0.00     0.027 A 
HETATM   31  C   UNL     1      29.710  53.211  40.403  1.00  0.00     0.034 A 
ENDBRANCH  26  27
ENDBRANCH  22  26
ENDBRANCH  21  22
ENDBRANCH   3  21
TORSDOF 9
ENDMDL
MODEL 9
REMARK VINA RESULT:      -7.5      2.172      2.582
REMARK  9 active torsions:
REMARK  status: ('A' for Active; 'I' for Inactive)
REMARK    1  A    between atoms: C_6  and  C_7 
REMARK    2  A    between atoms: C_7  and  C_8 
REMARK    3  A    between atoms: C_11  and  N_12 
REMARK       I    between atoms: N_12  and  C_13 
REMARK       I    between atoms: C_13  and  N_14 
REMARK    4  A    between atoms: N_14  and  C_15 
REMARK    5  A    between atoms: C_15  and  C_16 
REMARK    6  A    between atoms: C_16  and  C_17 
REMARK    7  A    between atoms: C_16  and  C_19 
REMARK    8  A    between atoms: C_17  and  O_18 
REMARK    9  A    between atoms: C_19  and  C_20 
ROOT
HETATM    1  N   UNL     1      24.643  47.471  50.713  1.00  0.00    -0.309 N 
HETATM    2  C   UNL     1      23.785  47.780  49.708  1.00  0.00     0.320 C 
HETATM    3  N   UNL     1      23.160  46.772  49.044  1.00  0.00    -0.342 N 
HETATM    4  O   UNL     1      23.582  48.968  49.458  1.00  0.00    -0.247 OA
HETATM    5  H   UNL     1      24.907  48.318  51.202  1.00  0.00     0.170 HD
HETATM    6  H   UNL     1      22.947  45.963  49.618  1.00  0.00     0.164 HD
ENDROOT
BRANCH   1   7
HETATM    7  C   UNL     1      25.259  46.289  51.155  1.00  0.00     0.036 A 
HETATM    8  C   UNL     1      24.867  45.544  52.266  1.00  0.00     0.030 A 
HETATM    9  C   UNL     1      25.541  44.361  52.603  1.00  0.00     0.010 A 
HETATM   10  C   UNL     1      26.607  43.894  51.821  1.00  0.00    -0.051 A 
HETATM   11  C   UNL     1      26.985  44.629  50.693  1.00  0.00     0.010 A 
HETATM   12  C   UNL     1      26.317  45.811  50.368  1.00  0.00     0.030 A 
BRANCH  10  13
HETATM   13  C   UNL     1      27.283  42.581  52.144  1.00  0.00     0.118 C 
BRANCH  13  14
HETATM   14  C   UNL     1      28.537  42.713  52.944  1.00  0.00     0.126 A 
HETATM   15  N   UNL     1      29.792  42.464  52.460  1.00  0.00    -0.263 N 
HETATM   16  N   UNL     1      30.729  42.654  53.400  1.00  0.00    -0.158 NA
HETATM   17  H   UNL     1      30.069  42.171  51.529  1.00  0.00     0.190 HD
HETATM   18  C   UNL     1      29.987  43.021  54.450  1.00  0.00     0.144 A 
HETATM   19  C   UNL     1      30.571  43.355  55.763  1.00  0.00     0.095 C 
HETATM   20  N   UNL     1      28.639  43.072  54.208  1.00  0.00    -0.217 NA
ENDBRANCH  13  14
ENDBRANCH  10  13
ENDBRANCH   1   7
BRANCH   3  21
HETATM   21  C   UNL     1      22.144  47.101  48.063  1.00  0.00     0.131 C 
BRANCH  21  22
HETATM   22  C   UNL     1      20.707  47.076  48.607  1.00  0.00     0.033 C 
BRANCH  22  23
HETATM   23  C   UNL     1      20.140  45.649  48.620  1.00  0.00     0.170 C 
BRANCH  23  24
HETATM   24  O   UNL     1      20.559  44.926  49.772  1.00  0.00    -0.400 OA
HETATM   25  H   UNL     1      21.006  45.575  50.349  1.00  0.00     0.209 HD
ENDBRANCH  23  24
ENDBRANCH  22  23
BRANCH  22  26
HETATM   26  C   UNL     1      19.825  48.078  47.840  1.00  0.00     0.073 C 
BRANCH  26  27
HETATM   27  C   UNL     1      20.001  49.466  48.342  1.00  0.00     0.053 A 
HETATM   28  O   UNL     1      20.279  49.606  49.669  1.00  0.00    -0.327 OA
HETATM   29  C   UNL     1      20.412  50.938  49.904  1.00  0.00     0.142 A 
HETATM   30  C   UNL     1      20.219  51.654  48.746  1.00  0.00     0.027 A 
HETATM   31  C   UNL     1      19.950  50.703  47.735  1.00  0.00     0.034 A 
ENDBRANCH  26  27
ENDBRANCH  22  26
ENDBRANCH  21  22
ENDBRANCH   3  21
TORSDOF 9
ENDMDL
MODEL 10
REMARK VINA RESULT:      -7.4      4.228      9.595
REMARK  9 active torsions:
REMARK  status: ('A' for Active; 'I' for Inactive)
REMARK    1  A    between atoms: C_6  and  C_7 
REMARK    2  A    between atoms: C_7  and  C_8 
REMARK    3  A    between atoms: C_11  and  N_12 
REMARK       I    between atoms: N_12  and  C_13 
REMARK       I    between atoms: C_13  and  N_14 
REMARK    4  A    between atoms: N_14  and  C_15 
REMARK    5  A    between atoms: C_15  and  C_16 
REMARK    6  A    between atoms: C_16  and  C_17 
REMARK    7  A    between atoms: C_16  and  C_19 
REMARK    8  A    between atoms: C_17  and  O_18 
REMARK    9  A    between atoms: C_19  and  C_20 
ROOT
HETATM    1  N   UNL     1      24.829  44.554  48.854  1.00  0.00    -0.309 N 
HETATM    2  C   UNL     1      25.927  44.647  49.645  1.00  0.00     0.320 C 
HETATM    3  N   UNL     1      25.833  45.318  50.824  1.00  0.00    -0.342 N 
HETATM    4  O   UNL     1      26.961  44.092  49.277  1.00  0.00    -0.247 OA
HETATM    5  H   UNL     1      25.013  43.907  48.097  1.00  0.00     0.170 HD
HETATM    6  H   UNL     1      24.927  45.242  51.276  1.00  0.00     0.164 HD
ENDROOT
BRANCH   1   7
HETATM    7  C   UNL     1      23.573  45.184  48.831  1.00  0.00     0.036 A 
HETATM    8  C   UNL     1      23.363  46.560  48.757  1.00  0.00     0.030 A 
HETATM    9  C   UNL     1      22.062  47.080  48.716  1.00  0.00     0.010 A 
HETATM   10  C   UNL     1      20.948  46.229  48.727  1.00  0.00    -0.051 A 
HETATM   11  C   UNL     1      21.158  44.847  48.778  1.00  0.00     0.010 A 
HETATM   12  C   UNL     1      22.456  44.335  48.830  1.00  0.00     0.030 A 
BRANCH  10  13
HETATM   13  C   UNL     1      19.548  46.788  48.609  1.00  0.00     0.118 C 
BRANCH  13  14
HETATM   14  C   UNL     1      19.315  48.040  49.388  1.00  0.00     0.126 A 
HETATM   15  N   UNL     1      19.024  48.074  50.725  1.00  0.00    -0.263 N 
HETATM   16  N   UNL     1      18.856  49.331  51.160  1.00  0.00    -0.158 NA
HETATM   17  H   UNL     1      18.929  47.301  51.376  1.00  0.00     0.190 HD
HETATM   18  C   UNL     1      19.056  50.033  50.040  1.00  0.00     0.144 A 
HETATM   19  C   UNL     1      18.984  51.506  49.998  1.00  0.00     0.095 C 
HETATM   20  N   UNL     1      19.343  49.276  48.934  1.00  0.00    -0.217 NA
ENDBRANCH  13  14
ENDBRANCH  10  13
ENDBRANCH   1   7
BRANCH   3  21
HETATM   21  C   UNL     1      26.963  45.305  51.732  1.00  0.00     0.131 C 
BRANCH  21  22
HETATM   22  C   UNL     1      26.611  44.917  53.177  1.00  0.00     0.033 C 
BRANCH  22  23
HETATM   23  C   UNL     1      25.091  44.817  53.372  1.00  0.00     0.170 C 
BRANCH  23  24
HETATM   24  O   UNL     1      24.727  43.641  54.086  1.00  0.00    -0.400 OA
HETATM   25  H   UNL     1      25.478  43.443  54.678  1.00  0.00     0.209 HD
ENDBRANCH  23  24
ENDBRANCH  22  23
BRANCH  22  26
HETATM   26  C   UNL     1      27.294  45.871  54.171  1.00  0.00     0.073 C 
BRANCH  26  27
HETATM   27  C   UNL     1      28.516  45.269  54.766  1.00  0.00     0.053 A 
HETATM   28  O   UNL     1      29.184  46.021  55.686  1.00  0.00    -0.327 OA
HETATM   29  C   UNL     1      30.245  45.281  56.103  1.00  0.00     0.142 A 
HETATM   30  C   UNL     1      30.268  44.066  55.460  1.00  0.00     0.027 A 
HETATM   31  C   UNL     1      29.152  44.058  54.592  1.00  0.00     0.034 A 
ENDBRANCH  26  27
ENDBRANCH  22  26
ENDBRANCH  21  22
ENDBRANCH   3  21
TORSDOF 9
ENDMDL
