MODEL 1
REMARK VINA RESULT:      -9.1      0.000      0.000
REMARK  4 active torsions:
REMARK  status: ('A' for Active; 'I' for Inactive)
REMARK    1  A    between atoms: C_6  and  C_7 
REMARK    2  A    between atoms: C_9  and  C_10 
REMARK    3  A    between atoms: C_10  and  C_11 
REMARK    4  A    between atoms: C_15  and  N_16 
ROOT
HETATM    1  C   UNL     1      27.206  46.278  54.138  1.00  0.00     0.112 A 
HETATM    2  O   UNL     1      26.900  46.037  52.824  1.00  0.00    -0.308 OA
HETATM    3  C   UNL     1      25.844  46.834  52.433  1.00  0.00     0.077 A 
HETATM    4  C   UNL     1      25.465  47.573  53.547  1.00  0.00     0.040 A 
HETATM    5  C   UNL     1      26.327  47.231  54.614  1.00  0.00     0.043 A 
ENDROOT
BRANCH   3   6
HETATM    6  C   UNL     1      25.334  46.752  51.106  1.00  0.00     0.059 C 
BRANCH   6   7
HETATM    7  C   UNL     1      25.438  47.675  50.143  1.00  0.00     0.053 A 
HETATM    8  S   UNL     1      26.830  48.399  49.440  1.00  0.00    -0.024 SA
HETATM    9  C   UNL     1      25.817  49.419  48.412  1.00  0.00     0.312 A 
HETATM   10  O   UNL     1      26.307  50.235  47.649  1.00  0.00    -0.258 OA
HETATM   11  N   UNL     1      24.468  49.186  48.561  1.00  0.00    -0.191 NA
HETATM   12  C   UNL     1      24.240  48.269  49.460  1.00  0.00     0.122 A 
BRANCH  12  13
HETATM   13  N   UNL     1      22.940  47.919  49.704  1.00  0.00    -0.286 NA
HETATM   14  H   UNL     1      22.700  47.656  50.653  1.00  0.00     0.125 HD
HETATM   15  H   UNL     1      22.588  47.253  49.021  1.00  0.00     0.125 HD
ENDBRANCH  12  13
ENDBRANCH   6   7
ENDBRANCH   3   6
BRANCH   1  16
HETATM   16  C   UNL     1      28.263  45.617  54.855  1.00  0.00     0.133 A 
HETATM   17  S   UNL     1      28.988  44.173  54.285  1.00  0.00    -0.066 SA
HETATM   18  C   UNL     1      30.021  44.146  55.663  1.00  0.00     0.035 A 
HETATM   19  C   UNL     1      29.736  45.254  56.462  1.00  0.00     0.075 A 
HETATM   20  C   UNL     1      31.011  43.214  56.012  1.00  0.00     0.021 A 
HETATM   21  C   UNL     1      30.467  45.437  57.654  1.00  0.00     0.033 A 
HETATM   22  N   UNL     1      28.733  46.084  55.992  1.00  0.00    -0.238 NA
HETATM   23  C   UNL     1      31.456  44.515  58.011  1.00  0.00     0.002 A 
HETATM   24  C   UNL     1      31.723  43.418  57.199  1.00  0.00     0.002 A 
ENDBRANCH   1  16
TORSDOF 4
ENDMDL
MODEL 2
REMARK VINA RESULT:      -9.0      1.279      1.879
REMARK  4 active torsions:
REMARK  status: ('A' for Active; 'I' for Inactive)
REMARK    1  A    between atoms: C_6  and  C_7 
REMARK    2  A    between atoms: C_9  and  C_10 
REMARK    3  A    between atoms: C_10  and  C_11 
REMARK    4  A    between atoms: C_15  and  N_16 
ROOT
HETATM    1  C   UNL     1      27.483  44.933  53.050  1.00  0.00     0.112 A 
HETATM    2  O   UNL     1      26.640  45.975  52.764  1.00  0.00    -0.308 OA
HETATM    3  C   UNL     1      25.943  45.711  51.603  1.00  0.00     0.077 A 
HETATM    4  C   UNL     1      26.387  44.480  51.139  1.00  0.00     0.040 A 
HETATM    5  C   UNL     1      27.347  43.987  52.054  1.00  0.00     0.043 A 
ENDROOT
BRANCH   3   6
HETATM    6  C   UNL     1      25.011  46.660  51.093  1.00  0.00     0.059 C 
BRANCH   6   7
HETATM    7  C   UNL     1      25.245  47.608  50.179  1.00  0.00     0.053 A 
HETATM    8  S   UNL     1      26.729  48.224  49.567  1.00  0.00    -0.024 SA
HETATM    9  C   UNL     1      25.862  49.380  48.547  1.00  0.00     0.312 A 
HETATM   10  O   UNL     1      26.461  50.176  47.843  1.00  0.00    -0.258 OA
HETATM   11  N   UNL     1      24.492  49.272  48.631  1.00  0.00    -0.191 NA
HETATM   12  C   UNL     1      24.140  48.343  49.476  1.00  0.00     0.122 A 
BRANCH  12  13
HETATM   13  N   UNL     1      22.803  48.110  49.652  1.00  0.00    -0.286 NA
HETATM   14  H   UNL     1      22.160  48.631  49.068  1.00  0.00     0.125 HD
HETATM   15  H   UNL     1      22.535  48.134  50.633  1.00  0.00     0.125 HD
ENDBRANCH  12  13
ENDBRANCH   6   7
ENDBRANCH   3   6
BRANCH   1  16
HETATM   16  C   UNL     1      28.349  44.887  54.197  1.00  0.00     0.133 A 
HETATM   17  S   UNL     1      28.275  46.061  55.444  1.00  0.00    -0.066 SA
HETATM   18  C   UNL     1      29.552  45.258  56.277  1.00  0.00     0.035 A 
HETATM   19  C   UNL     1      29.942  44.141  55.536  1.00  0.00     0.075 A 
HETATM   20  C   UNL     1      30.164  45.591  57.496  1.00  0.00     0.021 A 
HETATM   21  C   UNL     1      30.981  43.328  56.032  1.00  0.00     0.033 A 
HETATM   22  N   UNL     1      29.250  43.940  54.354  1.00  0.00    -0.238 NA
HETATM   23  C   UNL     1      31.598  43.650  57.245  1.00  0.00     0.002 A 
HETATM   24  C   UNL     1      31.193  44.768  57.966  1.00  0.00     0.002 A 
ENDBRANCH   1  16
TORSDOF 4
ENDMDL
MODEL 3
REMARK VINA RESULT:      -8.5      2.172      2.598
REMARK  4 active torsions:
REMARK  status: ('A' for Active; 'I' for Inactive)
REMARK    1  A    between atoms: C_6  and  C_7 
REMARK    2  A    between atoms: C_9  and  C_10 
REMARK    3  A    between atoms: C_10  and  C_11 
REMARK    4  A    between atoms: C_15  and  N_16 
ROOT
HETATM    1  C   UNL     1      27.981  44.135  53.008  1.00  0.00     0.112 A 
HETATM    2  O   UNL     1      26.687  44.580  52.922  1.00  0.00    -0.308 OA
HETATM    3  C   UNL     1      26.178  44.303  51.670  1.00  0.00     0.077 A 
HETATM    4  C   UNL     1      27.195  43.693  50.948  1.00  0.00     0.040 A 
HETATM    5  C   UNL     1      28.324  43.578  51.792  1.00  0.00     0.043 A 
ENDROOT
BRANCH   3   6
HETATM    6  C   UNL     1      24.847  44.686  51.335  1.00  0.00     0.059 C 
BRANCH   6   7
HETATM    7  C   UNL     1      24.471  45.742  50.605  1.00  0.00     0.053 A 
HETATM    8  S   UNL     1      23.556  45.821  49.151  1.00  0.00    -0.024 SA
HETATM    9  C   UNL     1      23.735  47.579  49.101  1.00  0.00     0.312 A 
HETATM   10  O   UNL     1      23.268  48.238  48.186  1.00  0.00    -0.258 OA
HETATM   11  N   UNL     1      24.426  48.096  50.174  1.00  0.00    -0.191 NA
HETATM   12  C   UNL     1      24.819  47.152  50.985  1.00  0.00     0.122 A 
BRANCH  12  13
HETATM   13  N   UNL     1      25.506  47.518  52.109  1.00  0.00    -0.286 NA
HETATM   14  H   UNL     1      25.107  48.255  52.679  1.00  0.00     0.125 HD
HETATM   15  H   UNL     1      26.494  47.671  51.922  1.00  0.00     0.125 HD
ENDBRANCH  12  13
ENDBRANCH   6   7
ENDBRANCH   3   6
BRANCH   1  16
HETATM   16  C   UNL     1      28.801  44.261  54.183  1.00  0.00     0.133 A 
HETATM   17  S   UNL     1      30.104  43.195  54.504  1.00  0.00    -0.066 SA
HETATM   18  C   UNL     1      30.438  44.042  55.966  1.00  0.00     0.035 A 
HETATM   19  C   UNL     1      29.524  45.089  56.101  1.00  0.00     0.075 A 
HETATM   20  C   UNL     1      31.435  43.801  56.925  1.00  0.00     0.021 A 
HETATM   21  C   UNL     1      29.610  45.923  57.234  1.00  0.00     0.033 A 
HETATM   22  N   UNL     1      28.597  45.203  55.079  1.00  0.00    -0.238 NA
HETATM   23  C   UNL     1      30.599  45.692  58.195  1.00  0.00     0.002 A 
HETATM   24  C   UNL     1      31.500  44.643  58.040  1.00  0.00     0.002 A 
ENDBRANCH   1  16
TORSDOF 4
ENDMDL
MODEL 4
REMARK VINA RESULT:      -8.4      3.090      3.843
REMARK  4 active torsions:
REMARK  status: ('A' for Active; 'I' for Inactive)
REMARK    1  A    between atoms: C_6  and  C_7 
REMARK    2  A    between atoms: C_9  and  C_10 
REMARK    3  A    between atoms: C_10  and  C_11 
REMARK    4  A    between atoms: C_15  and  N_16 
ROOT
HETATM    1  C   UNL     1      27.238  46.041  54.148  1.00  0.00     0.112 A 
HETATM    2  O   UNL     1      26.697  45.232  53.183  1.00  0.00    -0.308 OA
HETATM    3  C   UNL     1      25.735  45.924  52.475  1.00  0.00     0.077 A 
HETATM    4  C   UNL     1      25.658  47.192  53.036  1.00  0.00     0.040 A 
HETATM    5  C   UNL     1      26.610  47.268  54.080  1.00  0.00     0.043 A 
ENDROOT
BRANCH   3   6
HETATM    6  C   UNL     1      25.018  45.285  51.424  1.00  0.00     0.059 C 
BRANCH   6   7
HETATM    7  C   UNL     1      25.409  44.223  50.710  1.00  0.00     0.053 A 
HETATM    8  S   UNL     1      24.788  42.620  50.667  1.00  0.00    -0.024 SA
HETATM    9  C   UNL     1      26.033  42.138  49.508  1.00  0.00     0.312 A 
HETATM   10  O   UNL     1      26.108  40.990  49.100  1.00  0.00    -0.258 OA
HETATM   11  N   UNL     1      26.863  43.168  49.128  1.00  0.00    -0.191 NA
HETATM   12  C   UNL     1      26.553  44.278  49.740  1.00  0.00     0.122 A 
BRANCH  12  13
HETATM   13  N   UNL     1      27.286  45.396  49.449  1.00  0.00    -0.286 NA
HETATM   14  H   UNL     1      26.776  46.229  49.181  1.00  0.00     0.125 HD
HETATM   15  H   UNL     1      28.054  45.197  48.813  1.00  0.00     0.125 HD
ENDBRANCH  12  13
ENDBRANCH   6   7
ENDBRANCH   3   6
BRANCH   1  16
HETATM   16  C   UNL     1      28.273  45.630  55.058  1.00  0.00     0.133 A 
HETATM   17  S   UNL     1      28.525  46.408  56.564  1.00  0.00    -0.066 SA
HETATM   18  C   UNL     1      29.834  45.340  56.898  1.00  0.00     0.035 A 
HETATM   19  C   UNL     1      29.982  44.457  55.826  1.00  0.00     0.075 A 
HETATM   20  C   UNL     1      30.671  45.285  58.025  1.00  0.00     0.021 A 
HETATM   21  C   UNL     1      31.001  43.486  55.883  1.00  0.00     0.033 A 
HETATM   22  N   UNL     1      29.087  44.632  54.785  1.00  0.00    -0.238 NA
HETATM   23  C   UNL     1      31.840  43.422  57.001  1.00  0.00     0.002 A 
HETATM   24  C   UNL     1      31.674  44.312  58.057  1.00  0.00     0.002 A 
ENDBRANCH   1  16
TORSDOF 4
ENDMDL
MODEL 5
REMARK VINA RESULT:      -8.4      2.632      3.143
REMARK  4 active torsions:
REMARK  status: ('A' for Active; 'I' for Inactive)
REMARK    1  A    between atoms: C_6  and  C_7 
REMARK    2  A    between atoms: C_9  and  C_10 
REMARK    3  A    between atoms: C_10  and  C_11 
REMARK    4  A    between atoms: C_15  and  N_16 
ROOT
HETATM    1  C   UNL     1      27.248  46.018  53.953  1.00  0.00     0.112 A 
HETATM    2  O   UNL     1      27.031  45.680  52.643  1.00  0.00    -0.308 OA
HETATM    3  C   UNL     1      25.955  46.387  52.146  1.00  0.00     0.077 A 
HETATM    4  C   UNL     1      25.472  47.168  53.189  1.00  0.00     0.040 A 
HETATM    5  C   UNL     1      26.291  46.944  54.320  1.00  0.00     0.043 A 
ENDROOT
BRANCH   3   6
HETATM    6  C   UNL     1      25.526  46.193  50.802  1.00  0.00     0.059 C 
BRANCH   6   7
HETATM    7  C   UNL     1      24.506  45.435  50.382  1.00  0.00     0.053 A 
HETATM    8  S   UNL     1      23.406  45.671  49.082  1.00  0.00    -0.024 SA
HETATM    9  C   UNL     1      22.547  44.184  49.502  1.00  0.00     0.312 A 
HETATM   10  O   UNL     1      21.562  43.823  48.878  1.00  0.00    -0.258 OA
HETATM   11  N   UNL     1      23.104  43.504  50.562  1.00  0.00    -0.191 NA
HETATM   12  C   UNL     1      24.140  44.137  51.040  1.00  0.00     0.122 A 
BRANCH  12  13
HETATM   13  N   UNL     1      24.808  43.570  52.091  1.00  0.00    -0.286 NA
HETATM   14  H   UNL     1      24.957  44.145  52.912  1.00  0.00     0.125 HD
HETATM   15  H   UNL     1      25.659  43.099  51.794  1.00  0.00     0.125 HD
ENDBRANCH  12  13
ENDBRANCH   6   7
ENDBRANCH   3   6
BRANCH   1  16
HETATM   16  C   UNL     1      28.298  45.467  54.766  1.00  0.00     0.133 A 
HETATM   17  S   UNL     1      29.125  44.029  54.335  1.00  0.00    -0.066 SA
HETATM   18  C   UNL     1      30.085  44.152  55.760  1.00  0.00     0.035 A 
HETATM   19  C   UNL     1      29.701  45.295  56.465  1.00  0.00     0.075 A 
HETATM   20  C   UNL     1      31.102  43.302  56.222  1.00  0.00     0.021 A 
HETATM   21  C   UNL     1      30.358  45.598  57.675  1.00  0.00     0.033 A 
HETATM   22  N   UNL     1      28.683  46.035  55.889  1.00  0.00    -0.238 NA
HETATM   23  C   UNL     1      31.373  44.758  58.144  1.00  0.00     0.002 A 
HETATM   24  C   UNL     1      31.739  43.625  57.425  1.00  0.00     0.002 A 
ENDBRANCH   1  16
TORSDOF 4
ENDMDL
MODEL 6
REMARK VINA RESULT:      -8.2      3.764      5.698
REMARK  4 active torsions:
REMARK  status: ('A' for Active; 'I' for Inactive)
REMARK    1  A    between atoms: C_6  and  C_7 
REMARK    2  A    between atoms: C_9  and  C_10 
REMARK    3  A    between atoms: C_10  and  C_11 
REMARK    4  A    between atoms: C_15  and  N_16 
ROOT
HETATM    1  C   UNL     1      25.519  48.459  49.559  1.00  0.00     0.112 A 
HETATM    2  O   UNL     1      24.311  49.102  49.492  1.00  0.00    -0.308 OA
HETATM    3  C   UNL     1      24.355  50.088  48.528  1.00  0.00     0.077 A 
HETATM    4  C   UNL     1      25.639  50.074  47.998  1.00  0.00     0.040 A 
HETATM    5  C   UNL     1      26.366  49.044  48.639  1.00  0.00     0.043 A 
ENDROOT
BRANCH   3   6
HETATM    6  C   UNL     1      23.215  50.906  48.283  1.00  0.00     0.059 C 
BRANCH   6   7
HETATM    7  C   UNL     1      21.947  50.645  48.621  1.00  0.00     0.053 A 
HETATM    8  S   UNL     1      20.620  50.135  47.655  1.00  0.00    -0.024 SA
HETATM    9  C   UNL     1      19.546  50.172  49.058  1.00  0.00     0.312 A 
HETATM   10  O   UNL     1      18.360  49.904  48.956  1.00  0.00    -0.258 OA
HETATM   11  N   UNL     1      20.182  50.514  50.231  1.00  0.00    -0.191 NA
HETATM   12  C   UNL     1      21.447  50.761  50.032  1.00  0.00     0.122 A 
BRANCH  12  13
HETATM   13  N   UNL     1      22.212  51.099  51.114  1.00  0.00    -0.286 NA
HETATM   14  H   UNL     1      21.994  51.970  51.584  1.00  0.00     0.125 HD
HETATM   15  H   UNL     1      23.207  51.006  50.924  1.00  0.00     0.125 HD
ENDBRANCH  12  13
ENDBRANCH   6   7
ENDBRANCH   3   6
BRANCH   1  16
HETATM   16  C   UNL     1      25.808  47.374  50.458  1.00  0.00     0.133 A 
HETATM   17  S   UNL     1      26.451  45.883  49.911  1.00  0.00    -0.066 SA
HETATM   18  C   UNL     1      26.448  45.287  51.527  1.00  0.00     0.035 A 
HETATM   19  C   UNL     1      25.954  46.282  52.373  1.00  0.00     0.075 A 
HETATM   20  C   UNL     1      26.852  44.033  52.012  1.00  0.00     0.021 A 
HETATM   21  C   UNL     1      25.861  46.012  53.754  1.00  0.00     0.033 A 
HETATM   22  N   UNL     1      25.593  47.465  51.753  1.00  0.00    -0.238 NA
HETATM   23  C   UNL     1      26.261  44.766  54.248  1.00  0.00     0.002 A 
HETATM   24  C   UNL     1      26.749  43.791  53.386  1.00  0.00     0.002 A 
ENDBRANCH   1  16
TORSDOF 4
ENDMDL
MODEL 7
REMARK VINA RESULT:      -8.2      5.620      6.839
REMARK  4 active torsions:
REMARK  status: ('A' for Active; 'I' for Inactive)
REMARK    1  A    between atoms: C_6  and  C_7 
REMARK    2  A    between atoms: C_9  and  C_10 
REMARK    3  A    between atoms: C_10  and  C_11 
REMARK    4  A    between atoms: C_15  and  N_16 
ROOT
HETATM    1  C   UNL     1      28.056  43.274  52.504  1.00  0.00     0.112 A 
HETATM    2  O   UNL     1      27.774  41.959  52.241  1.00  0.00    -0.308 OA
HETATM    3  C   UNL     1      27.194  41.844  50.994  1.00  0.00     0.077 A 
HETATM    4  C   UNL     1      27.088  43.129  50.479  1.00  0.00     0.040 A 
HETATM    5  C   UNL     1      27.639  44.026  51.424  1.00  0.00     0.043 A 
ENDROOT
BRANCH   3   6
HETATM    6  C   UNL     1      26.797  40.567  50.502  1.00  0.00     0.059 C 
BRANCH   6   7
HETATM    7  C   UNL     1      27.527  39.727  49.760  1.00  0.00     0.053 A 
HETATM    8  S   UNL     1      27.310  39.197  48.138  1.00  0.00    -0.024 SA
HETATM    9  C   UNL     1      28.729  38.151  48.260  1.00  0.00     0.312 A 
HETATM   10  O   UNL     1      29.076  37.442  47.328  1.00  0.00    -0.258 OA
HETATM   11  N   UNL     1      29.376  38.234  49.473  1.00  0.00    -0.191 NA
HETATM   12  C   UNL     1      28.768  39.061  50.278  1.00  0.00     0.122 A 
BRANCH  12  13
HETATM   13  N   UNL     1      29.308  39.259  51.520  1.00  0.00    -0.286 NA
HETATM   14  H   UNL     1      29.631  38.441  52.022  1.00  0.00     0.125 HD
HETATM   15  H   UNL     1      28.727  39.859  52.099  1.00  0.00     0.125 HD
ENDBRANCH  12  13
ENDBRANCH   6   7
ENDBRANCH   3   6
BRANCH   1  16
HETATM   16  C   UNL     1      28.671  43.740  53.718  1.00  0.00     0.133 A 
HETATM   17  S   UNL     1      28.168  45.180  54.501  1.00  0.00    -0.066 SA
HETATM   18  C   UNL     1      29.359  44.934  55.720  1.00  0.00     0.035 A 
HETATM   19  C   UNL     1      30.058  43.759  55.438  1.00  0.00     0.075 A 
HETATM   20  C   UNL     1      29.656  45.723  56.844  1.00  0.00     0.021 A 
HETATM   21  C   UNL     1      31.089  43.358  56.311  1.00  0.00     0.033 A 
HETATM   22  N   UNL     1      29.657  43.088  54.296  1.00  0.00    -0.238 NA
HETATM   23  C   UNL     1      31.393  44.135  57.434  1.00  0.00     0.002 A 
HETATM   24  C   UNL     1      30.684  45.302  57.694  1.00  0.00     0.002 A 
ENDBRANCH   1  16
TORSDOF 4
ENDMDL
MODEL 8
REMARK VINA RESULT:      -8.0      3.709      4.247
REMARK  4 active torsions:
REMARK  status: ('A' for Active; 'I' for Inactive)
REMARK    1  A    between atoms: C_6  and  C_7 
REMARK    2  A    between atoms: C_9  and  C_10 
REMARK    3  A    between atoms: C_10  and  C_11 
REMARK    4  A    between atoms: C_15  and  N_16 
ROOT
HETATM    1  C   UNL     1      28.513  43.414  52.768  1.00  0.00     0.112 A 
HETATM    2  O   UNL     1      27.709  44.189  51.973  1.00  0.00    -0.308 OA
HETATM    3  C   UNL     1      27.326  43.476  50.855  1.00  0.00     0.077 A 
HETATM    4  C   UNL     1      27.932  42.230  50.946  1.00  0.00     0.040 A 
HETATM    5  C   UNL     1      28.668  42.187  52.153  1.00  0.00     0.043 A 
ENDROOT
BRANCH   3   6
HETATM    6  C   UNL     1      26.495  44.080  49.868  1.00  0.00     0.059 C 
BRANCH   6   7
HETATM    7  C   UNL     1      25.163  44.001  49.778  1.00  0.00     0.053 A 
HETATM    8  S   UNL     1      24.126  44.189  48.419  1.00  0.00    -0.024 SA
HETATM    9  C   UNL     1      22.701  43.945  49.436  1.00  0.00     0.312 A 
HETATM   10  O   UNL     1      21.573  44.004  48.972  1.00  0.00    -0.258 OA
HETATM   11  N   UNL     1      23.001  43.683  50.754  1.00  0.00    -0.191 NA
HETATM   12  C   UNL     1      24.289  43.699  50.960  1.00  0.00     0.122 A 
BRANCH  12  13
HETATM   13  N   UNL     1      24.739  43.438  52.226  1.00  0.00    -0.286 NA
HETATM   14  H   UNL     1      25.483  44.023  52.585  1.00  0.00     0.125 HD
HETATM   15  H   UNL     1      24.927  42.449  52.369  1.00  0.00     0.125 HD
ENDBRANCH  12  13
ENDBRANCH   6   7
ENDBRANCH   3   6
BRANCH   1  16
HETATM   16  C   UNL     1      29.080  43.853  54.014  1.00  0.00     0.133 A 
HETATM   17  S   UNL     1      28.528  45.260  54.822  1.00  0.00    -0.066 SA
HETATM   18  C   UNL     1      29.683  44.997  56.072  1.00  0.00     0.035 A 
HETATM   19  C   UNL     1      30.410  43.841  55.779  1.00  0.00     0.075 A 
HETATM   20  C   UNL     1      29.930  45.755  57.228  1.00  0.00     0.021 A 
HETATM   21  C   UNL     1      31.419  43.430  56.674  1.00  0.00     0.033 A 
HETATM   22  N   UNL     1      30.057  43.199  54.605  1.00  0.00    -0.238 NA
HETATM   23  C   UNL     1      31.673  44.178  57.828  1.00  0.00     0.002 A 
HETATM   24  C   UNL     1      30.937  45.326  58.099  1.00  0.00     0.002 A 
ENDBRANCH   1  16
TORSDOF 4
ENDMDL
MODEL 9
REMARK VINA RESULT:      -7.9      4.830      5.750
REMARK  4 active torsions:
REMARK  status: ('A' for Active; 'I' for Inactive)
REMARK    1  A    between atoms: C_6  and  C_7 
REMARK    2  A    between atoms: C_9  and  C_10 
REMARK    3  A    between atoms: C_10  and  C_11 
REMARK    4  A    between atoms: C_15  and  N_16 
ROOT
HETATM    1  C   UNL     1      27.618  44.176  52.397  1.00  0.00     0.112 A 
HETATM    2  O   UNL     1      27.668  43.254  51.384  1.00  0.00    -0.308 OA
HETATM    3  C   UNL     1      26.714  43.550  50.432  1.00  0.00     0.077 A 
HETATM    4  C   UNL     1      26.033  44.675  50.881  1.00  0.00     0.040 A 
HETATM    5  C   UNL     1      26.608  45.073  52.110  1.00  0.00     0.043 A 
ENDROOT
BRANCH   3   6
HETATM    6  C   UNL     1      26.563  42.721  49.283  1.00  0.00     0.059 C 
BRANCH   6   7
HETATM    7  C   UNL     1      26.834  41.414  49.191  1.00  0.00     0.053 A 
HETATM    8  S   UNL     1      26.436  40.117  50.247  1.00  0.00    -0.024 SA
HETATM    9  C   UNL     1      27.295  38.972  49.211  1.00  0.00     0.312 A 
HETATM   10  O   UNL     1      27.378  37.790  49.505  1.00  0.00    -0.258 OA
HETATM   11  N   UNL     1      27.827  39.543  48.076  1.00  0.00    -0.191 NA
HETATM   12  C   UNL     1      27.593  40.826  48.037  1.00  0.00     0.122 A 
BRANCH  12  13
HETATM   13  N   UNL     1      28.050  41.528  46.955  1.00  0.00    -0.286 NA
HETATM   14  H   UNL     1      28.155  42.530  47.061  1.00  0.00     0.125 HD
HETATM   15  H   UNL     1      27.553  41.284  46.102  1.00  0.00     0.125 HD
ENDBRANCH  12  13
ENDBRANCH   6   7
ENDBRANCH   3   6
BRANCH   1  16
HETATM   16  C   UNL     1      28.483  44.161  53.545  1.00  0.00     0.133 A 
HETATM   17  S   UNL     1      29.619  42.907  53.815  1.00  0.00    -0.066 SA
HETATM   18  C   UNL     1      30.122  43.673  55.273  1.00  0.00     0.035 A 
HETATM   19  C   UNL     1      29.380  44.843  55.446  1.00  0.00     0.075 A 
HETATM   20  C   UNL     1      31.100  43.271  56.196  1.00  0.00     0.021 A 
HETATM   21  C   UNL     1      29.626  45.639  56.584  1.00  0.00     0.033 A 
HETATM   22  N   UNL     1      28.450  45.110  54.456  1.00  0.00    -0.238 NA
HETATM   23  C   UNL     1      30.598  45.248  57.510  1.00  0.00     0.002 A 
HETATM   24  C   UNL     1      31.325  44.078  57.316  1.00  0.00     0.002 A 
ENDBRANCH   1  16
TORSDOF 4
ENDMDL
MODEL 10
REMARK VINA RESULT:      -7.9      4.878     10.181
REMARK  4 active torsions:
REMARK  status: ('A' for Active; 'I' for Inactive)
REMARK    1  A    between atoms: C_6  and  C_7 
REMARK    2  A    between atoms: C_9  and  C_10 
REMARK    3  A    between atoms: C_10  and  C_11 
REMARK    4  A    between atoms: C_15  and  N_16 
ROOT
HETATM    1  C   UNL     1      23.257  49.751  48.791  1.00  0.00     0.112 A 
HETATM    2  O   UNL     1      23.853  48.761  49.527  1.00  0.00    -0.308 OA
HETATM    3  C   UNL     1      25.204  48.716  49.248  1.00  0.00     0.077 A 
HETATM    4  C   UNL     1      25.449  49.691  48.289  1.00  0.00     0.040 A 
HETATM    5  C   UNL     1      24.228  50.347  48.010  1.00  0.00     0.043 A 
ENDROOT
BRANCH   3   6
HETATM    6  C   UNL     1      26.037  47.753  49.885  1.00  0.00     0.059 C 
BRANCH   6   7
HETATM    7  C   UNL     1      25.651  46.615  50.474  1.00  0.00     0.053 A 
HETATM    8  S   UNL     1      25.396  45.049  49.811  1.00  0.00    -0.024 SA
HETATM    9  C   UNL     1      24.891  44.432  51.389  1.00  0.00     0.312 A 
HETATM   10  O   UNL     1      24.532  43.274  51.531  1.00  0.00    -0.258 OA
HETATM   11  N   UNL     1      24.959  45.369  52.396  1.00  0.00    -0.191 NA
HETATM   12  C   UNL     1      25.362  46.524  51.944  1.00  0.00     0.122 A 
BRANCH  12  13
HETATM   13  N   UNL     1      25.493  47.551  52.838  1.00  0.00    -0.286 NA
HETATM   14  H   UNL     1      25.144  48.460  52.557  1.00  0.00     0.125 HD
HETATM   15  H   UNL     1      26.433  47.605  53.225  1.00  0.00     0.125 HD
ENDBRANCH  12  13
ENDBRANCH   6   7
ENDBRANCH   3   6
BRANCH   1  16
HETATM   16  C   UNL     1      21.856  50.068  48.849  1.00  0.00     0.133 A 
HETATM   17  S   UNL     1      20.668  48.888  49.215  1.00  0.00    -0.066 SA
HETATM   18  C   UNL     1      19.434  50.079  49.060  1.00  0.00     0.035 A 
HETATM   19  C   UNL     1      20.026  51.303  48.739  1.00  0.00     0.075 A 
HETATM   20  C   UNL     1      18.045  49.944  49.209  1.00  0.00     0.021 A 
HETATM   21  C   UNL     1      19.198  52.431  48.563  1.00  0.00     0.033 A 
HETATM   22  N   UNL     1      21.405  51.284  48.622  1.00  0.00    -0.238 NA
HETATM   23  C   UNL     1      17.813  52.307  48.710  1.00  0.00     0.002 A 
HETATM   24  C   UNL     1      17.246  51.078  49.029  1.00  0.00     0.002 A 
ENDBRANCH   1  16
TORSDOF 4
ENDMDL
