MODEL 1
REMARK VINA RESULT:      -8.9      0.000      0.000
REMARK  9 active torsions:
REMARK  status: ('A' for Active; 'I' for Inactive)
REMARK    1  A    between atoms: C_5  and  C_6 
REMARK    2  A    between atoms: C_8  and  C_9 
REMARK    3  A    between atoms: C_9  and  C_10 
REMARK       I    between atoms: C_10  and  N_11 
REMARK    4  A    between atoms: N_11  and  C_12 
REMARK    5  A    between atoms: C_12  and  C_13 
REMARK    6  A    between atoms: C_13  and  N_14 
REMARK    7  A    between atoms: C_28  and  C_29 
REMARK    8  A    between atoms: C_29  and  O_30 
REMARK    9  A    between atoms: O_30  and  C_31 
ROOT
HETATM    1  C   UNL     1      25.571  44.512  51.179  1.00  0.00     0.166 C 
HETATM    2  N   UNL     1      24.168  44.255  50.567  1.00  0.00    -0.319 N 
HETATM    3  C   UNL     1      23.385  44.757  49.607  1.00  0.00     0.011 C 
HETATM    4  C   UNL     1      24.151  42.790  50.296  1.00  0.00     0.170 C 
HETATM    5  S   UNL     1      22.596  42.183  49.892  1.00  0.00    -0.086 SA
HETATM    6  C   UNL     1      22.555  43.666  48.841  1.00  0.00     0.135 C 
HETATM    7  N   UNL     1      25.234  42.297  49.821  1.00  0.00    -0.229 NA
HETATM    8  C   UNL     1      26.359  43.177  49.568  1.00  0.00     0.048 C 
HETATM    9  C   UNL     1      27.288  42.171  48.881  1.00  0.00     0.071 C 
HETATM   10  C   UNL     1      26.515  44.558  49.864  1.00  0.00     0.069 C 
ENDROOT
BRANCH   3  11
HETATM   11  C   UNL     1      23.469  46.100  48.880  1.00  0.00     0.156 C 
BRANCH  11  12
HETATM   12  C   UNL     1      22.208  46.653  48.232  1.00  0.00     0.223 C 
HETATM   13  N   UNL     1      21.145  46.856  49.090  1.00  0.00    -0.359 N 
HETATM   14  H   UNL     1      21.270  46.579  50.062  1.00  0.00     0.162 HD
HETATM   15  O   UNL     1      22.153  46.903  47.031  1.00  0.00    -0.273 OA
BRANCH  13  16
HETATM   16  C   UNL     1      19.736  47.128  48.745  1.00  0.00     0.150 C 
BRANCH  16  17
HETATM   17  C   UNL     1      18.858  48.103  49.579  1.00  0.00     0.254 C 
BRANCH  17  18
HETATM   18  N   UNL     1      19.297  49.563  49.541  1.00  0.00    -0.070 N 
HETATM   19  H   UNL     1      20.035  49.635  50.272  1.00  0.00     0.279 HD
HETATM   20  C   UNL     1      19.918  49.933  48.231  1.00  0.00     0.235 C 
HETATM   21  C   UNL     1      20.353  51.386  48.198  1.00  0.00     0.028 C 
HETATM   22  C   UNL     1      19.223  52.332  48.553  1.00  0.00     0.003 C 
HETATM   23  C   UNL     1      18.652  51.952  49.909  1.00  0.00     0.028 C 
HETATM   24  C   UNL     1      18.169  50.503  49.921  1.00  0.00     0.235 C 
ENDBRANCH  17  18
ENDBRANCH  16  17
ENDBRANCH  13  16
ENDBRANCH  11  12
ENDBRANCH   3  11
BRANCH   1  25
HETATM   25  C   UNL     1      26.555  43.634  52.302  1.00  0.00    -0.030 C 
HETATM   26  C   UNL     1      27.977  43.615  52.297  1.00  0.00     0.010 C 
HETATM   27  C   UNL     1      28.748  44.171  53.373  1.00  0.00     0.007 C 
HETATM   28  C   UNL     1      28.135  44.745  54.488  1.00  0.00    -0.062 C 
HETATM   29  C   UNL     1      28.882  45.541  55.532  1.00  0.00     0.048 C 
HETATM   30  C   UNL     1      26.778  44.480  54.629  1.00  0.00     0.007 C 
HETATM   31  C   UNL     1      26.055  43.793  53.621  1.00  0.00     0.010 C 
ENDBRANCH   1  25
BRANCH  10  32
HETATM   32  C   UNL     1      26.661  46.153  50.218  1.00  0.00     0.294 C 
HETATM   33  O   UNL     1      26.429  46.527  51.397  1.00  0.00    -0.259 OA
BRANCH  32  34
HETATM   34  O   UNL     1      27.069  47.064  49.318  1.00  0.00    -0.313 OA
BRANCH  34  35
HETATM   35  C   UNL     1      26.869  48.568  49.458  1.00  0.00     0.124 C 
HETATM   36  C   UNL     1      27.989  49.550  49.043  1.00  0.00     0.040 C 
HETATM   37  C   UNL     1      25.552  49.133  48.883  1.00  0.00     0.040 C 
ENDBRANCH  34  35
ENDBRANCH  32  34
ENDBRANCH  10  32
TORSDOF 9
ENDMDL
MODEL 2
REMARK VINA RESULT:      -8.8     13.285     16.710
REMARK  9 active torsions:
REMARK  status: ('A' for Active; 'I' for Inactive)
REMARK    1  A    between atoms: C_5  and  C_6 
REMARK    2  A    between atoms: C_8  and  C_9 
REMARK    3  A    between atoms: C_9  and  C_10 
REMARK       I    between atoms: C_10  and  N_11 
REMARK    4  A    between atoms: N_11  and  C_12 
REMARK    5  A    between atoms: C_12  and  C_13 
REMARK    6  A    between atoms: C_13  and  N_14 
REMARK    7  A    between atoms: C_28  and  C_29 
REMARK    8  A    between atoms: C_29  and  O_30 
REMARK    9  A    between atoms: O_30  and  C_31 
ROOT
HETATM    1  C   UNL     1      32.522  50.809  40.906  1.00  0.00     0.166 C 
HETATM    2  N   UNL     1      33.971  51.220  40.530  1.00  0.00    -0.319 N 
HETATM    3  C   UNL     1      34.622  52.294  40.071  1.00  0.00     0.011 C 
HETATM    4  C   UNL     1      34.787  50.795  41.702  1.00  0.00     0.170 C 
HETATM    5  S   UNL     1      36.480  50.860  41.421  1.00  0.00    -0.086 SA
HETATM    6  C   UNL     1      36.054  52.469  40.691  1.00  0.00     0.135 C 
HETATM    7  N   UNL     1      34.264  51.007  42.852  1.00  0.00    -0.229 NA
HETATM    8  C   UNL     1      32.965  51.647  42.930  1.00  0.00     0.048 C 
HETATM    9  C   UNL     1      32.881  51.813  44.451  1.00  0.00     0.071 C 
HETATM   10  C   UNL     1      32.070  52.013  41.889  1.00  0.00     0.069 C 
ENDROOT
BRANCH   3  11
HETATM   11  C   UNL     1      34.077  53.552  39.395  1.00  0.00     0.156 C 
BRANCH  11  12
HETATM   12  C   UNL     1      35.067  54.613  38.934  1.00  0.00     0.223 C 
HETATM   13  N   UNL     1      34.815  55.892  39.391  1.00  0.00    -0.359 N 
HETATM   14  H   UNL     1      33.975  56.032  39.950  1.00  0.00     0.162 HD
HETATM   15  O   UNL     1      36.021  54.339  38.212  1.00  0.00    -0.273 OA
BRANCH  13  16
HETATM   16  C   UNL     1      35.416  57.158  38.929  1.00  0.00     0.150 C 
BRANCH  16  17
HETATM   17  C   UNL     1      34.554  58.311  38.339  1.00  0.00     0.254 C 
BRANCH  17  18
HETATM   18  N   UNL     1      35.323  59.343  37.523  1.00  0.00    -0.070 N 
HETATM   19  H   UNL     1      34.823  59.383  36.611  1.00  0.00     0.279 HD
HETATM   20  C   UNL     1      35.263  60.708  38.135  1.00  0.00     0.235 C 
HETATM   21  C   UNL     1      36.030  61.731  37.319  1.00  0.00     0.028 C 
HETATM   22  C   UNL     1      37.463  61.309  37.069  1.00  0.00     0.003 C 
HETATM   23  C   UNL     1      37.480  59.942  36.405  1.00  0.00     0.028 C 
HETATM   24  C   UNL     1      36.750  58.904  37.255  1.00  0.00     0.235 C 
ENDBRANCH  17  18
ENDBRANCH  16  17
ENDBRANCH  13  16
ENDBRANCH  11  12
ENDBRANCH   3  11
BRANCH   1  25
HETATM   25  C   UNL     1      31.849  49.422  41.694  1.00  0.00    -0.030 C 
HETATM   26  C   UNL     1      30.567  49.377  42.307  1.00  0.00     0.010 C 
HETATM   27  C   UNL     1      29.514  48.537  41.807  1.00  0.00     0.007 C 
HETATM   28  C   UNL     1      29.707  47.709  40.700  1.00  0.00    -0.062 C 
HETATM   29  C   UNL     1      28.585  46.983  39.997  1.00  0.00     0.048 C 
HETATM   30  C   UNL     1      31.029  47.526  40.311  1.00  0.00     0.007 C 
HETATM   31  C   UNL     1      32.082  48.256  40.920  1.00  0.00     0.010 C 
ENDBRANCH   1  25
BRANCH  10  32
HETATM   32  C   UNL     1      31.060  52.424  40.663  1.00  0.00     0.294 C 
HETATM   33  O   UNL     1      30.742  53.635  40.532  1.00  0.00    -0.259 OA
BRANCH  32  34
HETATM   34  O   UNL     1      30.604  51.533  39.766  1.00  0.00    -0.313 OA
BRANCH  34  35
HETATM   35  C   UNL     1      29.169  51.476  39.256  1.00  0.00     0.124 C 
HETATM   36  C   UNL     1      27.984  51.462  40.250  1.00  0.00     0.040 C 
HETATM   37  C   UNL     1      28.803  52.487  38.148  1.00  0.00     0.040 C 
ENDBRANCH  34  35
ENDBRANCH  32  34
ENDBRANCH  10  32
TORSDOF 9
ENDMDL
MODEL 3
REMARK VINA RESULT:      -8.5     10.003     11.297
REMARK  9 active torsions:
REMARK  status: ('A' for Active; 'I' for Inactive)
REMARK    1  A    between atoms: C_5  and  C_6 
REMARK    2  A    between atoms: C_8  and  C_9 
REMARK    3  A    between atoms: C_9  and  C_10 
REMARK       I    between atoms: C_10  and  N_11 
REMARK    4  A    between atoms: N_11  and  C_12 
REMARK    5  A    between atoms: C_12  and  C_13 
REMARK    6  A    between atoms: C_13  and  N_14 
REMARK    7  A    between atoms: C_28  and  C_29 
REMARK    8  A    between atoms: C_29  and  O_30 
REMARK    9  A    between atoms: O_30  and  C_31 
ROOT
HETATM    1  C   UNL     1      29.101  48.856  40.546  1.00  0.00     0.166 C 
HETATM    2  N   UNL     1      27.616  48.437  40.723  1.00  0.00    -0.319 N 
HETATM    3  C   UNL     1      26.433  48.666  40.144  1.00  0.00     0.011 C 
HETATM    4  C   UNL     1      27.667  46.953  40.834  1.00  0.00     0.170 C 
HETATM    5  S   UNL     1      26.184  46.249  41.340  1.00  0.00    -0.086 SA
HETATM    6  C   UNL     1      25.496  47.406  40.118  1.00  0.00     0.135 C 
HETATM    7  N   UNL     1      28.481  46.361  40.041  1.00  0.00    -0.229 NA
HETATM    8  C   UNL     1      29.257  47.153  39.106  1.00  0.00     0.048 C 
HETATM    9  C   UNL     1      29.906  46.010  38.320  1.00  0.00     0.071 C 
HETATM   10  C   UNL     1      29.352  48.564  38.973  1.00  0.00     0.069 C 
ENDROOT
BRANCH   3  11
HETATM   11  C   UNL     1      26.017  49.772  39.175  1.00  0.00     0.156 C 
BRANCH  11  12
HETATM   12  C   UNL     1      24.612  49.733  38.591  1.00  0.00     0.223 C 
HETATM   13  N   UNL     1      23.663  50.453  39.290  1.00  0.00    -0.359 N 
HETATM   14  H   UNL     1      23.961  50.905  40.153  1.00  0.00     0.162 HD
HETATM   15  O   UNL     1      24.354  49.107  37.566  1.00  0.00    -0.273 OA
BRANCH  13  16
HETATM   16  C   UNL     1      22.195  50.409  39.141  1.00  0.00     0.150 C 
BRANCH  16  17
HETATM   17  C   UNL     1      21.287  49.661  40.158  1.00  0.00     0.254 C 
BRANCH  17  18
HETATM   18  N   UNL     1      19.915  50.285  40.381  1.00  0.00    -0.070 N 
HETATM   19  H   UNL     1      19.254  49.481  40.367  1.00  0.00     0.279 HD
HETATM   20  C   UNL     1      19.803  50.942  41.722  1.00  0.00     0.235 C 
HETATM   21  C   UNL     1      18.435  51.561  41.940  1.00  0.00     0.028 C 
HETATM   22  C   UNL     1      18.055  52.520  40.830  1.00  0.00     0.003 C 
HETATM   23  C   UNL     1      18.136  51.803  39.492  1.00  0.00     0.028 C 
HETATM   24  C   UNL     1      19.530  51.226  39.255  1.00  0.00     0.235 C 
ENDBRANCH  17  18
ENDBRANCH  16  17
ENDBRANCH  13  16
ENDBRANCH  11  12
ENDBRANCH   3  11
BRANCH   1  25
HETATM   25  C   UNL     1      30.582  48.310  41.258  1.00  0.00    -0.030 C 
HETATM   26  C   UNL     1      31.850  48.332  40.617  1.00  0.00     0.010 C 
HETATM   27  C   UNL     1      32.926  49.157  41.090  1.00  0.00     0.007 C 
HETATM   28  C   UNL     1      32.781  49.968  42.216  1.00  0.00    -0.062 C 
HETATM   29  C   UNL     1      33.789  51.018  42.622  1.00  0.00     0.048 C 
HETATM   30  C   UNL     1      31.668  49.706  43.005  1.00  0.00     0.007 C 
HETATM   31  C   UNL     1      30.681  48.772  42.596  1.00  0.00     0.010 C 
ENDBRANCH   1  25
BRANCH  10  32
HETATM   32  C   UNL     1      29.437  50.197  38.845  1.00  0.00     0.294 C 
HETATM   33  O   UNL     1      29.152  50.726  37.739  1.00  0.00    -0.259 OA
BRANCH  32  34
HETATM   34  O   UNL     1      29.745  50.993  39.884  1.00  0.00    -0.313 OA
BRANCH  34  35
HETATM   35  C   UNL     1      30.681  52.194  39.806  1.00  0.00     0.124 C 
HETATM   36  C   UNL     1      30.980  53.038  41.066  1.00  0.00     0.040 C 
HETATM   37  C   UNL     1      32.035  51.953  39.104  1.00  0.00     0.040 C 
ENDBRANCH  34  35
ENDBRANCH  32  34
ENDBRANCH  10  32
TORSDOF 9
ENDMDL
MODEL 4
REMARK VINA RESULT:      -8.1     10.119     11.590
REMARK  9 active torsions:
REMARK  status: ('A' for Active; 'I' for Inactive)
REMARK    1  A    between atoms: C_5  and  C_6 
REMARK    2  A    between atoms: C_8  and  C_9 
REMARK    3  A    between atoms: C_9  and  C_10 
REMARK       I    between atoms: C_10  and  N_11 
REMARK    4  A    between atoms: N_11  and  C_12 
REMARK    5  A    between atoms: C_12  and  C_13 
REMARK    6  A    between atoms: C_13  and  N_14 
REMARK    7  A    between atoms: C_28  and  C_29 
REMARK    8  A    between atoms: C_29  and  O_30 
REMARK    9  A    between atoms: O_30  and  C_31 
ROOT
HETATM    1  C   UNL     1      29.061  48.801  40.517  1.00  0.00     0.166 C 
HETATM    2  N   UNL     1      27.578  48.378  40.701  1.00  0.00    -0.319 N 
HETATM    3  C   UNL     1      26.393  48.598  40.124  1.00  0.00     0.011 C 
HETATM    4  C   UNL     1      27.635  46.894  40.820  1.00  0.00     0.170 C 
HETATM    5  S   UNL     1      26.157  46.188  41.335  1.00  0.00    -0.086 SA
HETATM    6  C   UNL     1      25.461  47.335  40.108  1.00  0.00     0.135 C 
HETATM    7  N   UNL     1      28.450  46.301  40.029  1.00  0.00    -0.229 NA
HETATM    8  C   UNL     1      29.220  47.091  39.086  1.00  0.00     0.048 C 
HETATM    9  C   UNL     1      29.871  45.946  38.305  1.00  0.00     0.071 C 
HETATM   10  C   UNL     1      29.309  48.502  38.945  1.00  0.00     0.069 C 
ENDROOT
BRANCH   3  11
HETATM   11  C   UNL     1      25.970  49.698  39.150  1.00  0.00     0.156 C 
BRANCH  11  12
HETATM   12  C   UNL     1      24.510  49.764  38.722  1.00  0.00     0.223 C 
HETATM   13  N   UNL     1      23.692  50.523  39.536  1.00  0.00    -0.359 N 
HETATM   14  H   UNL     1      24.111  50.931  40.371  1.00  0.00     0.162 HD
HETATM   15  O   UNL     1      24.102  49.185  37.719  1.00  0.00    -0.273 OA
BRANCH  13  16
HETATM   16  C   UNL     1      22.217  50.577  39.547  1.00  0.00     0.150 C 
BRANCH  16  17
HETATM   17  C   UNL     1      21.358  49.448  40.185  1.00  0.00     0.254 C 
BRANCH  17  18
HETATM   18  N   UNL     1      21.842  48.029  39.905  1.00  0.00    -0.070 N 
HETATM   19  H   UNL     1      22.862  48.130  39.725  1.00  0.00     0.279 HD
HETATM   20  C   UNL     1      21.675  47.130  41.090  1.00  0.00     0.235 C 
HETATM   21  C   UNL     1      22.158  45.720  40.806  1.00  0.00     0.028 C 
HETATM   22  C   UNL     1      21.504  45.126  39.575  1.00  0.00     0.003 C 
HETATM   23  C   UNL     1      21.735  46.044  38.386  1.00  0.00     0.028 C 
HETATM   24  C   UNL     1      21.202  47.449  38.658  1.00  0.00     0.235 C 
ENDBRANCH  17  18
ENDBRANCH  16  17
ENDBRANCH  13  16
ENDBRANCH  11  12
ENDBRANCH   3  11
BRANCH   1  25
HETATM   25  C   UNL     1      30.546  48.265  41.228  1.00  0.00    -0.030 C 
HETATM   26  C   UNL     1      31.814  48.299  40.587  1.00  0.00     0.010 C 
HETATM   27  C   UNL     1      32.884  49.132  41.062  1.00  0.00     0.007 C 
HETATM   28  C   UNL     1      32.732  49.939  42.191  1.00  0.00    -0.062 C 
HETATM   29  C   UNL     1      33.732  50.995  42.601  1.00  0.00     0.048 C 
HETATM   30  C   UNL     1      31.621  49.665  42.979  1.00  0.00     0.007 C 
HETATM   31  C   UNL     1      30.642  48.724  42.568  1.00  0.00     0.010 C 
ENDBRANCH   1  25
BRANCH  10  32
HETATM   32  C   UNL     1      29.387  50.135  38.808  1.00  0.00     0.294 C 
HETATM   33  O   UNL     1      29.105  50.655  37.697  1.00  0.00    -0.259 OA
BRANCH  32  34
HETATM   34  O   UNL     1      29.686  50.938  39.843  1.00  0.00    -0.313 OA
BRANCH  34  35
HETATM   35  C   UNL     1      30.627  52.134  39.766  1.00  0.00     0.124 C 
HETATM   36  C   UNL     1      30.932  52.975  41.027  1.00  0.00     0.040 C 
HETATM   37  C   UNL     1      31.979  51.889  39.061  1.00  0.00     0.040 C 
ENDBRANCH  34  35
ENDBRANCH  32  34
ENDBRANCH  10  32
TORSDOF 9
ENDMDL
MODEL 5
REMARK VINA RESULT:      -8.0      2.589      4.732
REMARK  9 active torsions:
REMARK  status: ('A' for Active; 'I' for Inactive)
REMARK    1  A    between atoms: C_5  and  C_6 
REMARK    2  A    between atoms: C_8  and  C_9 
REMARK    3  A    between atoms: C_9  and  C_10 
REMARK       I    between atoms: C_10  and  N_11 
REMARK    4  A    between atoms: N_11  and  C_12 
REMARK    5  A    between atoms: C_12  and  C_13 
REMARK    6  A    between atoms: C_13  and  N_14 
REMARK    7  A    between atoms: C_28  and  C_29 
REMARK    8  A    between atoms: C_29  and  O_30 
REMARK    9  A    between atoms: O_30  and  C_31 
ROOT
HETATM    1  C   UNL     1      25.095  44.022  49.788  1.00  0.00     0.166 C 
HETATM    2  N   UNL     1      25.102  45.520  49.380  1.00  0.00    -0.319 N 
HETATM    3  C   UNL     1      24.225  46.508  49.178  1.00  0.00     0.011 C 
HETATM    4  C   UNL     1      26.119  46.137  50.275  1.00  0.00     0.170 C 
HETATM    5  S   UNL     1      26.546  47.740  49.829  1.00  0.00    -0.086 SA
HETATM    6  C   UNL     1      24.745  47.912  49.650  1.00  0.00     0.135 C 
HETATM    7  N   UNL     1      26.112  45.733  51.491  1.00  0.00    -0.229 NA
HETATM    8  C   UNL     1      25.130  44.747  51.902  1.00  0.00     0.048 C 
HETATM    9  C   UNL     1      25.428  44.738  53.404  1.00  0.00     0.071 C 
HETATM   10  C   UNL     1      24.179  44.036  51.123  1.00  0.00     0.069 C 
ENDROOT
BRANCH   3  11
HETATM   11  C   UNL     1      22.712  46.444  48.962  1.00  0.00     0.156 C 
BRANCH  11  12
HETATM   12  C   UNL     1      21.997  47.695  48.470  1.00  0.00     0.223 C 
HETATM   13  N   UNL     1      21.234  48.349  49.417  1.00  0.00    -0.359 N 
HETATM   14  H   UNL     1      21.171  47.924  50.341  1.00  0.00     0.162 HD
HETATM   15  O   UNL     1      22.104  48.087  47.311  1.00  0.00    -0.273 OA
BRANCH  13  16
HETATM   16  C   UNL     1      20.235  49.413  49.203  1.00  0.00     0.150 C 
BRANCH  16  17
HETATM   17  C   UNL     1      19.448  50.052  50.383  1.00  0.00     0.254 C 
BRANCH  17  18
HETATM   18  N   UNL     1      18.079  50.615  50.019  1.00  0.00    -0.070 N 
HETATM   19  H   UNL     1      17.467  50.359  50.822  1.00  0.00     0.279 HD
HETATM   20  C   UNL     1      18.091  52.109  49.915  1.00  0.00     0.235 C 
HETATM   21  C   UNL     1      16.726  52.664  49.554  1.00  0.00     0.028 C 
HETATM   22  C   UNL     1      16.165  52.035  48.295  1.00  0.00     0.003 C 
HETATM   23  C   UNL     1      16.126  50.524  48.458  1.00  0.00     0.028 C 
HETATM   24  C   UNL     1      17.512  49.964  48.772  1.00  0.00     0.235 C 
ENDBRANCH  17  18
ENDBRANCH  16  17
ENDBRANCH  13  16
ENDBRANCH  11  12
ENDBRANCH   3  11
BRANCH   1  25
HETATM   25  C   UNL     1      26.345  42.902  50.216  1.00  0.00    -0.030 C 
HETATM   26  C   UNL     1      26.183  41.801  51.100  1.00  0.00     0.010 C 
HETATM   27  C   UNL     1      26.304  40.442  50.651  1.00  0.00     0.007 C 
HETATM   28  C   UNL     1      26.602  40.138  49.323  1.00  0.00    -0.062 C 
HETATM   29  C   UNL     1      26.518  38.743  48.748  1.00  0.00     0.048 C 
HETATM   30  C   UNL     1      27.062  41.199  48.553  1.00  0.00     0.007 C 
HETATM   31  C   UNL     1      27.080  42.523  49.062  1.00  0.00     0.010 C 
ENDBRANCH   1  25
BRANCH  10  32
HETATM   32  C   UNL     1      23.091  43.232  50.195  1.00  0.00     0.294 C 
HETATM   33  O   UNL     1      21.903  43.644  50.174  1.00  0.00    -0.259 OA
BRANCH  32  34
HETATM   34  O   UNL     1      23.428  42.187  49.418  1.00  0.00    -0.313 OA
BRANCH  34  35
HETATM   35  C   UNL     1      22.935  41.976  47.991  1.00  0.00     0.124 C 
HETATM   36  C   UNL     1      22.961  43.139  46.973  1.00  0.00     0.040 C 
HETATM   37  C   UNL     1      23.491  40.736  47.258  1.00  0.00     0.040 C 
ENDBRANCH  34  35
ENDBRANCH  32  34
ENDBRANCH  10  32
TORSDOF 9
ENDMDL
MODEL 6
REMARK VINA RESULT:      -7.9     10.393     13.781
REMARK  9 active torsions:
REMARK  status: ('A' for Active; 'I' for Inactive)
REMARK    1  A    between atoms: C_5  and  C_6 
REMARK    2  A    between atoms: C_8  and  C_9 
REMARK    3  A    between atoms: C_9  and  C_10 
REMARK       I    between atoms: C_10  and  N_11 
REMARK    4  A    between atoms: N_11  and  C_12 
REMARK    5  A    between atoms: C_12  and  C_13 
REMARK    6  A    between atoms: C_13  and  N_14 
REMARK    7  A    between atoms: C_28  and  C_29 
REMARK    8  A    between atoms: C_29  and  O_30 
REMARK    9  A    between atoms: O_30  and  C_31 
ROOT
HETATM    1  C   UNL     1      29.771  49.964  39.601  1.00  0.00     0.166 C 
HETATM    2  N   UNL     1      28.592  49.109  39.061  1.00  0.00    -0.319 N 
HETATM    3  C   UNL     1      27.865  48.053  39.438  1.00  0.00     0.011 C 
HETATM    4  C   UNL     1      27.566  50.113  38.664  1.00  0.00     0.170 C 
HETATM    5  S   UNL     1      26.271  49.449  37.752  1.00  0.00    -0.086 SA
HETATM    6  C   UNL     1      26.352  48.158  39.029  1.00  0.00     0.135 C 
HETATM    7  N   UNL     1      27.417  51.105  39.461  1.00  0.00    -0.229 NA
HETATM    8  C   UNL     1      28.219  51.168  40.668  1.00  0.00     0.048 C 
HETATM    9  C   UNL     1      27.566  52.392  41.316  1.00  0.00     0.071 C 
HETATM   10  C   UNL     1      29.276  50.322  41.100  1.00  0.00     0.069 C 
ENDROOT
BRANCH   3  11
HETATM   11  C   UNL     1      28.149  47.004  40.513  1.00  0.00     0.156 C 
BRANCH  11  12
HETATM   12  C   UNL     1      28.551  45.604  40.072  1.00  0.00     0.223 C 
HETATM   13  N   UNL     1      27.619  44.616  40.324  1.00  0.00    -0.359 N 
HETATM   14  H   UNL     1      26.772  44.889  40.821  1.00  0.00     0.162 HD
HETATM   15  O   UNL     1      29.628  45.381  39.525  1.00  0.00    -0.273 OA
BRANCH  13  16
HETATM   16  C   UNL     1      27.803  43.154  40.259  1.00  0.00     0.150 C 
BRANCH  16  17
HETATM   17  C   UNL     1      27.139  42.195  41.288  1.00  0.00     0.254 C 
BRANCH  17  18
HETATM   18  N   UNL     1      27.959  40.959  41.644  1.00  0.00    -0.070 N 
HETATM   19  H   UNL     1      27.251  40.226  41.855  1.00  0.00     0.279 HD
HETATM   20  C   UNL     1      28.784  40.477  40.492  1.00  0.00     0.235 C 
HETATM   21  C   UNL     1      29.597  39.247  40.851  1.00  0.00     0.028 C 
HETATM   22  C   UNL     1      30.453  39.464  42.082  1.00  0.00     0.003 C 
HETATM   23  C   UNL     1      29.573  39.907  43.240  1.00  0.00     0.028 C 
HETATM   24  C   UNL     1      28.795  41.174  42.892  1.00  0.00     0.235 C 
ENDBRANCH  17  18
ENDBRANCH  16  17
ENDBRANCH  13  16
ENDBRANCH  11  12
ENDBRANCH   3  11
BRANCH   1  25
HETATM   25  C   UNL     1      30.488  51.455  39.089  1.00  0.00    -0.030 C 
HETATM   26  C   UNL     1      30.946  52.480  39.961  1.00  0.00     0.010 C 
HETATM   27  C   UNL     1      32.334  52.836  40.052  1.00  0.00     0.007 C 
HETATM   28  C   UNL     1      33.302  52.201  39.273  1.00  0.00    -0.062 C 
HETATM   29  C   UNL     1      34.788  52.371  39.486  1.00  0.00     0.048 C 
HETATM   30  C   UNL     1      32.816  51.439  38.216  1.00  0.00     0.007 C 
HETATM   31  C   UNL     1      31.424  51.217  38.049  1.00  0.00     0.010 C 
ENDBRANCH   1  25
BRANCH  10  32
HETATM   32  C   UNL     1      30.490  49.324  41.570  1.00  0.00     0.294 C 
HETATM   33  O   UNL     1      30.966  48.523  40.725  1.00  0.00    -0.259 OA
BRANCH  32  34
HETATM   34  O   UNL     1      31.031  49.366  42.800  1.00  0.00    -0.313 OA
BRANCH  34  35
HETATM   35  C   UNL     1      32.218  50.237  43.193  1.00  0.00     0.124 C 
HETATM   36  C   UNL     1      33.487  50.278  42.311  1.00  0.00     0.040 C 
HETATM   37  C   UNL     1      31.892  51.701  43.565  1.00  0.00     0.040 C 
ENDBRANCH  34  35
ENDBRANCH  32  34
ENDBRANCH  10  32
TORSDOF 9
ENDMDL
MODEL 7
REMARK VINA RESULT:      -7.9     20.891     23.506
REMARK  9 active torsions:
REMARK  status: ('A' for Active; 'I' for Inactive)
REMARK    1  A    between atoms: C_5  and  C_6 
REMARK    2  A    between atoms: C_8  and  C_9 
REMARK    3  A    between atoms: C_9  and  C_10 
REMARK       I    between atoms: C_10  and  N_11 
REMARK    4  A    between atoms: N_11  and  C_12 
REMARK    5  A    between atoms: C_12  and  C_13 
REMARK    6  A    between atoms: C_13  and  N_14 
REMARK    7  A    between atoms: C_28  and  C_29 
REMARK    8  A    between atoms: C_29  and  O_30 
REMARK    9  A    between atoms: O_30  and  C_31 
ROOT
HETATM    1  C   UNL     1      40.249  46.520  66.002  1.00  0.00     0.166 C 
HETATM    2  N   UNL     1      41.773  46.251  66.131  1.00  0.00    -0.319 N 
HETATM    3  C   UNL     1      42.590  45.383  66.734  1.00  0.00     0.011 C 
HETATM    4  C   UNL     1      42.267  46.275  64.727  1.00  0.00     0.170 C 
HETATM    5  S   UNL     1      43.980  46.304  64.601  1.00  0.00    -0.086 SA
HETATM    6  C   UNL     1      43.855  45.016  65.878  1.00  0.00     0.135 C 
HETATM    7  N   UNL     1      41.517  45.703  63.860  1.00  0.00    -0.229 NA
HETATM    8  C   UNL     1      40.286  45.073  64.299  1.00  0.00     0.048 C 
HETATM    9  C   UNL     1      39.874  44.425  62.973  1.00  0.00     0.071 C 
HETATM   10  C   UNL     1      39.680  45.063  65.584  1.00  0.00     0.069 C 
ENDROOT
BRANCH   3  11
HETATM   11  C   UNL     1      42.310  44.410  67.880  1.00  0.00     0.156 C 
BRANCH  11  12
HETATM   12  C   UNL     1      42.731  42.956  67.716  1.00  0.00     0.223 C 
HETATM   13  N   UNL     1      42.091  42.268  66.704  1.00  0.00    -0.359 N 
HETATM   14  H   UNL     1      41.365  42.763  66.188  1.00  0.00     0.162 HD
HETATM   15  O   UNL     1      43.586  42.444  68.434  1.00  0.00    -0.273 OA
BRANCH  13  16
HETATM   16  C   UNL     1      42.080  40.813  66.459  1.00  0.00     0.150 C 
BRANCH  16  17
HETATM   17  C   UNL     1      40.784  39.965  66.598  1.00  0.00     0.254 C 
BRANCH  17  18
HETATM   18  N   UNL     1      39.876  39.964  65.373  1.00  0.00    -0.070 N 
HETATM   19  H   UNL     1      39.115  39.293  65.609  1.00  0.00     0.279 HD
HETATM   20  C   UNL     1      39.245  41.301  65.135  1.00  0.00     0.235 C 
HETATM   21  C   UNL     1      38.342  41.295  63.916  1.00  0.00     0.028 C 
HETATM   22  C   UNL     1      39.057  40.801  62.675  1.00  0.00     0.003 C 
HETATM   23  C   UNL     1      39.642  39.424  62.942  1.00  0.00     0.028 C 
HETATM   24  C   UNL     1      40.590  39.446  64.139  1.00  0.00     0.235 C 
ENDBRANCH  17  18
ENDBRANCH  16  17
ENDBRANCH  13  16
ENDBRANCH  11  12
ENDBRANCH   3  11
BRANCH   1  25
HETATM   25  C   UNL     1      39.310  47.578  65.003  1.00  0.00    -0.030 C 
HETATM   26  C   UNL     1      37.911  47.793  65.134  1.00  0.00     0.010 C 
HETATM   27  C   UNL     1      37.370  49.069  65.512  1.00  0.00     0.007 C 
HETATM   28  C   UNL     1      38.196  50.166  65.755  1.00  0.00    -0.062 C 
HETATM   29  C   UNL     1      37.708  51.457  66.371  1.00  0.00     0.048 C 
HETATM   30  C   UNL     1      39.511  50.035  65.325  1.00  0.00     0.007 C 
HETATM   31  C   UNL     1      39.996  48.805  64.809  1.00  0.00     0.010 C 
ENDBRANCH   1  25
BRANCH  10  32
HETATM   32  C   UNL     1      39.007  45.070  67.080  1.00  0.00     0.294 C 
HETATM   33  O   UNL     1      39.358  45.968  67.888  1.00  0.00    -0.259 OA
BRANCH  32  34
HETATM   34  O   UNL     1      38.063  44.190  67.457  1.00  0.00    -0.313 OA
BRANCH  34  35
HETATM   35  C   UNL     1      36.583  44.313  67.117  1.00  0.00     0.124 C 
HETATM   36  C   UNL     1      35.839  45.653  67.323  1.00  0.00     0.040 C 
HETATM   37  C   UNL     1      36.160  43.783  65.729  1.00  0.00     0.040 C 
ENDBRANCH  34  35
ENDBRANCH  32  34
ENDBRANCH  10  32
TORSDOF 9
ENDMDL
MODEL 8
REMARK VINA RESULT:      -7.9     20.107     22.971
REMARK  9 active torsions:
REMARK  status: ('A' for Active; 'I' for Inactive)
REMARK    1  A    between atoms: C_5  and  C_6 
REMARK    2  A    between atoms: C_8  and  C_9 
REMARK    3  A    between atoms: C_9  and  C_10 
REMARK       I    between atoms: C_10  and  N_11 
REMARK    4  A    between atoms: N_11  and  C_12 
REMARK    5  A    between atoms: C_12  and  C_13 
REMARK    6  A    between atoms: C_13  and  N_14 
REMARK    7  A    between atoms: C_28  and  C_29 
REMARK    8  A    between atoms: C_29  and  O_30 
REMARK    9  A    between atoms: O_30  and  C_31 
ROOT
HETATM    1  C   UNL     1      38.882  46.536  65.406  1.00  0.00     0.166 C 
HETATM    2  N   UNL     1      37.833  45.504  64.910  1.00  0.00    -0.319 N 
HETATM    3  C   UNL     1      37.762  44.477  64.058  1.00  0.00     0.011 C 
HETATM    4  C   UNL     1      37.240  44.957  66.162  1.00  0.00     0.170 C 
HETATM    5  S   UNL     1      35.833  44.007  65.899  1.00  0.00    -0.086 SA
HETATM    6  C   UNL     1      36.850  43.304  64.566  1.00  0.00     0.135 C 
HETATM    7  N   UNL     1      38.062  44.729  67.117  1.00  0.00    -0.229 NA
HETATM    8  C   UNL     1      39.474  44.993  66.911  1.00  0.00     0.048 C 
HETATM    9  C   UNL     1      40.009  44.421  68.227  1.00  0.00     0.071 C 
HETATM   10  C   UNL     1      40.133  45.588  65.802  1.00  0.00     0.069 C 
ENDROOT
BRANCH   3  11
HETATM   11  C   UNL     1      38.703  44.086  62.918  1.00  0.00     0.156 C 
BRANCH  11  12
HETATM   12  C   UNL     1      39.528  42.815  63.063  1.00  0.00     0.223 C 
HETATM   13  N   UNL     1      38.971  41.683  62.501  1.00  0.00    -0.359 N 
HETATM   14  H   UNL     1      38.046  41.775  62.084  1.00  0.00     0.162 HD
HETATM   15  O   UNL     1      40.614  42.810  63.637  1.00  0.00    -0.273 OA
BRANCH  13  16
HETATM   16  C   UNL     1      39.380  40.278  62.690  1.00  0.00     0.150 C 
BRANCH  16  17
HETATM   17  C   UNL     1      39.256  39.563  64.065  1.00  0.00     0.254 C 
BRANCH  17  18
HETATM   18  N   UNL     1      40.446  38.691  64.452  1.00  0.00    -0.070 N 
HETATM   19  H   UNL     1      40.628  38.106  63.610  1.00  0.00     0.279 HD
HETATM   20  C   UNL     1      41.677  39.500  64.718  1.00  0.00     0.235 C 
HETATM   21  C   UNL     1      42.858  38.628  65.101  1.00  0.00     0.028 C 
HETATM   22  C   UNL     1      42.543  37.715  66.268  1.00  0.00     0.003 C 
HETATM   23  C   UNL     1      41.317  36.879  65.941  1.00  0.00     0.028 C 
HETATM   24  C   UNL     1      40.117  37.762  65.605  1.00  0.00     0.235 C 
ENDBRANCH  17  18
ENDBRANCH  16  17
ENDBRANCH  13  16
ENDBRANCH  11  12
ENDBRANCH   3  11
BRANCH   1  25
HETATM   25  C   UNL     1      38.887  47.700  66.688  1.00  0.00    -0.030 C 
HETATM   26  C   UNL     1      39.833  48.752  66.828  1.00  0.00     0.010 C 
HETATM   27  C   UNL     1      39.453  50.134  66.729  1.00  0.00     0.007 C 
HETATM   28  C   UNL     1      38.128  50.510  66.506  1.00  0.00    -0.062 C 
HETATM   29  C   UNL     1      37.708  51.922  66.169  1.00  0.00     0.048 C 
HETATM   30  C   UNL     1      37.181  49.509  66.684  1.00  0.00     0.007 C 
HETATM   31  C   UNL     1      37.569  48.167  66.932  1.00  0.00     0.010 C 
ENDBRANCH   1  25
BRANCH  10  32
HETATM   32  C   UNL     1      40.863  46.277  64.504  1.00  0.00     0.294 C 
HETATM   33  O   UNL     1      40.542  47.453  64.193  1.00  0.00    -0.259 OA
BRANCH  32  34
HETATM   34  O   UNL     1      41.823  45.658  63.796  1.00  0.00    -0.313 OA
BRANCH  34  35
HETATM   35  C   UNL     1      43.257  45.461  64.273  1.00  0.00     0.124 C 
HETATM   36  C   UNL     1      44.060  46.647  64.856  1.00  0.00     0.040 C 
HETATM   37  C   UNL     1      43.501  44.259  65.212  1.00  0.00     0.040 C 
ENDBRANCH  34  35
ENDBRANCH  32  34
ENDBRANCH  10  32
TORSDOF 9
ENDMDL
MODEL 9
REMARK VINA RESULT:      -7.7      3.372      5.339
REMARK  9 active torsions:
REMARK  status: ('A' for Active; 'I' for Inactive)
REMARK    1  A    between atoms: C_5  and  C_6 
REMARK    2  A    between atoms: C_8  and  C_9 
REMARK    3  A    between atoms: C_9  and  C_10 
REMARK       I    between atoms: C_10  and  N_11 
REMARK    4  A    between atoms: N_11  and  C_12 
REMARK    5  A    between atoms: C_12  and  C_13 
REMARK    6  A    between atoms: C_13  and  N_14 
REMARK    7  A    between atoms: C_28  and  C_29 
REMARK    8  A    between atoms: C_29  and  O_30 
REMARK    9  A    between atoms: O_30  and  C_31 
ROOT
HETATM    1  C   UNL     1      26.597  39.809  49.003  1.00  0.00     0.166 C 
HETATM    2  N   UNL     1      25.181  40.183  48.486  1.00  0.00    -0.319 N 
HETATM    3  C   UNL     1      24.328  41.209  48.552  1.00  0.00     0.011 C 
HETATM    4  C   UNL     1      25.229  39.865  47.032  1.00  0.00     0.170 C 
HETATM    5  S   UNL     1      23.690  39.901  46.269  1.00  0.00    -0.086 SA
HETATM    6  C   UNL     1      23.521  41.438  47.225  1.00  0.00     0.135 C 
HETATM    7  N   UNL     1      26.312  40.181  46.425  1.00  0.00    -0.229 NA
HETATM    8  C   UNL     1      27.376  40.827  47.171  1.00  0.00     0.048 C 
HETATM    9  C   UNL     1      28.322  41.131  46.006  1.00  0.00     0.071 C 
HETATM   10  C   UNL     1      27.472  41.098  48.562  1.00  0.00     0.069 C 
ENDROOT
BRANCH   3  11
HETATM   11  C   UNL     1      24.306  42.402  49.509  1.00  0.00     0.156 C 
BRANCH  11  12
HETATM   12  C   UNL     1      23.340  43.543  49.222  1.00  0.00     0.223 C 
HETATM   13  N   UNL     1      23.930  44.771  48.993  1.00  0.00    -0.359 N 
HETATM   14  H   UNL     1      24.944  44.826  49.081  1.00  0.00     0.162 HD
HETATM   15  O   UNL     1      22.125  43.371  49.193  1.00  0.00    -0.273 OA
BRANCH  13  16
HETATM   16  C   UNL     1      23.284  46.096  48.945  1.00  0.00     0.150 C 
BRANCH  16  17
HETATM   17  C   UNL     1      23.938  47.354  49.585  1.00  0.00     0.254 C 
BRANCH  17  18
HETATM   18  N   UNL     1      23.097  48.624  49.522  1.00  0.00    -0.070 N 
HETATM   19  H   UNL     1      22.964  48.901  50.517  1.00  0.00     0.279 HD
HETATM   20  C   UNL     1      23.814  49.743  48.831  1.00  0.00     0.235 C 
HETATM   21  C   UNL     1      22.974  51.005  48.771  1.00  0.00     0.028 C 
HETATM   22  C   UNL     1      21.614  50.760  48.148  1.00  0.00     0.003 C 
HETATM   23  C   UNL     1      20.901  49.652  48.906  1.00  0.00     0.028 C 
HETATM   24  C   UNL     1      21.729  48.369  48.920  1.00  0.00     0.235 C 
ENDBRANCH  17  18
ENDBRANCH  16  17
ENDBRANCH  13  16
ENDBRANCH  11  12
ENDBRANCH   3  11
BRANCH   1  25
HETATM   25  C   UNL     1      27.679  38.500  48.661  1.00  0.00    -0.030 C 
HETATM   26  C   UNL     1      29.097  38.579  48.724  1.00  0.00     0.010 C 
HETATM   27  C   UNL     1      29.858  37.827  49.682  1.00  0.00     0.007 C 
HETATM   28  C   UNL     1      29.238  36.967  50.590  1.00  0.00    -0.062 C 
HETATM   29  C   UNL     1      29.956  36.331  51.757  1.00  0.00     0.048 C 
HETATM   30  C   UNL     1      27.910  36.661  50.317  1.00  0.00     0.007 C 
HETATM   31  C   UNL     1      27.209  37.306  49.265  1.00  0.00     0.010 C 
ENDBRANCH   1  25
BRANCH  10  32
HETATM   32  C   UNL     1      27.551  41.397  50.174  1.00  0.00     0.294 C 
HETATM   33  O   UNL     1      27.230  40.477  50.969  1.00  0.00    -0.259 OA
BRANCH  32  34
HETATM   34  O   UNL     1      27.995  42.563  50.676  1.00  0.00    -0.313 OA
BRANCH  34  35
HETATM   35  C   UNL     1      27.449  43.225  51.935  1.00  0.00     0.124 C 
HETATM   36  C   UNL     1      28.390  43.566  53.114  1.00  0.00     0.040 C 
HETATM   37  C   UNL     1      26.552  44.463  51.715  1.00  0.00     0.040 C 
ENDBRANCH  34  35
ENDBRANCH  32  34
ENDBRANCH  10  32
TORSDOF 9
ENDMDL
MODEL 10
REMARK VINA RESULT:      -7.7     19.869     22.517
REMARK  9 active torsions:
REMARK  status: ('A' for Active; 'I' for Inactive)
REMARK    1  A    between atoms: C_5  and  C_6 
REMARK    2  A    between atoms: C_8  and  C_9 
REMARK    3  A    between atoms: C_9  and  C_10 
REMARK       I    between atoms: C_10  and  N_11 
REMARK    4  A    between atoms: N_11  and  C_12 
REMARK    5  A    between atoms: C_12  and  C_13 
REMARK    6  A    between atoms: C_13  and  N_14 
REMARK    7  A    between atoms: C_28  and  C_29 
REMARK    8  A    between atoms: C_29  and  O_30 
REMARK    9  A    between atoms: O_30  and  C_31 
ROOT
HETATM    1  C   UNL     1      38.689  45.432  65.535  1.00  0.00     0.166 C 
HETATM    2  N   UNL     1      38.153  45.713  66.965  1.00  0.00    -0.319 N 
HETATM    3  C   UNL     1      38.511  46.404  68.052  1.00  0.00     0.011 C 
HETATM    4  C   UNL     1      36.735  46.113  66.751  1.00  0.00     0.170 C 
HETATM    5  S   UNL     1      35.815  46.191  68.200  1.00  0.00    -0.086 SA
HETATM    6  C   UNL     1      37.296  47.052  68.809  1.00  0.00     0.135 C 
HETATM    7  N   UNL     1      36.515  46.879  65.748  1.00  0.00    -0.229 NA
HETATM    8  C   UNL     1      37.634  47.307  64.928  1.00  0.00     0.048 C 
HETATM    9  C   UNL     1      36.890  48.290  64.020  1.00  0.00     0.071 C 
HETATM   10  C   UNL     1      39.000  46.923  64.988  1.00  0.00     0.069 C 
ENDROOT
BRANCH   3  11
HETATM   11  C   UNL     1      39.868  46.996  68.431  1.00  0.00     0.156 C 
BRANCH  11  12
HETATM   12  C   UNL     1      39.992  48.509  68.551  1.00  0.00     0.223 C 
HETATM   13  N   UNL     1      39.991  49.000  69.842  1.00  0.00    -0.359 N 
HETATM   14  H   UNL     1      39.860  48.328  70.598  1.00  0.00     0.162 HD
HETATM   15  O   UNL     1      40.091  49.230  67.563  1.00  0.00    -0.273 OA
BRANCH  13  16
HETATM   16  C   UNL     1      39.836  50.399  70.283  1.00  0.00     0.150 C 
BRANCH  16  17
HETATM   17  C   UNL     1      38.594  51.251  69.896  1.00  0.00     0.254 C 
BRANCH  17  18
HETATM   18  N   UNL     1      38.673  51.928  68.532  1.00  0.00    -0.070 N 
HETATM   19  H   UNL     1      39.568  51.590  68.121  1.00  0.00     0.279 HD
HETATM   20  C   UNL     1      37.564  51.499  67.622  1.00  0.00     0.235 C 
HETATM   21  C   UNL     1      37.647  52.175  66.267  1.00  0.00     0.028 C 
HETATM   22  C   UNL     1      37.705  53.685  66.381  1.00  0.00     0.003 C 
HETATM   23  C   UNL     1      38.871  54.081  67.273  1.00  0.00     0.028 C 
HETATM   24  C   UNL     1      38.756  53.438  68.653  1.00  0.00     0.235 C 
ENDBRANCH  17  18
ENDBRANCH  16  17
ENDBRANCH  13  16
ENDBRANCH  11  12
ENDBRANCH   3  11
BRANCH   1  25
HETATM   25  C   UNL     1      38.004  44.667  64.140  1.00  0.00    -0.030 C 
HETATM   26  C   UNL     1      38.675  44.485  62.901  1.00  0.00     0.010 C 
HETATM   27  C   UNL     1      38.998  43.179  62.396  1.00  0.00     0.007 C 
HETATM   28  C   UNL     1      38.653  42.023  63.096  1.00  0.00    -0.062 C 
HETATM   29  C   UNL     1      39.161  40.647  62.734  1.00  0.00     0.048 C 
HETATM   30  C   UNL     1      37.737  42.196  64.127  1.00  0.00     0.007 C 
HETATM   31  C   UNL     1      37.308  43.490  64.519  1.00  0.00     0.010 C 
ENDBRANCH   1  25
BRANCH  10  32
HETATM   32  C   UNL     1      40.571  46.460  65.085  1.00  0.00     0.294 C 
HETATM   33  O   UNL     1      41.453  47.244  64.646  1.00  0.00    -0.259 OA
BRANCH  32  34
HETATM   34  O   UNL     1      40.956  45.308  65.659  1.00  0.00    -0.313 OA
BRANCH  34  35
HETATM   35  C   UNL     1      41.855  44.270  64.998  1.00  0.00     0.124 C 
HETATM   36  C   UNL     1      43.394  44.393  65.090  1.00  0.00     0.040 C 
HETATM   37  C   UNL     1      41.513  42.792  65.288  1.00  0.00     0.040 C 
ENDBRANCH  34  35
ENDBRANCH  32  34
ENDBRANCH  10  32
TORSDOF 9
ENDMDL
