MODEL 1
REMARK VINA RESULT:      -7.7      0.000      0.000
REMARK  9 active torsions:
REMARK  status: ('A' for Active; 'I' for Inactive)
REMARK    1  A    between atoms: C_4  and  C_5 
REMARK    2  A    between atoms: C_7  and  O_8 
REMARK    3  A    between atoms: C_10  and  O_11 
REMARK    4  A    between atoms: C_16  and  C_17 
REMARK    5  A    between atoms: C_20  and  C_21 
REMARK    6  A    between atoms: C_21  and  N_22 
REMARK    7  A    between atoms: N_22  and  C_23 
REMARK    8  A    between atoms: C_23  and  N_24 
REMARK    9  A    between atoms: N_24  and  C_25 
ROOT
HETATM    1  C   UNL     1      34.357  51.331  42.751  1.00  0.00     0.035 A 
HETATM    2  C   UNL     1      34.075  50.181  42.011  1.00  0.00     0.052 A 
HETATM    3  C   UNL     1      32.874  49.483  42.195  1.00  0.00     0.046 A 
HETATM    4  C   UNL     1      32.650  48.289  41.437  1.00  0.00     0.099 C 
HETATM    5  N   UNL     1      32.566  47.318  40.808  1.00  0.00    -0.191 NA
HETATM    6  C   UNL     1      31.929  49.954  43.106  1.00  0.00     0.023 A 
HETATM    7  C   UNL     1      32.186  51.125  43.821  1.00  0.00     0.004 A 
HETATM    8  C   UNL     1      33.391  51.813  43.638  1.00  0.00     0.029 A 
ENDROOT
BRANCH   1   9
HETATM    9  N   UNL     1      35.545  52.077  42.592  1.00  0.00    -0.333 N 
HETATM   10  H   UNL     1      35.501  52.832  41.911  1.00  0.00     0.168 HD
BRANCH   9  11
HETATM   11  C   UNL     1      36.806  51.842  43.069  1.00  0.00     0.172 C 
HETATM   12  S   UNL     1      37.206  52.401  44.588  1.00  0.00    -0.041 SA
BRANCH  11  13
HETATM   13  N   UNL     1      37.632  51.104  42.257  1.00  0.00    -0.365 N 
HETATM   14  H   UNL     1      37.253  50.178  42.079  1.00  0.00     0.161 HD
BRANCH  13  15
HETATM   15  C   UNL     1      39.074  51.298  42.128  1.00  0.00     0.155 C 
BRANCH  15  16
HETATM   16  C   UNL     1      39.510  51.743  40.716  1.00  0.00     0.206 C 
HETATM   17  C   UNL     1      38.564  51.321  39.580  1.00  0.00     0.040 C 
HETATM   18  C   UNL     1      38.411  52.455  38.540  1.00  0.00     0.001 C 
HETATM   19  C   UNL     1      37.679  53.674  39.161  1.00  0.00     0.067 C 
HETATM   20  C   UNL     1      39.834  52.932  38.167  1.00  0.00     0.033 C 
HETATM   21  C   UNL     1      38.328  53.983  40.530  1.00  0.00     0.246 C 
HETATM   22  N   UNL     1      39.678  53.261  40.614  1.00  0.00    -0.065 N 
HETATM   23  C   UNL     1      40.512  53.584  39.380  1.00  0.00     0.236 C 
HETATM   24  H   UNL     1      40.181  53.604  41.444  1.00  0.00     0.280 HD
BRANCH  19  25
HETATM   25  C   UNL     1      36.185  53.542  39.247  1.00  0.00     0.038 A 
HETATM   26  N   UNL     1      35.333  54.626  39.281  1.00  0.00    -0.277 N 
HETATM   27  C   UNL     1      35.667  56.030  39.190  1.00  0.00     0.179 C 
HETATM   28  N   UNL     1      34.043  54.292  39.396  1.00  0.00    -0.172 NA
HETATM   29  C   UNL     1      34.016  52.954  39.360  1.00  0.00     0.089 A 
HETATM   30  C   UNL     1      35.339  52.448  39.254  1.00  0.00     0.061 A 
BRANCH  29  31
HETATM   31  C   UNL     1      32.759  52.204  39.412  1.00  0.00    -0.003 A 
HETATM   32  C   UNL     1      31.773  52.542  40.350  1.00  0.00     0.053 A 
HETATM   33  C   UNL     1      30.557  51.848  40.400  1.00  0.00     0.102 A 
HETATM   34  C   UNL     1      30.328  50.780  39.509  1.00  0.00     0.101 A 
HETATM   35  C   UNL     1      31.313  50.435  38.581  1.00  0.00     0.040 A 
HETATM   36  C   UNL     1      32.518  51.144  38.530  1.00  0.00     0.017 A 
BRANCH  33  37
HETATM   37  O   UNL     1      29.540  52.127  41.279  1.00  0.00    -0.353 OA
HETATM   38  C   UNL     1      28.565  53.080  40.878  1.00  0.00     0.210 C 
ENDBRANCH  33  37
BRANCH  34  39
HETATM   39  O   UNL     1      29.115  50.148  39.625  1.00  0.00    -0.353 OA
HETATM   40  C   UNL     1      28.364  49.929  38.441  1.00  0.00     0.210 C 
ENDBRANCH  34  39
ENDBRANCH  29  31
ENDBRANCH  19  25
ENDBRANCH  15  16
ENDBRANCH  13  15
ENDBRANCH  11  13
ENDBRANCH   9  11
ENDBRANCH   1   9
TORSDOF 9
ENDMDL
MODEL 2
REMARK VINA RESULT:      -7.5     15.174     18.006
REMARK  9 active torsions:
REMARK  status: ('A' for Active; 'I' for Inactive)
REMARK    1  A    between atoms: C_4  and  C_5 
REMARK    2  A    between atoms: C_7  and  O_8 
REMARK    3  A    between atoms: C_10  and  O_11 
REMARK    4  A    between atoms: C_16  and  C_17 
REMARK    5  A    between atoms: C_20  and  C_21 
REMARK    6  A    between atoms: C_21  and  N_22 
REMARK    7  A    between atoms: N_22  and  C_23 
REMARK    8  A    between atoms: C_23  and  N_24 
REMARK    9  A    between atoms: N_24  and  C_25 
ROOT
HETATM    1  C   UNL     1      20.249  48.552  49.161  1.00  0.00     0.035 A 
HETATM    2  C   UNL     1      19.511  49.635  49.641  1.00  0.00     0.052 A 
HETATM    3  C   UNL     1      18.199  49.863  49.203  1.00  0.00     0.046 A 
HETATM    4  C   UNL     1      17.498  51.009  49.699  1.00  0.00     0.099 C 
HETATM    5  N   UNL     1      17.019  51.975  50.126  1.00  0.00    -0.191 NA
HETATM    6  C   UNL     1      17.606  48.984  48.298  1.00  0.00     0.023 A 
HETATM    7  C   UNL     1      18.324  47.876  47.843  1.00  0.00     0.004 A 
HETATM    8  C   UNL     1      19.636  47.659  48.279  1.00  0.00     0.029 A 
ENDROOT
BRANCH   1   9
HETATM    9  N   UNL     1      21.567  48.271  49.581  1.00  0.00    -0.333 N 
HETATM   10  H   UNL     1      21.649  47.662  50.392  1.00  0.00     0.168 HD
BRANCH   9  11
HETATM   11  C   UNL     1      22.756  48.828  49.194  1.00  0.00     0.172 C 
HETATM   12  S   UNL     1      22.893  50.490  49.170  1.00  0.00    -0.041 SA
BRANCH  11  13
HETATM   13  N   UNL     1      23.770  47.948  48.904  1.00  0.00    -0.365 N 
HETATM   14  H   UNL     1      23.977  47.927  47.910  1.00  0.00     0.161 HD
BRANCH  13  15
HETATM   15  C   UNL     1      24.123  46.780  49.709  1.00  0.00     0.155 C 
BRANCH  15  16
HETATM   16  C   UNL     1      23.868  45.439  48.989  1.00  0.00     0.206 C 
HETATM   17  C   UNL     1      25.122  44.586  48.741  1.00  0.00     0.040 C 
HETATM   18  C   UNL     1      24.828  43.087  48.988  1.00  0.00     0.001 C 
HETATM   19  C   UNL     1      24.528  42.828  50.489  1.00  0.00     0.067 C 
HETATM   20  C   UNL     1      23.540  42.737  48.209  1.00  0.00     0.033 C 
HETATM   21  C   UNL     1      23.514  43.890  50.971  1.00  0.00     0.246 C 
HETATM   22  N   UNL     1      22.873  44.557  49.747  1.00  0.00    -0.065 N 
HETATM   23  C   UNL     1      22.339  43.489  48.800  1.00  0.00     0.236 C 
HETATM   24  H   UNL     1      22.082  45.133  50.066  1.00  0.00     0.280 HD
BRANCH  19  25
HETATM   25  C   UNL     1      25.739  42.743  51.373  1.00  0.00     0.038 A 
HETATM   26  N   UNL     1      26.570  41.643  51.412  1.00  0.00    -0.277 N 
HETATM   27  C   UNL     1      26.492  40.437  50.618  1.00  0.00     0.179 C 
HETATM   28  N   UNL     1      27.570  41.754  52.293  1.00  0.00    -0.172 NA
HETATM   29  C   UNL     1      27.459  42.986  52.805  1.00  0.00     0.089 A 
HETATM   30  C   UNL     1      26.330  43.642  52.244  1.00  0.00     0.061 A 
BRANCH  29  31
HETATM   31  C   UNL     1      28.415  43.505  53.785  1.00  0.00    -0.003 A 
HETATM   32  C   UNL     1      28.177  44.734  54.420  1.00  0.00     0.053 A 
HETATM   33  C   UNL     1      29.071  45.236  55.375  1.00  0.00     0.102 A 
HETATM   34  C   UNL     1      30.236  44.508  55.689  1.00  0.00     0.101 A 
HETATM   35  C   UNL     1      30.479  43.289  55.051  1.00  0.00     0.040 A 
HETATM   36  C   UNL     1      29.573  42.790  54.109  1.00  0.00     0.017 A 
BRANCH  33  37
HETATM   37  O   UNL     1      28.903  46.422  56.047  1.00  0.00    -0.353 OA
HETATM   38  C   UNL     1      27.732  47.177  55.769  1.00  0.00     0.210 C 
ENDBRANCH  33  37
BRANCH  34  39
HETATM   39  O   UNL     1      31.063  45.069  56.630  1.00  0.00    -0.353 OA
HETATM   40  C   UNL     1      31.042  44.527  57.941  1.00  0.00     0.210 C 
ENDBRANCH  34  39
ENDBRANCH  29  31
ENDBRANCH  19  25
ENDBRANCH  15  16
ENDBRANCH  13  15
ENDBRANCH  11  13
ENDBRANCH   9  11
ENDBRANCH   1   9
TORSDOF 9
ENDMDL
MODEL 3
REMARK VINA RESULT:      -7.1     24.725     27.402
REMARK  9 active torsions:
REMARK  status: ('A' for Active; 'I' for Inactive)
REMARK    1  A    between atoms: C_4  and  C_5 
REMARK    2  A    between atoms: C_7  and  O_8 
REMARK    3  A    between atoms: C_10  and  O_11 
REMARK    4  A    between atoms: C_16  and  C_17 
REMARK    5  A    between atoms: C_20  and  C_21 
REMARK    6  A    between atoms: C_21  and  N_22 
REMARK    7  A    between atoms: N_22  and  C_23 
REMARK    8  A    between atoms: C_23  and  N_24 
REMARK    9  A    between atoms: N_24  and  C_25 
ROOT
HETATM    1  C   UNL     1      41.422  43.675  65.403  1.00  0.00     0.035 A 
HETATM    2  C   UNL     1      40.540  44.337  66.258  1.00  0.00     0.052 A 
HETATM    3  C   UNL     1      40.020  45.594  65.923  1.00  0.00     0.046 A 
HETATM    4  C   UNL     1      39.148  46.247  66.853  1.00  0.00     0.099 C 
HETATM    5  N   UNL     1      38.478  46.717  67.675  1.00  0.00    -0.191 NA
HETATM    6  C   UNL     1      40.360  46.185  64.707  1.00  0.00     0.023 A 
HETATM    7  C   UNL     1      41.210  45.512  63.828  1.00  0.00     0.004 A 
HETATM    8  C   UNL     1      41.732  44.260  64.172  1.00  0.00     0.029 A 
ENDROOT
BRANCH   1   9
HETATM    9  N   UNL     1      41.961  42.402  65.687  1.00  0.00    -0.333 N 
HETATM   10  H   UNL     1      41.428  41.610  65.334  1.00  0.00     0.168 HD
BRANCH   9  11
HETATM   11  C   UNL     1      42.988  42.043  66.518  1.00  0.00     0.172 C 
HETATM   12  S   UNL     1      44.293  43.069  66.671  1.00  0.00    -0.041 SA
BRANCH  11  13
HETATM   13  N   UNL     1      42.824  40.868  67.210  1.00  0.00    -0.365 N 
HETATM   14  H   UNL     1      42.569  41.035  68.179  1.00  0.00     0.161 HD
BRANCH  13  15
HETATM   15  C   UNL     1      43.465  39.599  66.873  1.00  0.00     0.155 C 
BRANCH  15  16
HETATM   16  C   UNL     1      42.494  38.399  66.879  1.00  0.00     0.206 C 
HETATM   17  C   UNL     1      41.010  38.764  67.046  1.00  0.00     0.040 C 
HETATM   18  C   UNL     1      40.120  37.890  66.131  1.00  0.00     0.001 C 
HETATM   19  C   UNL     1      40.388  38.212  64.636  1.00  0.00     0.067 C 
HETATM   20  C   UNL     1      40.541  36.418  66.352  1.00  0.00     0.033 C 
HETATM   21  C   UNL     1      41.917  38.234  64.411  1.00  0.00     0.246 C 
HETATM   22  N   UNL     1      42.605  37.559  65.605  1.00  0.00    -0.065 N 
HETATM   23  C   UNL     1      41.976  36.194  65.856  1.00  0.00     0.236 C 
HETATM   24  H   UNL     1      43.599  37.421  65.373  1.00  0.00     0.280 HD
BRANCH  19  25
HETATM   25  C   UNL     1      39.710  39.450  64.122  1.00  0.00     0.038 A 
HETATM   26  N   UNL     1      39.463  39.675  62.785  1.00  0.00    -0.277 N 
HETATM   27  C   UNL     1      39.732  38.799  61.666  1.00  0.00     0.179 C 
HETATM   28  N   UNL     1      38.884  40.855  62.536  1.00  0.00    -0.172 NA
HETATM   29  C   UNL     1      38.665  41.405  63.735  1.00  0.00     0.089 A 
HETATM   30  C   UNL     1      39.157  40.549  64.756  1.00  0.00     0.061 A 
BRANCH  29  31
HETATM   31  C   UNL     1      37.994  42.699  63.883  1.00  0.00    -0.003 A 
HETATM   32  C   UNL     1      37.194  42.955  65.006  1.00  0.00     0.053 A 
HETATM   33  C   UNL     1      36.561  44.194  65.173  1.00  0.00     0.102 A 
HETATM   34  C   UNL     1      36.713  45.191  64.189  1.00  0.00     0.101 A 
HETATM   35  C   UNL     1      37.502  44.934  63.065  1.00  0.00     0.040 A 
HETATM   36  C   UNL     1      38.141  43.699  62.915  1.00  0.00     0.017 A 
BRANCH  33  37
HETATM   37  O   UNL     1      35.774  44.525  66.248  1.00  0.00    -0.353 OA
HETATM   38  C   UNL     1      34.768  43.601  66.638  1.00  0.00     0.210 C 
ENDBRANCH  33  37
BRANCH  34  39
HETATM   39  O   UNL     1      36.058  46.374  64.423  1.00  0.00    -0.353 OA
HETATM   40  C   UNL     1      36.811  47.576  64.355  1.00  0.00     0.210 C 
ENDBRANCH  34  39
ENDBRANCH  29  31
ENDBRANCH  19  25
ENDBRANCH  15  16
ENDBRANCH  13  15
ENDBRANCH  11  13
ENDBRANCH   9  11
ENDBRANCH   1   9
TORSDOF 9
ENDMDL
MODEL 4
REMARK VINA RESULT:      -6.7      4.008      9.308
REMARK  9 active torsions:
REMARK  status: ('A' for Active; 'I' for Inactive)
REMARK    1  A    between atoms: C_4  and  C_5 
REMARK    2  A    between atoms: C_7  and  O_8 
REMARK    3  A    between atoms: C_10  and  O_11 
REMARK    4  A    between atoms: C_16  and  C_17 
REMARK    5  A    between atoms: C_20  and  C_21 
REMARK    6  A    between atoms: C_21  and  N_22 
REMARK    7  A    between atoms: N_22  and  C_23 
REMARK    8  A    between atoms: C_23  and  N_24 
REMARK    9  A    between atoms: N_24  and  C_25 
ROOT
HETATM    1  C   UNL     1      28.519  52.368  40.828  1.00  0.00     0.035 A 
HETATM    2  C   UNL     1      29.297  51.969  41.915  1.00  0.00     0.052 A 
HETATM    3  C   UNL     1      30.548  52.551  42.159  1.00  0.00     0.046 A 
HETATM    4  C   UNL     1      31.322  52.079  43.268  1.00  0.00     0.099 C 
HETATM    5  N   UNL     1      31.893  51.615  44.165  1.00  0.00    -0.191 NA
HETATM    6  C   UNL     1      31.017  53.564  41.324  1.00  0.00     0.023 A 
HETATM    7  C   UNL     1      30.228  53.998  40.257  1.00  0.00     0.004 A 
HETATM    8  C   UNL     1      28.983  53.407  40.016  1.00  0.00     0.029 A 
ENDROOT
BRANCH   1   9
HETATM    9  N   UNL     1      27.247  51.824  40.548  1.00  0.00    -0.333 N 
HETATM   10  H   UNL     1      26.510  52.071  41.205  1.00  0.00     0.168 HD
BRANCH   9  11
HETATM   11  C   UNL     1      26.875  50.867  39.643  1.00  0.00     0.172 C 
HETATM   12  S   UNL     1      27.817  50.637  38.286  1.00  0.00    -0.041 SA
BRANCH  11  13
HETATM   13  N   UNL     1      25.764  50.128  39.967  1.00  0.00    -0.365 N 
HETATM   14  H   UNL     1      25.715  49.940  40.964  1.00  0.00     0.161 HD
BRANCH  13  15
HETATM   15  C   UNL     1      25.063  49.224  39.057  1.00  0.00     0.155 C 
BRANCH  15  16
HETATM   16  C   UNL     1      25.269  47.732  39.395  1.00  0.00     0.206 C 
HETATM   17  C   UNL     1      26.440  47.056  38.665  1.00  0.00     0.040 C 
HETATM   18  C   UNL     1      27.201  46.096  39.611  1.00  0.00     0.001 C 
HETATM   19  C   UNL     1      27.911  46.889  40.740  1.00  0.00     0.067 C 
HETATM   20  C   UNL     1      26.146  45.195  40.295  1.00  0.00     0.033 C 
HETATM   21  C   UNL     1      26.902  47.898  41.334  1.00  0.00     0.246 C 
HETATM   22  N   UNL     1      25.487  47.503  40.892  1.00  0.00    -0.065 N 
HETATM   23  C   UNL     1      25.241  46.032  41.208  1.00  0.00     0.236 C 
HETATM   24  H   UNL     1      24.809  48.067  41.425  1.00  0.00     0.280 HD
BRANCH  19  25
HETATM   25  C   UNL     1      29.208  47.535  40.343  1.00  0.00     0.038 A 
HETATM   26  N   UNL     1      30.147  46.915  39.546  1.00  0.00    -0.277 N 
HETATM   27  C   UNL     1      30.065  45.617  38.913  1.00  0.00     0.179 C 
HETATM   28  N   UNL     1      31.247  47.647  39.342  1.00  0.00    -0.172 NA
HETATM   29  C   UNL     1      31.016  48.817  39.950  1.00  0.00     0.089 A 
HETATM   30  C   UNL     1      29.742  48.790  40.579  1.00  0.00     0.061 A 
BRANCH  29  31
HETATM   31  C   UNL     1      31.983  49.915  39.909  1.00  0.00    -0.003 A 
HETATM   32  C   UNL     1      32.926  50.064  40.937  1.00  0.00     0.053 A 
HETATM   33  C   UNL     1      33.872  51.097  40.904  1.00  0.00     0.102 A 
HETATM   34  C   UNL     1      33.865  52.013  39.834  1.00  0.00     0.101 A 
HETATM   35  C   UNL     1      32.920  51.873  38.813  1.00  0.00     0.040 A 
HETATM   36  C   UNL     1      31.989  50.829  38.849  1.00  0.00     0.017 A 
BRANCH  33  37
HETATM   37  O   UNL     1      34.833  51.300  41.864  1.00  0.00    -0.353 OA
HETATM   38  C   UNL     1      35.756  50.248  42.106  1.00  0.00     0.210 C 
ENDBRANCH  33  37
BRANCH  34  39
HETATM   39  O   UNL     1      34.819  52.998  39.877  1.00  0.00    -0.353 OA
HETATM   40  C   UNL     1      36.059  52.752  39.230  1.00  0.00     0.210 C 
ENDBRANCH  34  39
ENDBRANCH  29  31
ENDBRANCH  19  25
ENDBRANCH  15  16
ENDBRANCH  13  15
ENDBRANCH  11  13
ENDBRANCH   9  11
ENDBRANCH   1   9
TORSDOF 9
ENDMDL
MODEL 5
REMARK VINA RESULT:      -6.5     15.506     17.966
REMARK  9 active torsions:
REMARK  status: ('A' for Active; 'I' for Inactive)
REMARK    1  A    between atoms: C_4  and  C_5 
REMARK    2  A    between atoms: C_7  and  O_8 
REMARK    3  A    between atoms: C_10  and  O_11 
REMARK    4  A    between atoms: C_16  and  C_17 
REMARK    5  A    between atoms: C_20  and  C_21 
REMARK    6  A    between atoms: C_21  and  N_22 
REMARK    7  A    between atoms: N_22  and  C_23 
REMARK    8  A    between atoms: C_23  and  N_24 
REMARK    9  A    between atoms: N_24  and  C_25 
ROOT
HETATM    1  C   UNL     1      18.526  48.912  49.529  1.00  0.00     0.035 A 
HETATM    2  C   UNL     1      19.921  48.930  49.522  1.00  0.00     0.052 A 
HETATM    3  C   UNL     1      20.626  50.139  49.585  1.00  0.00     0.046 A 
HETATM    4  C   UNL     1      22.058  50.104  49.537  1.00  0.00     0.099 C 
HETATM    5  N   UNL     1      23.209  49.985  49.459  1.00  0.00    -0.191 NA
HETATM    6  C   UNL     1      19.932  51.344  49.687  1.00  0.00     0.023 A 
HETATM    7  C   UNL     1      18.537  51.333  49.736  1.00  0.00     0.004 A 
HETATM    8  C   UNL     1      17.839  50.122  49.664  1.00  0.00     0.029 A 
ENDROOT
BRANCH   1   9
HETATM    9  N   UNL     1      17.770  47.721  49.482  1.00  0.00    -0.333 N 
HETATM   10  H   UNL     1      17.589  47.280  50.381  1.00  0.00     0.168 HD
BRANCH   9  11
HETATM   11  C   UNL     1      17.392  46.956  48.412  1.00  0.00     0.172 C 
HETATM   12  S   UNL     1      16.558  47.680  47.163  1.00  0.00    -0.041 SA
BRANCH  11  13
HETATM   13  N   UNL     1      17.790  45.642  48.438  1.00  0.00    -0.365 N 
HETATM   14  H   UNL     1      17.066  45.038  48.816  1.00  0.00     0.161 HD
BRANCH  13  15
HETATM   15  C   UNL     1      19.177  45.186  48.506  1.00  0.00     0.155 C 
BRANCH  15  16
HETATM   16  C   UNL     1      19.959  45.400  47.193  1.00  0.00     0.206 C 
HETATM   17  C   UNL     1      21.338  46.058  47.357  1.00  0.00     0.040 C 
HETATM   18  C   UNL     1      22.378  45.402  46.418  1.00  0.00     0.001 C 
HETATM   19  C   UNL     1      22.646  43.933  46.838  1.00  0.00     0.067 C 
HETATM   20  C   UNL     1      21.755  45.355  45.004  1.00  0.00     0.033 C 
HETATM   21  C   UNL     1      21.285  43.237  47.066  1.00  0.00     0.246 C 
HETATM   22  N   UNL     1      20.179  44.090  46.432  1.00  0.00    -0.065 N 
HETATM   23  C   UNL     1      20.543  44.413  44.987  1.00  0.00     0.236 C 
HETATM   24  H   UNL     1      19.306  43.545  46.433  1.00  0.00     0.280 HD
BRANCH  19  25
HETATM   25  C   UNL     1      23.582  43.766  48.001  1.00  0.00     0.038 A 
HETATM   26  N   UNL     1      24.470  42.716  48.111  1.00  0.00    -0.277 N 
HETATM   27  C   UNL     1      24.716  41.651  47.164  1.00  0.00     0.179 C 
HETATM   28  N   UNL     1      25.185  42.733  49.241  1.00  0.00    -0.172 NA
HETATM   29  C   UNL     1      24.831  43.858  49.872  1.00  0.00     0.089 A 
HETATM   30  C   UNL     1      23.837  44.540  49.120  1.00  0.00     0.061 A 
BRANCH  29  31
HETATM   31  C   UNL     1      25.441  44.260  51.141  1.00  0.00    -0.003 A 
HETATM   32  C   UNL     1      26.487  43.504  51.691  1.00  0.00     0.053 A 
HETATM   33  C   UNL     1      27.096  43.885  52.894  1.00  0.00     0.102 A 
HETATM   34  C   UNL     1      26.639  45.032  53.573  1.00  0.00     0.101 A 
HETATM   35  C   UNL     1      25.590  45.780  53.032  1.00  0.00     0.040 A 
HETATM   36  C   UNL     1      24.999  45.399  51.822  1.00  0.00     0.017 A 
BRANCH  33  37
HETATM   37  O   UNL     1      28.131  43.207  53.489  1.00  0.00    -0.353 OA
HETATM   38  C   UNL     1      29.405  43.268  52.863  1.00  0.00     0.210 C 
ENDBRANCH  33  37
BRANCH  34  39
HETATM   39  O   UNL     1      27.283  45.335  54.747  1.00  0.00    -0.353 OA
HETATM   40  C   UNL     1      27.995  46.561  54.817  1.00  0.00     0.210 C 
ENDBRANCH  34  39
ENDBRANCH  29  31
ENDBRANCH  19  25
ENDBRANCH  15  16
ENDBRANCH  13  15
ENDBRANCH  11  13
ENDBRANCH   9  11
ENDBRANCH   1   9
TORSDOF 9
ENDMDL
MODEL 6
REMARK VINA RESULT:      -6.5     15.364     16.675
REMARK  9 active torsions:
REMARK  status: ('A' for Active; 'I' for Inactive)
REMARK    1  A    between atoms: C_4  and  C_5 
REMARK    2  A    between atoms: C_7  and  O_8 
REMARK    3  A    between atoms: C_10  and  O_11 
REMARK    4  A    between atoms: C_16  and  C_17 
REMARK    5  A    between atoms: C_20  and  C_21 
REMARK    6  A    between atoms: C_21  and  N_22 
REMARK    7  A    between atoms: N_22  and  C_23 
REMARK    8  A    between atoms: C_23  and  N_24 
REMARK    9  A    between atoms: N_24  and  C_25 
ROOT
HETATM    1  C   UNL     1      28.014  43.462  53.974  1.00  0.00     0.035 A 
HETATM    2  C   UNL     1      27.873  44.479  54.919  1.00  0.00     0.052 A 
HETATM    3  C   UNL     1      28.953  44.874  55.719  1.00  0.00     0.046 A 
HETATM    4  C   UNL     1      28.745  45.899  56.699  1.00  0.00     0.099 C 
HETATM    5  N   UNL     1      28.480  46.709  57.485  1.00  0.00    -0.191 NA
HETATM    6  C   UNL     1      30.198  44.267  55.556  1.00  0.00     0.023 A 
HETATM    7  C   UNL     1      30.358  43.276  54.586  1.00  0.00     0.004 A 
HETATM    8  C   UNL     1      29.273  42.881  53.795  1.00  0.00     0.029 A 
ENDROOT
BRANCH   1   9
HETATM    9  N   UNL     1      26.962  43.039  53.134  1.00  0.00    -0.333 N 
HETATM   10  H   UNL     1      26.080  42.839  53.602  1.00  0.00     0.168 HD
BRANCH   9  11
HETATM   11  C   UNL     1      26.976  42.673  51.815  1.00  0.00     0.172 C 
HETATM   12  S   UNL     1      26.822  43.859  50.653  1.00  0.00    -0.041 SA
BRANCH  11  13
HETATM   13  N   UNL     1      27.175  41.339  51.559  1.00  0.00    -0.365 N 
HETATM   14  H   UNL     1      26.529  40.756  52.083  1.00  0.00     0.161 HD
BRANCH  13  15
HETATM   15  C   UNL     1      28.436  40.749  51.116  1.00  0.00     0.155 C 
BRANCH  15  16
HETATM   16  C   UNL     1      28.253  39.469  50.273  1.00  0.00     0.206 C 
HETATM   17  C   UNL     1      26.795  39.114  49.939  1.00  0.00     0.040 C 
HETATM   18  C   UNL     1      26.671  38.600  48.485  1.00  0.00     0.001 C 
HETATM   19  C   UNL     1      26.989  39.734  47.474  1.00  0.00     0.067 C 
HETATM   20  C   UNL     1      27.753  37.512  48.289  1.00  0.00     0.033 C 
HETATM   21  C   UNL     1      28.292  40.433  47.923  1.00  0.00     0.246 C 
HETATM   22  N   UNL     1      29.009  39.540  48.944  1.00  0.00    -0.065 N 
HETATM   23  C   UNL     1      29.154  38.131  48.382  1.00  0.00     0.236 C 
HETATM   24  H   UNL     1      29.950  39.923  49.108  1.00  0.00     0.280 HD
BRANCH  19  25
HETATM   25  C   UNL     1      25.867  40.703  47.233  1.00  0.00     0.038 A 
HETATM   26  N   UNL     1      25.158  40.758  46.052  1.00  0.00    -0.277 N 
HETATM   27  C   UNL     1      25.293  39.911  44.888  1.00  0.00     0.179 C 
HETATM   28  N   UNL     1      24.225  41.716  46.029  1.00  0.00    -0.172 NA
HETATM   29  C   UNL     1      24.251  42.269  47.247  1.00  0.00     0.089 A 
HETATM   30  C   UNL     1      25.259  41.653  48.035  1.00  0.00     0.061 A 
BRANCH  29  31
HETATM   31  C   UNL     1      23.328  43.340  47.631  1.00  0.00    -0.003 A 
HETATM   32  C   UNL     1      21.972  43.263  47.279  1.00  0.00     0.053 A 
HETATM   33  C   UNL     1      21.072  44.268  47.656  1.00  0.00     0.102 A 
HETATM   34  C   UNL     1      21.537  45.383  48.381  1.00  0.00     0.101 A 
HETATM   35  C   UNL     1      22.889  45.466  48.723  1.00  0.00     0.040 A 
HETATM   36  C   UNL     1      23.777  44.450  48.355  1.00  0.00     0.017 A 
BRANCH  33  37
HETATM   37  O   UNL     1      19.731  44.258  47.361  1.00  0.00    -0.353 OA
HETATM   38  C   UNL     1      19.340  43.776  46.083  1.00  0.00     0.210 C 
ENDBRANCH  33  37
BRANCH  34  39
HETATM   39  O   UNL     1      20.594  46.326  48.707  1.00  0.00    -0.353 OA
HETATM   40  C   UNL     1      20.698  47.606  48.103  1.00  0.00     0.210 C 
ENDBRANCH  34  39
ENDBRANCH  29  31
ENDBRANCH  19  25
ENDBRANCH  15  16
ENDBRANCH  13  15
ENDBRANCH  11  13
ENDBRANCH   9  11
ENDBRANCH   1   9
TORSDOF 9
ENDMDL
MODEL 7
REMARK VINA RESULT:      -6.5     25.083     27.364
REMARK  9 active torsions:
REMARK  status: ('A' for Active; 'I' for Inactive)
REMARK    1  A    between atoms: C_4  and  C_5 
REMARK    2  A    between atoms: C_7  and  O_8 
REMARK    3  A    between atoms: C_10  and  O_11 
REMARK    4  A    between atoms: C_16  and  C_17 
REMARK    5  A    between atoms: C_20  and  C_21 
REMARK    6  A    between atoms: C_21  and  N_22 
REMARK    7  A    between atoms: N_22  and  C_23 
REMARK    8  A    between atoms: C_23  and  N_24 
REMARK    9  A    between atoms: N_24  and  C_25 
ROOT
HETATM    1  C   UNL     1      39.613  47.213  65.912  1.00  0.00     0.035 A 
HETATM    2  C   UNL     1      39.706  48.138  66.953  1.00  0.00     0.052 A 
HETATM    3  C   UNL     1      38.944  49.314  66.942  1.00  0.00     0.046 A 
HETATM    4  C   UNL     1      39.104  50.247  68.016  1.00  0.00     0.099 C 
HETATM    5  N   UNL     1      39.320  50.960  68.905  1.00  0.00    -0.191 NA
HETATM    6  C   UNL     1      38.056  49.556  65.894  1.00  0.00     0.023 A 
HETATM    7  C   UNL     1      37.928  48.617  64.870  1.00  0.00     0.004 A 
HETATM    8  C   UNL     1      38.698  47.448  64.883  1.00  0.00     0.029 A 
ENDROOT
BRANCH   1   9
HETATM    9  N   UNL     1      40.348  46.008  65.885  1.00  0.00    -0.333 N 
HETATM   10  H   UNL     1      40.022  45.280  66.518  1.00  0.00     0.168 HD
BRANCH   9  11
HETATM   11  C   UNL     1      41.540  45.713  65.280  1.00  0.00     0.172 C 
HETATM   12  S   UNL     1      42.732  46.879  65.249  1.00  0.00    -0.041 SA
BRANCH  11  13
HETATM   13  N   UNL     1      41.671  44.437  64.790  1.00  0.00    -0.365 N 
HETATM   14  H   UNL     1      42.536  44.003  65.098  1.00  0.00     0.161 HD
BRANCH  13  15
HETATM   15  C   UNL     1      41.045  43.940  63.567  1.00  0.00     0.155 C 
BRANCH  15  16
HETATM   16  C   UNL     1      40.434  42.531  63.718  1.00  0.00     0.206 C 
HETATM   17  C   UNL     1      39.876  42.211  65.114  1.00  0.00     0.040 C 
HETATM   18  C   UNL     1      38.549  41.423  65.010  1.00  0.00     0.001 C 
HETATM   19  C   UNL     1      37.434  42.305  64.388  1.00  0.00     0.067 C 
HETATM   20  C   UNL     1      38.787  40.249  64.032  1.00  0.00     0.033 C 
HETATM   21  C   UNL     1      38.007  42.995  63.129  1.00  0.00     0.246 C 
HETATM   22  N   UNL     1      39.302  42.282  62.719  1.00  0.00    -0.065 N 
HETATM   23  C   UNL     1      39.054  40.782  62.617  1.00  0.00     0.236 C 
HETATM   24  H   UNL     1      39.585  42.628  61.791  1.00  0.00     0.280 HD
BRANCH  19  25
HETATM   25  C   UNL     1      36.790  43.276  65.336  1.00  0.00     0.038 A 
HETATM   26  N   UNL     1      35.513  43.114  65.831  1.00  0.00    -0.277 N 
HETATM   27  C   UNL     1      34.600  42.015  65.604  1.00  0.00     0.179 C 
HETATM   28  N   UNL     1      35.115  44.109  66.630  1.00  0.00    -0.172 NA
HETATM   29  C   UNL     1      36.172  44.923  66.741  1.00  0.00     0.089 A 
HETATM   30  C   UNL     1      37.246  44.427  65.954  1.00  0.00     0.061 A 
BRANCH  29  31
HETATM   31  C   UNL     1      36.143  46.119  67.584  1.00  0.00    -0.003 A 
HETATM   32  C   UNL     1      36.892  46.167  68.769  1.00  0.00     0.053 A 
HETATM   33  C   UNL     1      36.891  47.311  69.577  1.00  0.00     0.102 A 
HETATM   34  C   UNL     1      36.112  48.425  69.207  1.00  0.00     0.101 A 
HETATM   35  C   UNL     1      35.357  48.376  68.032  1.00  0.00     0.040 A 
HETATM   36  C   UNL     1      35.376  47.233  67.225  1.00  0.00     0.017 A 
BRANCH  33  37
HETATM   37  O   UNL     1      37.607  47.438  70.742  1.00  0.00    -0.353 OA
HETATM   38  C   UNL     1      39.024  47.481  70.644  1.00  0.00     0.210 C 
ENDBRANCH  33  37
BRANCH  34  39
HETATM   39  O   UNL     1      36.161  49.504  70.053  1.00  0.00    -0.353 OA
HETATM   40  C   UNL     1      35.607  50.730  69.600  1.00  0.00     0.210 C 
ENDBRANCH  34  39
ENDBRANCH  29  31
ENDBRANCH  19  25
ENDBRANCH  15  16
ENDBRANCH  13  15
ENDBRANCH  11  13
ENDBRANCH   9  11
ENDBRANCH   1   9
TORSDOF 9
ENDMDL
MODEL 8
REMARK VINA RESULT:      -6.5     15.064     16.496
REMARK  9 active torsions:
REMARK  status: ('A' for Active; 'I' for Inactive)
REMARK    1  A    between atoms: C_4  and  C_5 
REMARK    2  A    between atoms: C_7  and  O_8 
REMARK    3  A    between atoms: C_10  and  O_11 
REMARK    4  A    between atoms: C_16  and  C_17 
REMARK    5  A    between atoms: C_20  and  C_21 
REMARK    6  A    between atoms: C_21  and  N_22 
REMARK    7  A    between atoms: N_22  and  C_23 
REMARK    8  A    between atoms: C_23  and  N_24 
REMARK    9  A    between atoms: N_24  and  C_25 
ROOT
HETATM    1  C   UNL     1      28.726  43.887  54.345  1.00  0.00     0.035 A 
HETATM    2  C   UNL     1      28.811  44.805  55.392  1.00  0.00     0.052 A 
HETATM    3  C   UNL     1      29.934  44.842  56.229  1.00  0.00     0.046 A 
HETATM    4  C   UNL     1      29.954  45.780  57.311  1.00  0.00     0.099 C 
HETATM    5  N   UNL     1      29.873  46.546  58.179  1.00  0.00    -0.191 NA
HETATM    6  C   UNL     1      30.998  43.971  56.002  1.00  0.00     0.023 A 
HETATM    7  C   UNL     1      30.939  43.076  54.932  1.00  0.00     0.004 A 
HETATM    8  C   UNL     1      29.811  43.040  54.105  1.00  0.00     0.029 A 
ENDROOT
BRANCH   1   9
HETATM    9  N   UNL     1      27.624  43.820  53.466  1.00  0.00    -0.333 N 
HETATM   10  H   UNL     1      26.713  43.984  53.889  1.00  0.00     0.168 HD
BRANCH   9  11
HETATM   11  C   UNL     1      27.553  43.389  52.168  1.00  0.00     0.172 C 
HETATM   12  S   UNL     1      27.549  44.523  50.946  1.00  0.00    -0.041 SA
BRANCH  11  13
HETATM   13  N   UNL     1      27.547  42.028  51.982  1.00  0.00    -0.365 N 
HETATM   14  H   UNL     1      27.058  41.549  52.733  1.00  0.00     0.161 HD
BRANCH  13  15
HETATM   15  C   UNL     1      28.543  41.281  51.218  1.00  0.00     0.155 C 
BRANCH  15  16
HETATM   16  C   UNL     1      27.972  40.024  50.529  1.00  0.00     0.206 C 
HETATM   17  C   UNL     1      26.438  39.935  50.506  1.00  0.00     0.040 C 
HETATM   18  C   UNL     1      25.937  39.391  49.147  1.00  0.00     0.001 C 
HETATM   19  C   UNL     1      26.239  40.399  48.008  1.00  0.00     0.067 C 
HETATM   20  C   UNL     1      26.748  38.111  48.837  1.00  0.00     0.033 C 
HETATM   21  C   UNL     1      27.708  40.861  48.145  1.00  0.00     0.246 C 
HETATM   22  N   UNL     1      28.446  39.894  49.079  1.00  0.00    -0.065 N 
HETATM   23  C   UNL     1      28.226  38.459  48.614  1.00  0.00     0.236 C 
HETATM   24  H   UNL     1      29.454  40.100  49.032  1.00  0.00     0.280 HD
BRANCH  19  25
HETATM   25  C   UNL     1      25.279  41.551  47.908  1.00  0.00     0.038 A 
HETATM   26  N   UNL     1      24.114  41.500  47.172  1.00  0.00    -0.277 N 
HETATM   27  C   UNL     1      23.571  40.381  46.434  1.00  0.00     0.179 C 
HETATM   28  N   UNL     1      23.420  42.643  47.184  1.00  0.00    -0.172 NA
HETATM   29  C   UNL     1      24.090  43.459  48.008  1.00  0.00     0.089 A 
HETATM   30  C   UNL     1      25.255  42.806  48.491  1.00  0.00     0.061 A 
BRANCH  29  31
HETATM   31  C   UNL     1      23.611  44.807  48.320  1.00  0.00    -0.003 A 
HETATM   32  C   UNL     1      24.279  45.590  49.273  1.00  0.00     0.053 A 
HETATM   33  C   UNL     1      23.846  46.889  49.570  1.00  0.00     0.102 A 
HETATM   34  C   UNL     1      22.712  47.412  48.917  1.00  0.00     0.101 A 
HETATM   35  C   UNL     1      22.039  46.629  47.974  1.00  0.00     0.040 A 
HETATM   36  C   UNL     1      22.488  45.338  47.675  1.00  0.00     0.017 A 
BRANCH  33  37
HETATM   37  O   UNL     1      24.453  47.720  50.479  1.00  0.00    -0.353 OA
HETATM   38  C   UNL     1      25.036  47.125  51.630  1.00  0.00     0.210 C 
ENDBRANCH  33  37
BRANCH  34  39
HETATM   39  O   UNL     1      22.350  48.688  49.266  1.00  0.00    -0.353 OA
HETATM   40  C   UNL     1      22.200  49.644  48.228  1.00  0.00     0.210 C 
ENDBRANCH  34  39
ENDBRANCH  29  31
ENDBRANCH  19  25
ENDBRANCH  15  16
ENDBRANCH  13  15
ENDBRANCH  11  13
ENDBRANCH   9  11
ENDBRANCH   1   9
TORSDOF 9
ENDMDL
MODEL 9
REMARK VINA RESULT:      -6.4     15.980     18.789
REMARK  9 active torsions:
REMARK  status: ('A' for Active; 'I' for Inactive)
REMARK    1  A    between atoms: C_4  and  C_5 
REMARK    2  A    between atoms: C_7  and  O_8 
REMARK    3  A    between atoms: C_10  and  O_11 
REMARK    4  A    between atoms: C_16  and  C_17 
REMARK    5  A    between atoms: C_20  and  C_21 
REMARK    6  A    between atoms: C_21  and  N_22 
REMARK    7  A    between atoms: N_22  and  C_23 
REMARK    8  A    between atoms: C_23  and  N_24 
REMARK    9  A    between atoms: N_24  and  C_25 
ROOT
HETATM    1  C   UNL     1      21.693  37.793  46.831  1.00  0.00     0.035 A 
HETATM    2  C   UNL     1      21.088  36.646  47.347  1.00  0.00     0.052 A 
HETATM    3  C   UNL     1      19.703  36.457  47.254  1.00  0.00     0.046 A 
HETATM    4  C   UNL     1      19.129  35.279  47.833  1.00  0.00     0.099 C 
HETATM    5  N   UNL     1      18.746  34.318  48.356  1.00  0.00    -0.191 NA
HETATM    6  C   UNL     1      18.914  37.410  46.612  1.00  0.00     0.023 A 
HETATM    7  C   UNL     1      19.515  38.542  46.057  1.00  0.00     0.004 A 
HETATM    8  C   UNL     1      20.898  38.727  46.161  1.00  0.00     0.029 A 
ENDROOT
BRANCH   1   9
HETATM    9  N   UNL     1      23.084  38.022  46.886  1.00  0.00    -0.333 N 
HETATM   10  H   UNL     1      23.620  37.346  47.426  1.00  0.00     0.168 HD
BRANCH   9  11
HETATM   11  C   UNL     1      23.818  39.107  46.486  1.00  0.00     0.172 C 
HETATM   12  S   UNL     1      24.115  39.319  44.860  1.00  0.00    -0.041 SA
BRANCH  11  13
HETATM   13  N   UNL     1      24.206  39.973  47.479  1.00  0.00    -0.365 N 
HETATM   14  H   UNL     1      23.411  40.319  48.008  1.00  0.00     0.161 HD
BRANCH  13  15
HETATM   15  C   UNL     1      25.427  40.775  47.462  1.00  0.00     0.155 C 
BRANCH  15  16
HETATM   16  C   UNL     1      26.713  39.941  47.641  1.00  0.00     0.206 C 
HETATM   17  C   UNL     1      27.946  40.738  48.097  1.00  0.00     0.040 C 
HETATM   18  C   UNL     1      28.766  39.938  49.137  1.00  0.00     0.001 C 
HETATM   19  C   UNL     1      27.962  39.767  50.453  1.00  0.00     0.067 C 
HETATM   20  C   UNL     1      28.984  38.520  48.559  1.00  0.00     0.033 C 
HETATM   21  C   UNL     1      26.533  39.300  50.092  1.00  0.00     0.246 C 
HETATM   22  N   UNL     1      26.527  38.799  48.642  1.00  0.00    -0.065 N 
HETATM   23  C   UNL     1      27.643  37.781  48.444  1.00  0.00     0.236 C 
HETATM   24  H   UNL     1      25.626  38.333  48.462  1.00  0.00     0.280 HD
BRANCH  19  25
HETATM   25  C   UNL     1      27.966  40.964  51.360  1.00  0.00     0.038 A 
HETATM   26  N   UNL     1      26.947  41.892  51.391  1.00  0.00    -0.277 N 
HETATM   27  C   UNL     1      25.707  41.882  50.647  1.00  0.00     0.179 C 
HETATM   28  N   UNL     1      27.163  42.901  52.241  1.00  0.00    -0.172 NA
HETATM   29  C   UNL     1      28.316  42.610  52.855  1.00  0.00     0.089 A 
HETATM   30  C   UNL     1      28.844  41.397  52.339  1.00  0.00     0.061 A 
BRANCH  29  31
HETATM   31  C   UNL     1      28.871  43.466  53.906  1.00  0.00    -0.003 A 
HETATM   32  C   UNL     1      28.194  44.630  54.298  1.00  0.00     0.053 A 
HETATM   33  C   UNL     1      28.701  45.450  55.315  1.00  0.00     0.102 A 
HETATM   34  C   UNL     1      29.918  45.113  55.941  1.00  0.00     0.101 A 
HETATM   35  C   UNL     1      30.598  43.958  55.544  1.00  0.00     0.040 A 
HETATM   36  C   UNL     1      30.076  43.139  54.537  1.00  0.00     0.017 A 
BRANCH  33  37
HETATM   37  O   UNL     1      28.092  46.597  55.763  1.00  0.00    -0.353 OA
HETATM   38  C   UNL     1      27.390  47.385  54.813  1.00  0.00     0.210 C 
ENDBRANCH  33  37
BRANCH  34  39
HETATM   39  O   UNL     1      30.349  45.968  56.923  1.00  0.00    -0.353 OA
HETATM   40  C   UNL     1      30.413  45.475  58.253  1.00  0.00     0.210 C 
ENDBRANCH  34  39
ENDBRANCH  29  31
ENDBRANCH  19  25
ENDBRANCH  15  16
ENDBRANCH  13  15
ENDBRANCH  11  13
ENDBRANCH   9  11
ENDBRANCH   1   9
TORSDOF 9
ENDMDL
MODEL 10
REMARK VINA RESULT:      -6.4     13.873     18.013
REMARK  9 active torsions:
REMARK  status: ('A' for Active; 'I' for Inactive)
REMARK    1  A    between atoms: C_4  and  C_5 
REMARK    2  A    between atoms: C_7  and  O_8 
REMARK    3  A    between atoms: C_10  and  O_11 
REMARK    4  A    between atoms: C_16  and  C_17 
REMARK    5  A    between atoms: C_20  and  C_21 
REMARK    6  A    between atoms: C_21  and  N_22 
REMARK    7  A    between atoms: N_22  and  C_23 
REMARK    8  A    between atoms: C_23  and  N_24 
REMARK    9  A    between atoms: N_24  and  C_25 
ROOT
HETATM    1  C   UNL     1      17.726  50.615  47.666  1.00  0.00     0.035 A 
HETATM    2  C   UNL     1      17.787  49.827  48.816  1.00  0.00     0.052 A 
HETATM    3  C   UNL     1      18.493  50.258  49.947  1.00  0.00     0.046 A 
HETATM    4  C   UNL     1      18.554  49.395  51.089  1.00  0.00     0.099 C 
HETATM    5  N   UNL     1      18.579  48.622  51.954  1.00  0.00    -0.191 NA
HETATM    6  C   UNL     1      19.122  51.502  49.941  1.00  0.00     0.023 A 
HETATM    7  C   UNL     1      19.034  52.313  48.809  1.00  0.00     0.004 A 
HETATM    8  C   UNL     1      18.333  51.873  47.680  1.00  0.00     0.029 A 
ENDROOT
BRANCH   1   9
HETATM    9  N   UNL     1      17.016  50.233  46.507  1.00  0.00    -0.333 N 
HETATM   10  H   UNL     1      16.085  50.634  46.410  1.00  0.00     0.168 HD
BRANCH   9  11
HETATM   11  C   UNL     1      17.295  49.268  45.577  1.00  0.00     0.172 C 
HETATM   12  S   UNL     1      16.966  49.581  43.973  1.00  0.00    -0.041 SA
BRANCH  11  13
HETATM   13  N   UNL     1      17.884  48.122  46.053  1.00  0.00    -0.365 N 
HETATM   14  H   UNL     1      17.448  47.806  46.915  1.00  0.00     0.161 HD
BRANCH  13  15
HETATM   15  C   UNL     1      19.260  47.711  45.783  1.00  0.00     0.155 C 
BRANCH  15  16
HETATM   16  C   UNL     1      19.362  46.397  44.980  1.00  0.00     0.206 C 
HETATM   17  C   UNL     1      20.788  45.851  44.807  1.00  0.00     0.040 C 
HETATM   18  C   UNL     1      20.811  44.311  44.955  1.00  0.00     0.001 C 
HETATM   19  C   UNL     1      20.458  43.895  46.407  1.00  0.00     0.067 C 
HETATM   20  C   UNL     1      19.696  43.745  44.045  1.00  0.00     0.033 C 
HETATM   21  C   UNL     1      19.201  44.681  46.845  1.00  0.00     0.246 C 
HETATM   22  N   UNL     1      18.528  45.274  45.601  1.00  0.00    -0.065 N 
HETATM   23  C   UNL     1      18.317  44.182  44.559  1.00  0.00     0.236 C 
HETATM   24  H   UNL     1      17.607  45.646  45.874  1.00  0.00     0.280 HD
BRANCH  19  25
HETATM   25  C   UNL     1      21.585  44.012  47.394  1.00  0.00     0.038 A 
HETATM   26  N   UNL     1      22.477  42.992  47.645  1.00  0.00    -0.277 N 
HETATM   27  C   UNL     1      22.552  41.693  47.012  1.00  0.00     0.179 C 
HETATM   28  N   UNL     1      23.382  43.287  48.585  1.00  0.00    -0.172 NA
HETATM   29  C   UNL     1      23.145  44.561  48.920  1.00  0.00     0.089 A 
HETATM   30  C   UNL     1      22.034  45.054  48.186  1.00  0.00     0.061 A 
BRANCH  29  31
HETATM   31  C   UNL     1      23.971  45.269  49.901  1.00  0.00    -0.003 A 
HETATM   32  C   UNL     1      24.499  46.533  49.597  1.00  0.00     0.053 A 
HETATM   33  C   UNL     1      25.274  47.233  50.530  1.00  0.00     0.102 A 
HETATM   34  C   UNL     1      25.544  46.654  51.786  1.00  0.00     0.101 A 
HETATM   35  C   UNL     1      25.027  45.391  52.087  1.00  0.00     0.040 A 
HETATM   36  C   UNL     1      24.242  44.706  51.152  1.00  0.00     0.017 A 
BRANCH  33  37
HETATM   37  O   UNL     1      25.815  48.477  50.313  1.00  0.00    -0.353 OA
HETATM   38  C   UNL     1      26.602  48.658  49.145  1.00  0.00     0.210 C 
ENDBRANCH  33  37
BRANCH  34  39
HETATM   39  O   UNL     1      26.314  47.401  52.642  1.00  0.00    -0.353 OA
HETATM   40  C   UNL     1      26.023  47.332  54.029  1.00  0.00     0.210 C 
ENDBRANCH  34  39
ENDBRANCH  29  31
ENDBRANCH  19  25
ENDBRANCH  15  16
ENDBRANCH  13  15
ENDBRANCH  11  13
ENDBRANCH   9  11
ENDBRANCH   1   9
TORSDOF 9
ENDMDL
