MODEL 1
REMARK VINA RESULT:      -9.4      0.000      0.000
REMARK  5 active torsions:
REMARK  status: ('A' for Active; 'I' for Inactive)
REMARK    1  A    between atoms: C_4  and  N_5 
REMARK    2  A    between atoms: C_8  and  C_9 
REMARK    3  A    between atoms: C_9  and  N_10 
REMARK       I    between atoms: N_10  and  C_11 
REMARK       I    between atoms: C_11  and  N_12 
REMARK    4  A    between atoms: N_12  and  C_13 
REMARK    5  A    between atoms: C_13  and  C_14 
ROOT
HETATM    1  N   UNL     1      25.802  46.089  51.192  1.00  0.00    -0.319 N 
HETATM    2  C   UNL     1      26.049  44.773  50.790  1.00  0.00     0.021 A 
HETATM    3  C   UNL     1      26.007  44.319  49.364  1.00  0.00     0.069 C 
HETATM    4  C   UNL     1      26.392  44.021  51.911  1.00  0.00    -0.016 A 
HETATM    5  C   UNL     1      26.380  44.907  53.014  1.00  0.00     0.035 A 
HETATM    6  C   UNL     1      25.998  46.157  52.569  1.00  0.00     0.014 A 
HETATM    7  C   UNL     1      25.716  47.355  53.413  1.00  0.00     0.068 C 
ENDROOT
BRANCH   4   8
HETATM    8  C   UNL     1      26.709  42.558  51.979  1.00  0.00     0.165 C 
BRANCH   8   9
HETATM    9  N   UNL     1      27.460  42.298  53.185  1.00  0.00    -0.339 N 
HETATM   10  C   UNL     1      28.777  42.656  53.265  1.00  0.00     0.316 C 
HETATM   11  N   UNL     1      29.230  42.613  54.555  1.00  0.00    -0.339 N 
HETATM   12  O   UNL     1      29.452  43.025  52.315  1.00  0.00    -0.247 OA
HETATM   13  H   UNL     1      28.806  41.928  55.162  1.00  0.00     0.164 HD
HETATM   14  H   UNL     1      26.937  42.273  54.047  1.00  0.00     0.164 HD
BRANCH  11  15
HETATM   15  C   UNL     1      30.579  43.026  54.870  1.00  0.00     0.162 C 
BRANCH  15  16
HETATM   16  C   UNL     1      30.611  44.001  56.020  1.00  0.00    -0.040 A 
HETATM   17  C   UNL     1      29.777  45.128  56.014  1.00  0.00     0.009 A 
HETATM   18  C   UNL     1      29.767  46.010  57.098  1.00  0.00     0.001 A 
HETATM   19  C   UNL     1      30.584  45.770  58.201  1.00  0.00     0.000 A 
HETATM   20  C   UNL     1      31.408  44.647  58.227  1.00  0.00     0.001 A 
HETATM   21  C   UNL     1      31.414  43.762  57.146  1.00  0.00     0.009 A 
ENDBRANCH  15  16
ENDBRANCH  11  15
ENDBRANCH   8   9
ENDBRANCH   4   8
BRANCH   1  22
HETATM   22  C   UNL     1      25.419  47.173  50.343  1.00  0.00     0.040 A 
HETATM   23  C   UNL     1      26.388  48.053  49.842  1.00  0.00     0.036 A 
HETATM   24  C   UNL     1      26.017  49.142  49.039  1.00  0.00    -0.060 A 
HETATM   25  C   UNL     1      27.060  50.071  48.491  1.00  0.00     0.048 C 
HETATM   26  C   UNL     1      24.668  49.318  48.711  1.00  0.00     0.007 A 
HETATM   27  C   UNL     1      23.702  48.438  49.197  1.00  0.00     0.003 A 
HETATM   28  C   UNL     1      24.074  47.370  50.016  1.00  0.00     0.030 A 
ENDBRANCH   1  22
TORSDOF 5
ENDMDL
MODEL 2
REMARK VINA RESULT:      -9.3      1.197      2.522
REMARK  5 active torsions:
REMARK  status: ('A' for Active; 'I' for Inactive)
REMARK    1  A    between atoms: C_4  and  N_5 
REMARK    2  A    between atoms: C_8  and  C_9 
REMARK    3  A    between atoms: C_9  and  N_10 
REMARK       I    between atoms: N_10  and  C_11 
REMARK       I    between atoms: C_11  and  N_12 
REMARK    4  A    between atoms: N_12  and  C_13 
REMARK    5  A    between atoms: C_13  and  C_14 
ROOT
HETATM    1  N   UNL     1      25.190  46.318  50.819  1.00  0.00    -0.319 N 
HETATM    2  C   UNL     1      25.373  46.247  52.203  1.00  0.00     0.021 A 
HETATM    3  C   UNL     1      25.698  47.430  53.059  1.00  0.00     0.069 C 
HETATM    4  C   UNL     1      25.139  44.937  52.617  1.00  0.00    -0.016 A 
HETATM    5  C   UNL     1      24.778  44.204  51.461  1.00  0.00     0.035 A 
HETATM    6  C   UNL     1      24.834  45.048  50.370  1.00  0.00     0.014 A 
HETATM    7  C   UNL     1      24.668  44.664  48.938  1.00  0.00     0.068 C 
ENDROOT
BRANCH   4   8
HETATM    8  C   UNL     1      25.247  44.373  54.001  1.00  0.00     0.165 C 
BRANCH   8   9
HETATM    9  N   UNL     1      26.361  43.456  54.046  1.00  0.00    -0.339 N 
HETATM   10  C   UNL     1      27.641  43.925  53.942  1.00  0.00     0.316 C 
HETATM   11  N   UNL     1      28.554  42.972  54.305  1.00  0.00    -0.339 N 
HETATM   12  O   UNL     1      27.936  45.067  53.623  1.00  0.00    -0.247 OA
HETATM   13  H   UNL     1      28.301  42.012  54.129  1.00  0.00     0.164 HD
HETATM   14  H   UNL     1      26.225  42.603  54.567  1.00  0.00     0.164 HD
BRANCH  11  15
HETATM   15  C   UNL     1      29.964  43.287  54.336  1.00  0.00     0.162 C 
BRANCH  15  16
HETATM   16  C   UNL     1      30.383  43.842  55.675  1.00  0.00    -0.040 A 
HETATM   17  C   UNL     1      31.306  43.149  56.470  1.00  0.00     0.009 A 
HETATM   18  C   UNL     1      31.734  43.681  57.689  1.00  0.00     0.001 A 
HETATM   19  C   UNL     1      31.250  44.914  58.121  1.00  0.00     0.000 A 
HETATM   20  C   UNL     1      30.343  45.621  57.335  1.00  0.00     0.001 A 
HETATM   21  C   UNL     1      29.919  45.092  56.114  1.00  0.00     0.009 A 
ENDBRANCH  15  16
ENDBRANCH  11  15
ENDBRANCH   8   9
ENDBRANCH   4   8
BRANCH   1  22
HETATM   22  C   UNL     1      25.337  47.485  50.006  1.00  0.00     0.040 A 
HETATM   23  C   UNL     1      24.206  48.172  49.546  1.00  0.00     0.036 A 
HETATM   24  C   UNL     1      24.341  49.295  48.717  1.00  0.00    -0.060 A 
HETATM   25  C   UNL     1      23.127  50.038  48.241  1.00  0.00     0.048 C 
HETATM   26  C   UNL     1      25.623  49.749  48.387  1.00  0.00     0.007 A 
HETATM   27  C   UNL     1      26.752  49.076  48.854  1.00  0.00     0.003 A 
HETATM   28  C   UNL     1      26.612  47.943  49.657  1.00  0.00     0.030 A 
ENDBRANCH   1  22
TORSDOF 5
ENDMDL
MODEL 3
REMARK VINA RESULT:      -9.1      2.961      9.182
REMARK  5 active torsions:
REMARK  status: ('A' for Active; 'I' for Inactive)
REMARK    1  A    between atoms: C_4  and  N_5 
REMARK    2  A    between atoms: C_8  and  C_9 
REMARK    3  A    between atoms: C_9  and  N_10 
REMARK       I    between atoms: N_10  and  C_11 
REMARK       I    between atoms: C_11  and  N_12 
REMARK    4  A    between atoms: N_12  and  C_13 
REMARK    5  A    between atoms: C_13  and  C_14 
ROOT
HETATM    1  N   UNL     1      26.660  44.345  52.851  1.00  0.00    -0.319 N 
HETATM    2  C   UNL     1      26.618  44.658  51.489  1.00  0.00     0.021 A 
HETATM    3  C   UNL     1      27.820  44.648  50.597  1.00  0.00     0.069 C 
HETATM    4  C   UNL     1      25.294  44.901  51.128  1.00  0.00    -0.016 A 
HETATM    5  C   UNL     1      24.514  44.704  52.291  1.00  0.00     0.035 A 
HETATM    6  C   UNL     1      25.356  44.388  53.339  1.00  0.00     0.014 A 
HETATM    7  C   UNL     1      24.976  44.238  54.773  1.00  0.00     0.068 C 
ENDROOT
BRANCH   4   8
HETATM    8  C   UNL     1      24.763  45.303  49.786  1.00  0.00     0.165 C 
BRANCH   8   9
HETATM    9  N   UNL     1      23.742  46.308  49.970  1.00  0.00    -0.339 N 
HETATM   10  C   UNL     1      24.030  47.627  49.756  1.00  0.00     0.316 C 
HETATM   11  N   UNL     1      22.892  48.382  49.682  1.00  0.00    -0.339 N 
HETATM   12  O   UNL     1      25.157  48.071  49.591  1.00  0.00    -0.247 OA
HETATM   13  H   UNL     1      22.105  48.071  50.230  1.00  0.00     0.164 HD
HETATM   14  H   UNL     1      22.788  46.016  49.824  1.00  0.00     0.164 HD
BRANCH  11  15
HETATM   15  C   UNL     1      22.971  49.795  49.386  1.00  0.00     0.162 C 
BRANCH  15  16
HETATM   16  C   UNL     1      21.611  50.384  49.106  1.00  0.00    -0.040 A 
HETATM   17  C   UNL     1      20.857  50.948  50.144  1.00  0.00     0.009 A 
HETATM   18  C   UNL     1      19.618  51.538  49.883  1.00  0.00     0.001 A 
HETATM   19  C   UNL     1      19.123  51.577  48.581  1.00  0.00     0.000 A 
HETATM   20  C   UNL     1      19.867  51.033  47.537  1.00  0.00     0.001 A 
HETATM   21  C   UNL     1      21.108  50.448  47.796  1.00  0.00     0.009 A 
ENDBRANCH  15  16
ENDBRANCH  11  15
ENDBRANCH   8   9
ENDBRANCH   4   8
BRANCH   1  22
HETATM   22  C   UNL     1      27.831  44.034  53.610  1.00  0.00     0.040 A 
HETATM   23  C   UNL     1      28.372  44.980  54.492  1.00  0.00     0.036 A 
HETATM   24  C   UNL     1      29.541  44.697  55.212  1.00  0.00    -0.060 A 
HETATM   25  C   UNL     1      30.107  45.706  56.168  1.00  0.00     0.048 C 
HETATM   26  C   UNL     1      30.141  43.441  55.072  1.00  0.00     0.007 A 
HETATM   27  C   UNL     1      29.599  42.492  54.206  1.00  0.00     0.003 A 
HETATM   28  C   UNL     1      28.449  42.788  53.472  1.00  0.00     0.030 A 
ENDBRANCH   1  22
TORSDOF 5
ENDMDL
MODEL 4
REMARK VINA RESULT:      -9.1      3.988      9.948
REMARK  5 active torsions:
REMARK  status: ('A' for Active; 'I' for Inactive)
REMARK    1  A    between atoms: C_4  and  N_5 
REMARK    2  A    between atoms: C_8  and  C_9 
REMARK    3  A    between atoms: C_9  and  N_10 
REMARK       I    between atoms: N_10  and  C_11 
REMARK       I    between atoms: C_11  and  N_12 
REMARK    4  A    between atoms: N_12  and  C_13 
REMARK    5  A    between atoms: C_13  and  C_14 
ROOT
HETATM    1  N   UNL     1      25.815  45.008  51.302  1.00  0.00    -0.319 N 
HETATM    2  C   UNL     1      25.705  46.382  51.069  1.00  0.00     0.021 A 
HETATM    3  C   UNL     1      26.402  47.421  51.890  1.00  0.00     0.069 C 
HETATM    4  C   UNL     1      24.915  46.581  49.939  1.00  0.00    -0.016 A 
HETATM    5  C   UNL     1      24.561  45.297  49.460  1.00  0.00     0.035 A 
HETATM    6  C   UNL     1      25.095  44.348  50.309  1.00  0.00     0.014 A 
HETATM    7  C   UNL     1      24.854  42.877  50.263  1.00  0.00     0.068 C 
ENDROOT
BRANCH   4   8
HETATM    8  C   UNL     1      24.492  47.881  49.325  1.00  0.00     0.165 C 
BRANCH   8   9
HETATM    9  N   UNL     1      23.171  48.215  49.803  1.00  0.00    -0.339 N 
HETATM   10  C   UNL     1      22.166  48.480  48.915  1.00  0.00     0.316 C 
HETATM   11  N   UNL     1      20.943  48.475  49.528  1.00  0.00    -0.339 N 
HETATM   12  O   UNL     1      22.329  48.642  47.714  1.00  0.00    -0.247 OA
HETATM   13  H   UNL     1      20.918  48.766  50.492  1.00  0.00     0.164 HD
HETATM   14  H   UNL     1      22.905  47.838  50.700  1.00  0.00     0.164 HD
BRANCH  11  15
HETATM   15  C   UNL     1      19.737  48.660  48.752  1.00  0.00     0.162 C 
BRANCH  15  16
HETATM   16  C   UNL     1      19.156  50.039  48.943  1.00  0.00    -0.040 A 
HETATM   17  C   UNL     1      19.754  51.149  48.330  1.00  0.00     0.009 A 
HETATM   18  C   UNL     1      19.194  52.421  48.464  1.00  0.00     0.001 A 
HETATM   19  C   UNL     1      18.026  52.597  49.205  1.00  0.00     0.000 A 
HETATM   20  C   UNL     1      17.414  51.501  49.808  1.00  0.00     0.001 A 
HETATM   21  C   UNL     1      17.970  50.228  49.671  1.00  0.00     0.009 A 
ENDBRANCH  15  16
ENDBRANCH  11  15
ENDBRANCH   8   9
ENDBRANCH   4   8
BRANCH   1  22
HETATM   22  C   UNL     1      26.539  44.387  52.367  1.00  0.00     0.040 A 
HETATM   23  C   UNL     1      27.857  43.956  52.167  1.00  0.00     0.036 A 
HETATM   24  C   UNL     1      28.562  43.312  53.194  1.00  0.00    -0.060 A 
HETATM   25  C   UNL     1      29.979  42.868  52.980  1.00  0.00     0.048 C 
HETATM   26  C   UNL     1      27.946  43.140  54.439  1.00  0.00     0.007 A 
HETATM   27  C   UNL     1      26.638  43.579  54.646  1.00  0.00     0.003 A 
HETATM   28  C   UNL     1      25.933  44.197  53.612  1.00  0.00     0.030 A 
ENDBRANCH   1  22
TORSDOF 5
ENDMDL
MODEL 5
REMARK VINA RESULT:      -8.8      1.974      8.623
REMARK  5 active torsions:
REMARK  status: ('A' for Active; 'I' for Inactive)
REMARK    1  A    between atoms: C_4  and  N_5 
REMARK    2  A    between atoms: C_8  and  C_9 
REMARK    3  A    between atoms: C_9  and  N_10 
REMARK       I    between atoms: N_10  and  C_11 
REMARK       I    between atoms: C_11  and  N_12 
REMARK    4  A    between atoms: N_12  and  C_13 
REMARK    5  A    between atoms: C_13  and  C_14 
ROOT
HETATM    1  N   UNL     1      28.152  45.283  54.815  1.00  0.00    -0.319 N 
HETATM    2  C   UNL     1      27.739  44.207  54.024  1.00  0.00     0.021 A 
HETATM    3  C   UNL     1      28.155  42.790  54.268  1.00  0.00     0.069 C 
HETATM    4  C   UNL     1      26.854  44.678  53.056  1.00  0.00    -0.016 A 
HETATM    5  C   UNL     1      26.707  46.067  53.284  1.00  0.00     0.035 A 
HETATM    6  C   UNL     1      27.518  46.428  54.341  1.00  0.00     0.014 A 
HETATM    7  C   UNL     1      27.780  47.814  54.829  1.00  0.00     0.068 C 
ENDROOT
BRANCH   4   8
HETATM    8  C   UNL     1      26.179  43.902  51.967  1.00  0.00     0.165 C 
BRANCH   8   9
HETATM    9  N   UNL     1      25.896  44.792  50.866  1.00  0.00    -0.339 N 
HETATM   10  C   UNL     1      24.602  45.061  50.514  1.00  0.00     0.316 C 
HETATM   11  N   UNL     1      24.526  46.135  49.670  1.00  0.00    -0.339 N 
HETATM   12  O   UNL     1      23.630  44.458  50.943  1.00  0.00    -0.247 OA
HETATM   13  H   UNL     1      25.308  46.282  49.051  1.00  0.00     0.164 HD
HETATM   14  H   UNL     1      26.583  45.505  50.672  1.00  0.00     0.164 HD
BRANCH  11  15
HETATM   15  C   UNL     1      23.240  46.632  49.236  1.00  0.00     0.162 C 
BRANCH  15  16
HETATM   16  C   UNL     1      23.324  48.062  48.765  1.00  0.00    -0.040 A 
HETATM   17  C   UNL     1      22.213  48.677  48.171  1.00  0.00     0.009 A 
HETATM   18  C   UNL     1      22.269  50.016  47.776  1.00  0.00     0.001 A 
HETATM   19  C   UNL     1      23.433  50.756  47.978  1.00  0.00     0.000 A 
HETATM   20  C   UNL     1      24.540  50.162  48.581  1.00  0.00     0.001 A 
HETATM   21  C   UNL     1      24.482  48.826  48.980  1.00  0.00     0.009 A 
ENDBRANCH  15  16
ENDBRANCH  11  15
ENDBRANCH   8   9
ENDBRANCH   4   8
BRANCH   1  22
HETATM   22  C   UNL     1      29.062  45.221  55.916  1.00  0.00     0.040 A 
HETATM   23  C   UNL     1      30.153  44.342  55.882  1.00  0.00     0.036 A 
HETATM   24  C   UNL     1      31.029  44.248  56.974  1.00  0.00    -0.060 A 
HETATM   25  C   UNL     1      32.204  43.317  56.926  1.00  0.00     0.048 C 
HETATM   26  C   UNL     1      30.825  45.075  58.084  1.00  0.00     0.007 A 
HETATM   27  C   UNL     1      29.748  45.961  58.116  1.00  0.00     0.003 A 
HETATM   28  C   UNL     1      28.865  46.032  57.038  1.00  0.00     0.030 A 
ENDBRANCH   1  22
TORSDOF 5
ENDMDL
MODEL 6
REMARK VINA RESULT:      -8.7      2.571      9.128
REMARK  5 active torsions:
REMARK  status: ('A' for Active; 'I' for Inactive)
REMARK    1  A    between atoms: C_4  and  N_5 
REMARK    2  A    between atoms: C_8  and  C_9 
REMARK    3  A    between atoms: C_9  and  N_10 
REMARK       I    between atoms: N_10  and  C_11 
REMARK       I    between atoms: C_11  and  N_12 
REMARK    4  A    between atoms: N_12  and  C_13 
REMARK    5  A    between atoms: C_13  and  C_14 
ROOT
HETATM    1  N   UNL     1      27.744  45.463  54.061  1.00  0.00    -0.319 N 
HETATM    2  C   UNL     1      27.139  44.781  53.001  1.00  0.00     0.021 A 
HETATM    3  C   UNL     1      27.497  43.384  52.601  1.00  0.00     0.069 C 
HETATM    4  C   UNL     1      26.140  45.590  52.463  1.00  0.00    -0.016 A 
HETATM    5  C   UNL     1      26.121  46.777  53.232  1.00  0.00     0.035 A 
HETATM    6  C   UNL     1      27.115  46.699  54.187  1.00  0.00     0.014 A 
HETATM    7  C   UNL     1      27.542  47.784  55.118  1.00  0.00     0.068 C 
ENDROOT
BRANCH   4   8
HETATM    8  C   UNL     1      25.247  45.299  51.295  1.00  0.00     0.165 C 
BRANCH   8   9
HETATM    9  N   UNL     1      24.342  46.409  51.112  1.00  0.00    -0.339 N 
HETATM   10  C   UNL     1      24.586  47.342  50.142  1.00  0.00     0.316 C 
HETATM   11  N   UNL     1      23.489  48.128  49.918  1.00  0.00    -0.339 N 
HETATM   12  O   UNL     1      25.629  47.427  49.511  1.00  0.00    -0.247 OA
HETATM   13  H   UNL     1      22.883  48.297  50.705  1.00  0.00     0.164 HD
HETATM   14  H   UNL     1      23.380  46.256  51.370  1.00  0.00     0.164 HD
BRANCH  11  15
HETATM   15  C   UNL     1      23.512  49.132  48.877  1.00  0.00     0.162 C 
BRANCH  15  16
HETATM   16  C   UNL     1      22.249  49.957  48.870  1.00  0.00    -0.040 A 
HETATM   17  C   UNL     1      21.503  50.098  47.692  1.00  0.00     0.009 A 
HETATM   18  C   UNL     1      20.308  50.821  47.690  1.00  0.00     0.001 A 
HETATM   19  C   UNL     1      19.843  51.405  48.868  1.00  0.00     0.000 A 
HETATM   20  C   UNL     1      20.567  51.262  50.049  1.00  0.00     0.001 A 
HETATM   21  C   UNL     1      21.759  50.535  50.053  1.00  0.00     0.009 A 
ENDBRANCH  15  16
ENDBRANCH  11  15
ENDBRANCH   8   9
ENDBRANCH   4   8
BRANCH   1  22
HETATM   22  C   UNL     1      28.816  44.980  54.874  1.00  0.00     0.040 A 
HETATM   23  C   UNL     1      29.144  45.633  56.070  1.00  0.00     0.036 A 
HETATM   24  C   UNL     1      30.218  45.189  56.855  1.00  0.00    -0.060 A 
HETATM   25  C   UNL     1      30.554  45.881  58.143  1.00  0.00     0.048 C 
HETATM   26  C   UNL     1      30.935  44.057  56.451  1.00  0.00     0.007 A 
HETATM   27  C   UNL     1      30.603  43.396  55.269  1.00  0.00     0.003 A 
HETATM   28  C   UNL     1      29.550  43.858  54.478  1.00  0.00     0.030 A 
ENDBRANCH   1  22
TORSDOF 5
ENDMDL
MODEL 7
REMARK VINA RESULT:      -8.5      3.710      5.926
REMARK  5 active torsions:
REMARK  status: ('A' for Active; 'I' for Inactive)
REMARK    1  A    between atoms: C_4  and  N_5 
REMARK    2  A    between atoms: C_8  and  C_9 
REMARK    3  A    between atoms: C_9  and  N_10 
REMARK       I    between atoms: N_10  and  C_11 
REMARK       I    between atoms: C_11  and  N_12 
REMARK    4  A    between atoms: N_12  and  C_13 
REMARK    5  A    between atoms: C_13  and  C_14 
ROOT
HETATM    1  N   UNL     1      21.605  49.486  48.482  1.00  0.00    -0.319 N 
HETATM    2  C   UNL     1      21.553  48.127  48.803  1.00  0.00     0.021 A 
HETATM    3  C   UNL     1      20.278  47.358  48.955  1.00  0.00     0.069 C 
HETATM    4  C   UNL     1      22.856  47.637  48.882  1.00  0.00    -0.016 A 
HETATM    5  C   UNL     1      23.715  48.719  48.575  1.00  0.00     0.035 A 
HETATM    6  C   UNL     1      22.945  49.844  48.355  1.00  0.00     0.014 A 
HETATM    7  C   UNL     1      23.442  51.234  48.141  1.00  0.00     0.068 C 
ENDROOT
BRANCH   4   8
HETATM    8  C   UNL     1      23.300  46.249  49.231  1.00  0.00     0.165 C 
BRANCH   8   9
HETATM    9  N   UNL     1      24.435  46.332  50.119  1.00  0.00    -0.339 N 
HETATM   10  C   UNL     1      24.637  45.367  51.067  1.00  0.00     0.316 C 
HETATM   11  N   UNL     1      25.895  45.444  51.599  1.00  0.00    -0.339 N 
HETATM   12  O   UNL     1      23.821  44.507  51.363  1.00  0.00    -0.247 OA
HETATM   13  H   UNL     1      26.312  46.360  51.646  1.00  0.00     0.164 HD
HETATM   14  H   UNL     1      25.251  46.809  49.769  1.00  0.00     0.164 HD
BRANCH  11  15
HETATM   15  C   UNL     1      26.339  44.467  52.568  1.00  0.00     0.162 C 
BRANCH  15  16
HETATM   16  C   UNL     1      27.245  45.081  53.605  1.00  0.00    -0.040 A 
HETATM   17  C   UNL     1      27.010  46.384  54.067  1.00  0.00     0.009 A 
HETATM   18  C   UNL     1      27.817  46.941  55.062  1.00  0.00     0.001 A 
HETATM   19  C   UNL     1      28.861  46.199  55.612  1.00  0.00     0.000 A 
HETATM   20  C   UNL     1      29.098  44.898  55.173  1.00  0.00     0.001 A 
HETATM   21  C   UNL     1      28.289  44.339  54.182  1.00  0.00     0.009 A 
ENDBRANCH  15  16
ENDBRANCH  11  15
ENDBRANCH   8   9
ENDBRANCH   4   8
BRANCH   1  22
HETATM   22  C   UNL     1      20.485  50.357  48.312  1.00  0.00     0.040 A 
HETATM   23  C   UNL     1      19.777  50.368  47.102  1.00  0.00     0.036 A 
HETATM   24  C   UNL     1      18.700  51.247  46.912  1.00  0.00    -0.060 A 
HETATM   25  C   UNL     1      17.935  51.243  45.621  1.00  0.00     0.048 C 
HETATM   26  C   UNL     1      18.312  52.086  47.963  1.00  0.00     0.007 A 
HETATM   27  C   UNL     1      19.005  52.069  49.173  1.00  0.00     0.003 A 
HETATM   28  C   UNL     1      20.092  51.211  49.347  1.00  0.00     0.030 A 
ENDBRANCH   1  22
TORSDOF 5
ENDMDL
MODEL 8
REMARK VINA RESULT:      -8.5      2.663      4.585
REMARK  5 active torsions:
REMARK  status: ('A' for Active; 'I' for Inactive)
REMARK    1  A    between atoms: C_4  and  N_5 
REMARK    2  A    between atoms: C_8  and  C_9 
REMARK    3  A    between atoms: C_9  and  N_10 
REMARK       I    between atoms: N_10  and  C_11 
REMARK       I    between atoms: C_11  and  N_12 
REMARK    4  A    between atoms: N_12  and  C_13 
REMARK    5  A    between atoms: C_13  and  C_14 
ROOT
HETATM    1  N   UNL     1      22.912  47.071  48.559  1.00  0.00    -0.319 N 
HETATM    2  C   UNL     1      23.841  46.359  49.323  1.00  0.00     0.021 A 
HETATM    3  C   UNL     1      24.698  46.982  50.380  1.00  0.00     0.069 C 
HETATM    4  C   UNL     1      23.767  45.012  48.974  1.00  0.00    -0.016 A 
HETATM    5  C   UNL     1      22.751  44.902  47.995  1.00  0.00     0.035 A 
HETATM    6  C   UNL     1      22.253  46.163  47.734  1.00  0.00     0.014 A 
HETATM    7  C   UNL     1      21.271  46.530  46.673  1.00  0.00     0.068 C 
ENDROOT
BRANCH   4   8
HETATM    8  C   UNL     1      24.590  43.876  49.500  1.00  0.00     0.165 C 
BRANCH   8   9
HETATM    9  N   UNL     1      24.410  43.792  50.930  1.00  0.00    -0.339 N 
HETATM   10  C   UNL     1      25.493  43.641  51.751  1.00  0.00     0.316 C 
HETATM   11  N   UNL     1      25.168  43.884  53.058  1.00  0.00    -0.339 N 
HETATM   12  O   UNL     1      26.623  43.381  51.365  1.00  0.00    -0.247 OA
HETATM   13  H   UNL     1      24.226  43.660  53.340  1.00  0.00     0.164 HD
HETATM   14  H   UNL     1      23.605  44.262  51.314  1.00  0.00     0.164 HD
BRANCH  11  15
HETATM   15  C   UNL     1      26.188  43.851  54.082  1.00  0.00     0.162 C 
BRANCH  15  16
HETATM   16  C   UNL     1      26.740  45.225  54.365  1.00  0.00    -0.040 A 
HETATM   17  C   UNL     1      25.928  46.358  54.219  1.00  0.00     0.009 A 
HETATM   18  C   UNL     1      26.419  47.629  54.525  1.00  0.00     0.001 A 
HETATM   19  C   UNL     1      27.725  47.781  54.989  1.00  0.00     0.000 A 
HETATM   20  C   UNL     1      28.539  46.662  55.153  1.00  0.00     0.001 A 
HETATM   21  C   UNL     1      28.047  45.391  54.852  1.00  0.00     0.009 A 
ENDBRANCH  15  16
ENDBRANCH  11  15
ENDBRANCH   8   9
ENDBRANCH   4   8
BRANCH   1  22
HETATM   22  C   UNL     1      22.677  48.480  48.613  1.00  0.00     0.040 A 
HETATM   23  C   UNL     1      21.559  48.983  49.292  1.00  0.00     0.036 A 
HETATM   24  C   UNL     1      21.299  50.361  49.318  1.00  0.00    -0.060 A 
HETATM   25  C   UNL     1      20.111  50.896  50.061  1.00  0.00     0.048 C 
HETATM   26  C   UNL     1      22.195  51.235  48.692  1.00  0.00     0.007 A 
HETATM   27  C   UNL     1      23.316  50.740  48.026  1.00  0.00     0.003 A 
HETATM   28  C   UNL     1      23.556  49.366  47.981  1.00  0.00     0.030 A 
ENDBRANCH   1  22
TORSDOF 5
ENDMDL
MODEL 9
REMARK VINA RESULT:      -8.5      1.771      8.826
REMARK  5 active torsions:
REMARK  status: ('A' for Active; 'I' for Inactive)
REMARK    1  A    between atoms: C_4  and  N_5 
REMARK    2  A    between atoms: C_8  and  C_9 
REMARK    3  A    between atoms: C_9  and  N_10 
REMARK       I    between atoms: N_10  and  C_11 
REMARK       I    between atoms: C_11  and  N_12 
REMARK    4  A    between atoms: N_12  and  C_13 
REMARK    5  A    between atoms: C_13  and  C_14 
ROOT
HETATM    1  N   UNL     1      28.531  44.355  53.914  1.00  0.00    -0.319 N 
HETATM    2  C   UNL     1      27.263  44.796  53.527  1.00  0.00     0.021 A 
HETATM    3  C   UNL     1      26.433  45.747  54.331  1.00  0.00     0.069 C 
HETATM    4  C   UNL     1      26.966  44.258  52.276  1.00  0.00    -0.016 A 
HETATM    5  C   UNL     1      28.093  43.496  51.885  1.00  0.00     0.035 A 
HETATM    6  C   UNL     1      29.030  43.544  52.897  1.00  0.00     0.014 A 
HETATM    7  C   UNL     1      30.304  42.771  52.968  1.00  0.00     0.068 C 
ENDROOT
BRANCH   4   8
HETATM    8  C   UNL     1      25.710  44.421  51.475  1.00  0.00     0.165 C 
BRANCH   8   9
HETATM    9  N   UNL     1      25.390  45.827  51.391  1.00  0.00    -0.339 N 
HETATM   10  C   UNL     1      25.732  46.544  50.279  1.00  0.00     0.316 C 
HETATM   11  N   UNL     1      25.093  47.754  50.247  1.00  0.00    -0.339 N 
HETATM   12  O   UNL     1      26.468  46.137  49.392  1.00  0.00    -0.247 OA
HETATM   13  H   UNL     1      24.886  48.180  51.137  1.00  0.00     0.164 HD
HETATM   14  H   UNL     1      24.583  46.139  51.910  1.00  0.00     0.164 HD
BRANCH  11  15
HETATM   15  C   UNL     1      25.259  48.638  49.115  1.00  0.00     0.162 C 
BRANCH  15  16
HETATM   16  C   UNL     1      23.937  49.178  48.630  1.00  0.00    -0.040 A 
HETATM   17  C   UNL     1      22.888  48.303  48.319  1.00  0.00     0.009 A 
HETATM   18  C   UNL     1      21.646  48.799  47.914  1.00  0.00     0.001 A 
HETATM   19  C   UNL     1      21.438  50.174  47.824  1.00  0.00     0.000 A 
HETATM   20  C   UNL     1      22.468  51.056  48.144  1.00  0.00     0.001 A 
HETATM   21  C   UNL     1      23.708  50.561  48.553  1.00  0.00     0.009 A 
ENDBRANCH  15  16
ENDBRANCH  11  15
ENDBRANCH   8   9
ENDBRANCH   4   8
BRANCH   1  22
HETATM   22  C   UNL     1      29.202  44.679  55.134  1.00  0.00     0.040 A 
HETATM   23  C   UNL     1      30.278  43.898  55.577  1.00  0.00     0.036 A 
HETATM   24  C   UNL     1      30.918  44.186  56.791  1.00  0.00    -0.060 A 
HETATM   25  C   UNL     1      32.081  43.357  57.252  1.00  0.00     0.048 C 
HETATM   26  C   UNL     1      30.495  45.291  57.539  1.00  0.00     0.007 A 
HETATM   27  C   UNL     1      29.433  46.078  57.096  1.00  0.00     0.003 A 
HETATM   28  C   UNL     1      28.783  45.772  55.899  1.00  0.00     0.030 A 
ENDBRANCH   1  22
TORSDOF 5
ENDMDL
MODEL 10
REMARK VINA RESULT:      -8.4      4.019      6.419
REMARK  5 active torsions:
REMARK  status: ('A' for Active; 'I' for Inactive)
REMARK    1  A    between atoms: C_4  and  N_5 
REMARK    2  A    between atoms: C_8  and  C_9 
REMARK    3  A    between atoms: C_9  and  N_10 
REMARK       I    between atoms: N_10  and  C_11 
REMARK       I    between atoms: C_11  and  N_12 
REMARK    4  A    between atoms: N_12  and  C_13 
REMARK    5  A    between atoms: C_13  and  C_14 
ROOT
HETATM    1  N   UNL     1      20.813  49.429  48.806  1.00  0.00    -0.319 N 
HETATM    2  C   UNL     1      22.195  49.614  48.914  1.00  0.00     0.021 A 
HETATM    3  C   UNL     1      22.844  50.956  49.055  1.00  0.00     0.069 C 
HETATM    4  C   UNL     1      22.812  48.365  48.933  1.00  0.00    -0.016 A 
HETATM    5  C   UNL     1      21.779  47.401  48.862  1.00  0.00     0.035 A 
HETATM    6  C   UNL     1      20.569  48.059  48.763  1.00  0.00     0.014 A 
HETATM    7  C   UNL     1      19.234  47.436  48.526  1.00  0.00     0.068 C 
ENDROOT
BRANCH   4   8
HETATM    8  C   UNL     1      24.277  48.061  49.003  1.00  0.00     0.165 C 
BRANCH   8   9
HETATM    9  N   UNL     1      24.653  47.891  50.386  1.00  0.00    -0.339 N 
HETATM   10  C   UNL     1      24.805  46.636  50.908  1.00  0.00     0.316 C 
HETATM   11  N   UNL     1      25.446  46.670  52.116  1.00  0.00    -0.339 N 
HETATM   12  O   UNL     1      24.466  45.607  50.343  1.00  0.00    -0.247 OA
HETATM   13  H   UNL     1      25.299  47.490  52.684  1.00  0.00     0.164 HD
HETATM   14  H   UNL     1      25.199  48.630  50.802  1.00  0.00     0.164 HD
BRANCH  11  15
HETATM   15  C   UNL     1      25.772  45.442  52.805  1.00  0.00     0.162 C 
BRANCH  15  16
HETATM   16  C   UNL     1      26.956  45.613  53.723  1.00  0.00    -0.040 A 
HETATM   17  C   UNL     1      27.156  46.824  54.400  1.00  0.00     0.009 A 
HETATM   18  C   UNL     1      28.224  46.973  55.289  1.00  0.00     0.001 A 
HETATM   19  C   UNL     1      29.099  45.911  55.514  1.00  0.00     0.000 A 
HETATM   20  C   UNL     1      28.904  44.697  54.859  1.00  0.00     0.001 A 
HETATM   21  C   UNL     1      27.834  44.546  53.975  1.00  0.00     0.009 A 
ENDBRANCH  15  16
ENDBRANCH  11  15
ENDBRANCH   8   9
ENDBRANCH   4   8
BRANCH   1  22
HETATM   22  C   UNL     1      19.825  50.460  48.751  1.00  0.00     0.040 A 
HETATM   23  C   UNL     1      19.235  50.808  47.528  1.00  0.00     0.036 A 
HETATM   24  C   UNL     1      18.292  51.844  47.459  1.00  0.00    -0.060 A 
HETATM   25  C   UNL     1      17.651  52.201  46.150  1.00  0.00     0.048 C 
HETATM   26  C   UNL     1      17.914  52.501  48.635  1.00  0.00     0.007 A 
HETATM   27  C   UNL     1      18.489  52.149  49.856  1.00  0.00     0.003 A 
HETATM   28  C   UNL     1      19.446  51.135  49.916  1.00  0.00     0.030 A 
ENDBRANCH   1  22
TORSDOF 5
ENDMDL
