MODEL 1
REMARK VINA RESULT:      -9.0      0.000      0.000
REMARK  3 active torsions:
REMARK  status: ('A' for Active; 'I' for Inactive)
REMARK       I    between atoms: N_2  and  C_3 
REMARK    1  A    between atoms: C_3  and  C_4 
REMARK    2  A    between atoms: C_6  and  N_7 
REMARK       I    between atoms: N_7  and  C_8 
REMARK    3  A    between atoms: C_8  and  C_9 
ROOT
HETATM    1  N   UNL     1      26.880  45.681  53.281  1.00  0.00    -0.321 N 
HETATM    2  C   UNL     1      26.897  46.313  54.512  1.00  0.00     0.280 C 
HETATM    3  O   UNL     1      26.112  47.183  54.874  1.00  0.00    -0.265 OA
HETATM    4  H   UNL     1      27.632  45.014  53.140  1.00  0.00     0.169 HD
ENDROOT
BRANCH   1   5
HETATM    5  C   UNL     1      26.006  45.904  52.200  1.00  0.00     0.036 A 
HETATM    6  C   UNL     1      25.959  47.095  51.473  1.00  0.00     0.046 A 
HETATM    7  C   UNL     1      25.106  47.217  50.369  1.00  0.00     0.034 A 
HETATM    8  C   UNL     1      24.245  46.168  50.030  1.00  0.00     0.017 A 
HETATM    9  C   UNL     1      24.266  44.988  50.769  1.00  0.00     0.003 A 
HETATM   10  C   UNL     1      25.147  44.855  51.845  1.00  0.00     0.029 A 
BRANCH   7  11
HETATM   11  C   UNL     1      25.034  48.467  49.574  1.00  0.00     0.251 C 
HETATM   12  N   UNL     1      26.168  49.031  49.047  1.00  0.00    -0.361 N 
HETATM   13  C   UNL     1      27.500  48.478  48.954  1.00  0.00     0.149 C 
HETATM   14  H   UNL     1      25.982  49.896  48.552  1.00  0.00     0.162 HD
HETATM   15  O   UNL     1      23.941  48.990  49.371  1.00  0.00    -0.268 OA
ENDBRANCH   7  11
ENDBRANCH   1   5
BRANCH   2  16
HETATM   16  C   UNL     1      27.985  45.863  55.360  1.00  0.00     0.144 A 
HETATM   17  O   UNL     1      28.819  44.868  54.915  1.00  0.00    -0.304 OA
HETATM   18  C   UNL     1      29.752  44.663  55.886  1.00  0.00     0.086 A 
HETATM   19  C   UNL     1      29.528  45.516  56.961  1.00  0.00     0.001 A 
HETATM   20  C   UNL     1      30.792  43.738  55.826  1.00  0.00     0.038 A 
HETATM   21  C   UNL     1      28.386  46.281  56.614  1.00  0.00     0.057 A 
HETATM   22  C   UNL     1      30.401  45.453  58.061  1.00  0.00     0.014 A 
HETATM   23  C   UNL     1      31.459  44.534  58.029  1.00  0.00     0.001 A 
HETATM   24  C   UNL     1      31.648  43.691  56.931  1.00  0.00     0.003 A 
ENDBRANCH   2  16
TORSDOF 3
ENDMDL
MODEL 2
REMARK VINA RESULT:      -8.8      1.261      2.012
REMARK  3 active torsions:
REMARK  status: ('A' for Active; 'I' for Inactive)
REMARK       I    between atoms: N_2  and  C_3 
REMARK    1  A    between atoms: C_3  and  C_4 
REMARK    2  A    between atoms: C_6  and  N_7 
REMARK       I    between atoms: N_7  and  C_8 
REMARK    3  A    between atoms: C_8  and  C_9 
ROOT
HETATM    1  N   UNL     1      27.136  45.009  53.044  1.00  0.00    -0.321 N 
HETATM    2  C   UNL     1      28.225  44.158  52.958  1.00  0.00     0.280 C 
HETATM    3  O   UNL     1      28.482  43.427  52.007  1.00  0.00    -0.265 OA
HETATM    4  H   UNL     1      27.062  45.509  53.924  1.00  0.00     0.169 HD
ENDROOT
BRANCH   1   5
HETATM    5  C   UNL     1      26.105  45.199  52.105  1.00  0.00     0.036 A 
HETATM    6  C   UNL     1      25.837  46.419  51.482  1.00  0.00     0.046 A 
HETATM    7  C   UNL     1      24.834  46.512  50.510  1.00  0.00     0.034 A 
HETATM    8  C   UNL     1      24.047  45.397  50.205  1.00  0.00     0.017 A 
HETATM    9  C   UNL     1      24.290  44.183  50.843  1.00  0.00     0.003 A 
HETATM   10  C   UNL     1      25.318  44.084  51.784  1.00  0.00     0.029 A 
BRANCH   7  11
HETATM   11  C   UNL     1      24.527  47.794  49.829  1.00  0.00     0.251 C 
HETATM   12  N   UNL     1      25.531  48.595  49.350  1.00  0.00    -0.361 N 
HETATM   13  C   UNL     1      26.940  48.299  49.207  1.00  0.00     0.149 C 
HETATM   14  H   UNL     1      25.186  49.452  48.934  1.00  0.00     0.162 HD
HETATM   15  O   UNL     1      23.354  48.128  49.674  1.00  0.00    -0.268 OA
ENDBRANCH   7  11
ENDBRANCH   1   5
BRANCH   2  16
HETATM   16  C   UNL     1      29.053  44.183  54.149  1.00  0.00     0.144 A 
HETATM   17  O   UNL     1      28.878  45.185  55.071  1.00  0.00    -0.304 OA
HETATM   18  C   UNL     1      29.756  44.953  56.085  1.00  0.00     0.086 A 
HETATM   19  C   UNL     1      30.504  43.809  55.829  1.00  0.00     0.001 A 
HETATM   20  C   UNL     1      29.897  45.737  57.228  1.00  0.00     0.038 A 
HETATM   21  C   UNL     1      30.047  43.324  54.578  1.00  0.00     0.057 A 
HETATM   22  C   UNL     1      31.462  43.406  56.774  1.00  0.00     0.014 A 
HETATM   23  C   UNL     1      31.625  44.174  57.936  1.00  0.00     0.001 A 
HETATM   24  C   UNL     1      30.856  45.319  58.156  1.00  0.00     0.003 A 
ENDBRANCH   2  16
TORSDOF 3
ENDMDL
MODEL 3
REMARK VINA RESULT:      -8.7      1.774      2.489
REMARK  3 active torsions:
REMARK  status: ('A' for Active; 'I' for Inactive)
REMARK       I    between atoms: N_2  and  C_3 
REMARK    1  A    between atoms: C_3  and  C_4 
REMARK    2  A    between atoms: C_6  and  N_7 
REMARK       I    between atoms: N_7  and  C_8 
REMARK    3  A    between atoms: C_8  and  C_9 
ROOT
HETATM    1  N   UNL     1      25.932  45.573  51.518  1.00  0.00    -0.321 N 
HETATM    2  C   UNL     1      25.742  44.881  52.702  1.00  0.00     0.280 C 
HETATM    3  O   UNL     1      24.656  44.534  53.155  1.00  0.00    -0.265 OA
HETATM    4  H   UNL     1      26.899  45.812  51.321  1.00  0.00     0.169 HD
ENDROOT
BRANCH   1   5
HETATM    5  C   UNL     1      24.957  46.039  50.617  1.00  0.00     0.036 A 
HETATM    6  C   UNL     1      24.647  47.388  50.436  1.00  0.00     0.046 A 
HETATM    7  C   UNL     1      23.708  47.776  49.472  1.00  0.00     0.034 A 
HETATM    8  C   UNL     1      23.024  46.807  48.731  1.00  0.00     0.017 A 
HETATM    9  C   UNL     1      23.308  45.457  48.926  1.00  0.00     0.003 A 
HETATM   10  C   UNL     1      24.274  45.076  49.861  1.00  0.00     0.029 A 
BRANCH   7  11
HETATM   11  C   UNL     1      23.359  49.200  49.254  1.00  0.00     0.251 C 
HETATM   12  N   UNL     1      24.272  50.076  48.727  1.00  0.00    -0.361 N 
HETATM   13  C   UNL     1      25.552  49.796  48.115  1.00  0.00     0.149 C 
HETATM   14  H   UNL     1      23.916  51.022  48.658  1.00  0.00     0.162 HD
HETATM   15  O   UNL     1      22.227  49.593  49.532  1.00  0.00    -0.268 OA
ENDBRANCH   7  11
ENDBRANCH   1   5
BRANCH   2  16
HETATM   16  C   UNL     1      26.984  44.617  53.404  1.00  0.00     0.144 A 
HETATM   17  O   UNL     1      27.460  45.539  54.303  1.00  0.00    -0.304 OA
HETATM   18  C   UNL     1      28.610  45.032  54.826  1.00  0.00     0.086 A 
HETATM   19  C   UNL     1      28.889  43.788  54.271  1.00  0.00     0.001 A 
HETATM   20  C   UNL     1      29.406  45.654  55.785  1.00  0.00     0.038 A 
HETATM   21  C   UNL     1      27.839  43.532  53.353  1.00  0.00     0.057 A 
HETATM   22  C   UNL     1      30.040  43.104  54.697  1.00  0.00     0.014 A 
HETATM   23  C   UNL     1      30.860  43.704  55.663  1.00  0.00     0.001 A 
HETATM   24  C   UNL     1      30.547  44.958  56.195  1.00  0.00     0.003 A 
ENDBRANCH   2  16
TORSDOF 3
ENDMDL
MODEL 4
REMARK VINA RESULT:      -8.6      2.433      3.574
REMARK  3 active torsions:
REMARK  status: ('A' for Active; 'I' for Inactive)
REMARK       I    between atoms: N_2  and  C_3 
REMARK    1  A    between atoms: C_3  and  C_4 
REMARK    2  A    between atoms: C_6  and  N_7 
REMARK       I    between atoms: N_7  and  C_8 
REMARK    3  A    between atoms: C_8  and  C_9 
ROOT
HETATM    1  N   UNL     1      27.136  44.892  52.706  1.00  0.00    -0.321 N 
HETATM    2  C   UNL     1      28.184  43.988  52.678  1.00  0.00     0.280 C 
HETATM    3  O   UNL     1      28.419  43.202  51.766  1.00  0.00    -0.265 OA
HETATM    4  H   UNL     1      27.072  45.437  53.561  1.00  0.00     0.169 HD
ENDROOT
BRANCH   1   5
HETATM    5  C   UNL     1      26.129  45.087  51.742  1.00  0.00     0.036 A 
HETATM    6  C   UNL     1      25.200  44.110  51.381  1.00  0.00     0.046 A 
HETATM    7  C   UNL     1      24.187  44.402  50.458  1.00  0.00     0.034 A 
HETATM    8  C   UNL     1      24.142  45.656  49.842  1.00  0.00     0.017 A 
HETATM    9  C   UNL     1      25.083  46.627  50.177  1.00  0.00     0.003 A 
HETATM   10  C   UNL     1      26.068  46.345  51.127  1.00  0.00     0.029 A 
BRANCH   7  11
HETATM   11  C   UNL     1      23.185  43.386  50.056  1.00  0.00     0.251 C 
HETATM   12  N   UNL     1      23.448  42.501  49.042  1.00  0.00    -0.361 N 
HETATM   13  C   UNL     1      24.701  42.232  48.372  1.00  0.00     0.149 C 
HETATM   14  H   UNL     1      22.669  41.882  48.849  1.00  0.00     0.162 HD
HETATM   15  O   UNL     1      22.113  43.326  50.655  1.00  0.00    -0.268 OA
ENDBRANCH   7  11
ENDBRANCH   1   5
BRANCH   2  16
HETATM   16  C   UNL     1      28.994  44.030  53.881  1.00  0.00     0.144 A 
HETATM   17  O   UNL     1      28.828  45.062  54.771  1.00  0.00    -0.304 OA
HETATM   18  C   UNL     1      29.685  44.841  55.805  1.00  0.00     0.086 A 
HETATM   19  C   UNL     1      30.411  43.674  55.593  1.00  0.00     0.001 A 
HETATM   20  C   UNL     1      29.826  45.655  56.927  1.00  0.00     0.038 A 
HETATM   21  C   UNL     1      29.962  43.162  54.350  1.00  0.00     0.057 A 
HETATM   22  C   UNL     1      31.346  43.278  56.565  1.00  0.00     0.014 A 
HETATM   23  C   UNL     1      31.509  44.076  57.706  1.00  0.00     0.001 A 
HETATM   24  C   UNL     1      30.762  45.244  57.881  1.00  0.00     0.003 A 
ENDBRANCH   2  16
TORSDOF 3
ENDMDL
MODEL 5
REMARK VINA RESULT:      -8.6      4.996      6.363
REMARK  3 active torsions:
REMARK  status: ('A' for Active; 'I' for Inactive)
REMARK       I    between atoms: N_2  and  C_3 
REMARK    1  A    between atoms: C_3  and  C_4 
REMARK    2  A    between atoms: C_6  and  N_7 
REMARK       I    between atoms: N_7  and  C_8 
REMARK    3  A    between atoms: C_8  and  C_9 
ROOT
HETATM    1  N   UNL     1      28.359  41.852  52.617  1.00  0.00    -0.321 N 
HETATM    2  C   UNL     1      28.549  43.223  52.619  1.00  0.00     0.280 C 
HETATM    3  O   UNL     1      28.338  43.971  51.669  1.00  0.00    -0.265 OA
HETATM    4  H   UNL     1      28.624  41.389  53.480  1.00  0.00     0.169 HD
ENDROOT
BRANCH   1   5
HETATM    5  C   UNL     1      27.921  41.036  51.557  1.00  0.00     0.036 A 
HETATM    6  C   UNL     1      28.732  40.103  50.909  1.00  0.00     0.046 A 
HETATM    7  C   UNL     1      28.203  39.282  49.904  1.00  0.00     0.034 A 
HETATM    8  C   UNL     1      26.875  39.441  49.497  1.00  0.00     0.017 A 
HETATM    9  C   UNL     1      26.067  40.389  50.120  1.00  0.00     0.003 A 
HETATM   10  C   UNL     1      26.587  41.179  51.149  1.00  0.00     0.029 A 
BRANCH   7  11
HETATM   11  C   UNL     1      29.037  38.279  49.199  1.00  0.00     0.251 C 
HETATM   12  N   UNL     1      29.800  37.381  49.899  1.00  0.00    -0.361 N 
HETATM   13  C   UNL     1      29.786  37.085  51.315  1.00  0.00     0.149 C 
HETATM   14  H   UNL     1      30.343  36.773  49.297  1.00  0.00     0.162 HD
HETATM   15  O   UNL     1      29.026  38.243  47.970  1.00  0.00    -0.268 OA
ENDBRANCH   7  11
ENDBRANCH   1   5
BRANCH   2  16
HETATM   16  C   UNL     1      29.070  43.717  53.879  1.00  0.00     0.144 A 
HETATM   17  O   UNL     1      30.046  43.004  54.531  1.00  0.00    -0.304 OA
HETATM   18  C   UNL     1      30.362  43.698  55.659  1.00  0.00     0.086 A 
HETATM   19  C   UNL     1      29.597  44.855  55.748  1.00  0.00     0.001 A 
HETATM   20  C   UNL     1      31.318  43.320  56.599  1.00  0.00     0.038 A 
HETATM   21  C   UNL     1      28.765  44.855  54.600  1.00  0.00     0.057 A 
HETATM   22  C   UNL     1      29.791  45.707  56.849  1.00  0.00     0.014 A 
HETATM   23  C   UNL     1      30.748  45.355  57.812  1.00  0.00     0.001 A 
HETATM   24  C   UNL     1      31.496  44.181  57.687  1.00  0.00     0.003 A 
ENDBRANCH   2  16
TORSDOF 3
ENDMDL
MODEL 6
REMARK VINA RESULT:      -8.4      4.416     10.022
REMARK  3 active torsions:
REMARK  status: ('A' for Active; 'I' for Inactive)
REMARK       I    between atoms: N_2  and  C_3 
REMARK    1  A    between atoms: C_3  and  C_4 
REMARK    2  A    between atoms: C_6  and  N_7 
REMARK       I    between atoms: N_7  and  C_8 
REMARK    3  A    between atoms: C_8  and  C_9 
ROOT
HETATM    1  N   UNL     1      23.186  48.169  49.663  1.00  0.00    -0.321 N 
HETATM    2  C   UNL     1      22.368  48.246  48.548  1.00  0.00     0.280 C 
HETATM    3  O   UNL     1      22.478  47.559  47.538  1.00  0.00    -0.265 OA
HETATM    4  H   UNL     1      22.971  48.844  50.390  1.00  0.00     0.169 HD
ENDROOT
BRANCH   1   5
HETATM    5  C   UNL     1      24.300  47.333  49.868  1.00  0.00     0.036 A 
HETATM    6  C   UNL     1      24.207  46.002  50.276  1.00  0.00     0.046 A 
HETATM    7  C   UNL     1      25.361  45.216  50.395  1.00  0.00     0.034 A 
HETATM    8  C   UNL     1      26.620  45.782  50.172  1.00  0.00     0.017 A 
HETATM    9  C   UNL     1      26.722  47.118  49.792  1.00  0.00     0.003 A 
HETATM   10  C   UNL     1      25.566  47.888  49.635  1.00  0.00     0.029 A 
BRANCH   7  11
HETATM   11  C   UNL     1      25.296  43.798  50.824  1.00  0.00     0.251 C 
HETATM   12  N   UNL     1      25.411  43.457  52.147  1.00  0.00    -0.361 N 
HETATM   13  C   UNL     1      25.387  44.313  53.312  1.00  0.00     0.149 C 
HETATM   14  H   UNL     1      25.378  42.456  52.299  1.00  0.00     0.162 HD
HETATM   15  O   UNL     1      25.115  42.921  49.982  1.00  0.00    -0.268 OA
ENDBRANCH   7  11
ENDBRANCH   1   5
BRANCH   2  16
HETATM   16  C   UNL     1      21.349  49.271  48.670  1.00  0.00     0.144 A 
HETATM   17  O   UNL     1      20.234  49.027  49.433  1.00  0.00    -0.304 OA
HETATM   18  C   UNL     1      19.466  50.150  49.392  1.00  0.00     0.086 A 
HETATM   19  C   UNL     1      20.072  51.124  48.605  1.00  0.00     0.001 A 
HETATM   20  C   UNL     1      18.247  50.321  50.044  1.00  0.00     0.038 A 
HETATM   21  C   UNL     1      21.281  50.546  48.141  1.00  0.00     0.057 A 
HETATM   22  C   UNL     1      19.426  52.363  48.451  1.00  0.00     0.014 A 
HETATM   23  C   UNL     1      18.198  52.565  49.097  1.00  0.00     0.001 A 
HETATM   24  C   UNL     1      17.620  51.560  49.878  1.00  0.00     0.003 A 
ENDBRANCH   2  16
TORSDOF 3
ENDMDL
MODEL 7
REMARK VINA RESULT:      -8.3      3.237      8.435
REMARK  3 active torsions:
REMARK  status: ('A' for Active; 'I' for Inactive)
REMARK       I    between atoms: N_2  and  C_3 
REMARK    1  A    between atoms: C_3  and  C_4 
REMARK    2  A    between atoms: C_6  and  N_7 
REMARK       I    between atoms: N_7  and  C_8 
REMARK    3  A    between atoms: C_8  and  C_9 
ROOT
HETATM    1  N   UNL     1      25.836  45.856  51.647  1.00  0.00    -0.321 N 
HETATM    2  C   UNL     1      24.887  45.658  50.659  1.00  0.00     0.280 C 
HETATM    3  O   UNL     1      24.386  44.578  50.363  1.00  0.00    -0.265 OA
HETATM    4  H   UNL     1      26.168  46.813  51.727  1.00  0.00     0.169 HD
ENDROOT
BRANCH   1   5
HETATM    5  C   UNL     1      26.434  44.896  52.484  1.00  0.00     0.036 A 
HETATM    6  C   UNL     1      27.572  44.165  52.138  1.00  0.00     0.046 A 
HETATM    7  C   UNL     1      28.146  43.273  53.054  1.00  0.00     0.034 A 
HETATM    8  C   UNL     1      27.541  43.058  54.296  1.00  0.00     0.017 A 
HETATM    9  C   UNL     1      26.389  43.763  54.637  1.00  0.00     0.003 A 
HETATM   10  C   UNL     1      25.843  44.682  53.737  1.00  0.00     0.029 A 
BRANCH   7  11
HETATM   11  C   UNL     1      29.355  42.483  52.717  1.00  0.00     0.251 C 
HETATM   12  N   UNL     1      29.255  41.300  52.031  1.00  0.00    -0.361 N 
HETATM   13  C   UNL     1      28.109  40.737  51.353  1.00  0.00     0.149 C 
HETATM   14  H   UNL     1      30.152  40.849  51.892  1.00  0.00     0.162 HD
HETATM   15  O   UNL     1      30.462  42.908  53.041  1.00  0.00    -0.268 OA
ENDBRANCH   7  11
ENDBRANCH   1   5
BRANCH   2  16
HETATM   16  C   UNL     1      24.545  46.879  49.955  1.00  0.00     0.144 A 
HETATM   17  O   UNL     1      23.266  47.052  49.487  1.00  0.00    -0.304 OA
HETATM   18  C   UNL     1      23.218  48.278  48.897  1.00  0.00     0.086 A 
HETATM   19  C   UNL     1      24.457  48.903  48.975  1.00  0.00     0.001 A 
HETATM   20  C   UNL     1      22.094  48.844  48.300  1.00  0.00     0.038 A 
HETATM   21  C   UNL     1      25.305  47.993  49.654  1.00  0.00     0.057 A 
HETATM   22  C   UNL     1      24.598  50.188  48.423  1.00  0.00     0.014 A 
HETATM   23  C   UNL     1      23.484  50.786  47.817  1.00  0.00     0.001 A 
HETATM   24  C   UNL     1      22.255  50.123  47.756  1.00  0.00     0.003 A 
ENDBRANCH   2  16
TORSDOF 3
ENDMDL
MODEL 8
REMARK VINA RESULT:      -8.1      4.591      5.627
REMARK  3 active torsions:
REMARK  status: ('A' for Active; 'I' for Inactive)
REMARK       I    between atoms: N_2  and  C_3 
REMARK    1  A    between atoms: C_3  and  C_4 
REMARK    2  A    between atoms: C_6  and  N_7 
REMARK       I    between atoms: N_7  and  C_8 
REMARK    3  A    between atoms: C_8  and  C_9 
ROOT
HETATM    1  N   UNL     1      27.998  42.076  52.106  1.00  0.00    -0.321 N 
HETATM    2  C   UNL     1      28.323  43.404  52.324  1.00  0.00     0.280 C 
HETATM    3  O   UNL     1      28.064  44.333  51.565  1.00  0.00    -0.265 OA
HETATM    4  H   UNL     1      28.327  41.439  52.824  1.00  0.00     0.169 HD
ENDROOT
BRANCH   1   5
HETATM    5  C   UNL     1      27.344  41.512  50.995  1.00  0.00     0.036 A 
HETATM    6  C   UNL     1      27.966  40.665  50.075  1.00  0.00     0.046 A 
HETATM    7  C   UNL     1      27.229  40.092  49.031  1.00  0.00     0.034 A 
HETATM    8  C   UNL     1      25.881  40.420  48.862  1.00  0.00     0.017 A 
HETATM    9  C   UNL     1      25.261  41.286  49.759  1.00  0.00     0.003 A 
HETATM   10  C   UNL     1      25.988  41.825  50.824  1.00  0.00     0.029 A 
BRANCH   7  11
HETATM   11  C   UNL     1      27.860  39.187  48.039  1.00  0.00     0.251 C 
HETATM   12  N   UNL     1      28.154  39.625  46.774  1.00  0.00    -0.361 N 
HETATM   13  C   UNL     1      28.137  40.974  46.251  1.00  0.00     0.149 C 
HETATM   14  H   UNL     1      28.555  38.900  46.190  1.00  0.00     0.162 HD
HETATM   15  O   UNL     1      28.141  38.036  48.367  1.00  0.00    -0.268 OA
ENDBRANCH   7  11
ENDBRANCH   1   5
BRANCH   2  16
HETATM   16  C   UNL     1      29.052  43.608  53.561  1.00  0.00     0.144 A 
HETATM   17  O   UNL     1      28.867  44.770  54.270  1.00  0.00    -0.304 OA
HETATM   18  C   UNL     1      29.645  44.687  55.384  1.00  0.00     0.086 A 
HETATM   19  C   UNL     1      30.337  43.482  55.405  1.00  0.00     0.001 A 
HETATM   20  C   UNL     1      29.742  45.660  56.377  1.00  0.00     0.038 A 
HETATM   21  C   UNL     1      29.953  42.797  54.225  1.00  0.00     0.057 A 
HETATM   22  C   UNL     1      31.190  43.215  56.490  1.00  0.00     0.014 A 
HETATM   23  C   UNL     1      31.307  44.174  57.506  1.00  0.00     0.001 A 
HETATM   24  C   UNL     1      30.595  45.375  57.447  1.00  0.00     0.003 A 
ENDBRANCH   2  16
TORSDOF 3
ENDMDL
MODEL 9
REMARK VINA RESULT:      -8.1      5.497      6.267
REMARK  3 active torsions:
REMARK  status: ('A' for Active; 'I' for Inactive)
REMARK       I    between atoms: N_2  and  C_3 
REMARK    1  A    between atoms: C_3  and  C_4 
REMARK    2  A    between atoms: C_6  and  N_7 
REMARK       I    between atoms: N_7  and  C_8 
REMARK    3  A    between atoms: C_8  and  C_9 
ROOT
HETATM    1  N   UNL     1      28.670  41.120  50.869  1.00  0.00    -0.321 N 
HETATM    2  C   UNL     1      27.827  41.910  51.632  1.00  0.00     0.280 C 
HETATM    3  O   UNL     1      26.630  42.079  51.422  1.00  0.00    -0.265 OA
HETATM    4  H   UNL     1      29.640  41.129  51.168  1.00  0.00     0.169 HD
ENDROOT
BRANCH   1   5
HETATM    5  C   UNL     1      28.359  40.382  49.711  1.00  0.00     0.036 A 
HETATM    6  C   UNL     1      28.076  40.962  48.474  1.00  0.00     0.046 A 
HETATM    7  C   UNL     1      27.840  40.157  47.352  1.00  0.00     0.034 A 
HETATM    8  C   UNL     1      27.818  38.765  47.481  1.00  0.00     0.017 A 
HETATM    9  C   UNL     1      28.072  38.180  48.719  1.00  0.00     0.003 A 
HETATM   10  C   UNL     1      28.347  38.985  49.827  1.00  0.00     0.029 A 
BRANCH   7  11
HETATM   11  C   UNL     1      27.539  40.743  46.023  1.00  0.00     0.251 C 
HETATM   12  N   UNL     1      26.249  41.035  45.658  1.00  0.00    -0.361 N 
HETATM   13  C   UNL     1      25.056  41.057  46.475  1.00  0.00     0.149 C 
HETATM   14  H   UNL     1      26.181  41.403  44.717  1.00  0.00     0.162 HD
HETATM   15  O   UNL     1      28.462  40.988  45.249  1.00  0.00    -0.268 OA
ENDBRANCH   7  11
ENDBRANCH   1   5
BRANCH   2  16
HETATM   16  C   UNL     1      28.513  42.571  52.725  1.00  0.00     0.144 A 
HETATM   17  O   UNL     1      28.068  43.795  53.159  1.00  0.00    -0.304 OA
HETATM   18  C   UNL     1      28.868  44.168  54.196  1.00  0.00     0.086 A 
HETATM   19  C   UNL     1      29.833  43.196  54.438  1.00  0.00     0.001 A 
HETATM   20  C   UNL     1      28.749  45.348  54.926  1.00  0.00     0.038 A 
HETATM   21  C   UNL     1      29.599  42.175  53.483  1.00  0.00     0.057 A 
HETATM   22  C   UNL     1      30.750  43.404  55.483  1.00  0.00     0.014 A 
HETATM   23  C   UNL     1      30.654  44.583  56.237  1.00  0.00     0.001 A 
HETATM   24  C   UNL     1      29.671  45.537  55.961  1.00  0.00     0.003 A 
ENDBRANCH   2  16
TORSDOF 3
ENDMDL
MODEL 10
REMARK VINA RESULT:      -7.9      2.671      3.529
REMARK  3 active torsions:
REMARK  status: ('A' for Active; 'I' for Inactive)
REMARK       I    between atoms: N_2  and  C_3 
REMARK    1  A    between atoms: C_3  and  C_4 
REMARK    2  A    between atoms: C_6  and  N_7 
REMARK       I    between atoms: N_7  and  C_8 
REMARK    3  A    between atoms: C_8  and  C_9 
ROOT
HETATM    1  N   UNL     1      27.056  42.998  52.484  1.00  0.00    -0.321 N 
HETATM    2  C   UNL     1      27.689  44.208  52.707  1.00  0.00     0.280 C 
HETATM    3  O   UNL     1      27.537  45.224  52.036  1.00  0.00    -0.265 OA
HETATM    4  H   UNL     1      27.334  42.254  53.116  1.00  0.00     0.169 HD
ENDROOT
BRANCH   1   5
HETATM    5  C   UNL     1      26.148  42.667  51.460  1.00  0.00     0.036 A 
HETATM    6  C   UNL     1      25.034  43.441  51.130  1.00  0.00     0.046 A 
HETATM    7  C   UNL     1      24.214  43.078  50.053  1.00  0.00     0.034 A 
HETATM    8  C   UNL     1      24.468  41.899  49.346  1.00  0.00     0.017 A 
HETATM    9  C   UNL     1      25.562  41.107  49.688  1.00  0.00     0.003 A 
HETATM   10  C   UNL     1      26.401  41.493  50.736  1.00  0.00     0.029 A 
BRANCH   7  11
HETATM   11  C   UNL     1      23.025  43.879  49.676  1.00  0.00     0.251 C 
HETATM   12  N   UNL     1      23.083  45.249  49.639  1.00  0.00    -0.361 N 
HETATM   13  C   UNL     1      24.240  46.113  49.719  1.00  0.00     0.149 C 
HETATM   14  H   UNL     1      22.196  45.673  49.395  1.00  0.00     0.162 HD
HETATM   15  O   UNL     1      21.982  43.304  49.373  1.00  0.00    -0.268 OA
ENDBRANCH   7  11
ENDBRANCH   1   5
BRANCH   2  16
HETATM   16  C   UNL     1      28.608  44.163  53.829  1.00  0.00     0.144 A 
HETATM   17  O   UNL     1      28.571  45.159  54.773  1.00  0.00    -0.304 OA
HETATM   18  C   UNL     1      29.510  44.857  55.711  1.00  0.00     0.086 A 
HETATM   19  C   UNL     1      30.161  43.673  55.383  1.00  0.00     0.001 A 
HETATM   20  C   UNL     1      29.789  45.613  56.848  1.00  0.00     0.038 A 
HETATM   21  C   UNL     1      29.577  43.237  54.168  1.00  0.00     0.057 A 
HETATM   22  C   UNL     1      31.164  43.196  56.245  1.00  0.00     0.014 A 
HETATM   23  C   UNL     1      31.466  43.934  57.398  1.00  0.00     0.001 A 
HETATM   24  C   UNL     1      30.791  45.122  57.692  1.00  0.00     0.003 A 
ENDBRANCH   2  16
TORSDOF 3
ENDMDL
