MODEL 1
REMARK VINA RESULT:      -8.4      0.000      0.000
REMARK  8 active torsions:
REMARK  status: ('A' for Active; 'I' for Inactive)
REMARK    1  A    between atoms: C_4  and  O_5 
REMARK    2  A    between atoms: O_5  and  C_6 
REMARK    3  A    between atoms: C_6  and  C_7 
REMARK    4  A    between atoms: C_7  and  N_8 
REMARK    5  A    between atoms: N_8  and  C_9 
REMARK    6  A    between atoms: C_10  and  C_11 
REMARK       I    between atoms: C_11  and  N_12 
REMARK    7  A    between atoms: N_12  and  C_13 
REMARK    8  A    between atoms: C_13  and  C_14 
ROOT
HETATM    1  C   UNL     1      25.660  47.825  49.728  1.00  0.00     0.024 A 
HETATM    2  C   UNL     1      24.611  48.507  49.073  1.00  0.00     0.053 A 
HETATM    3  C   UNL     1      24.891  49.647  48.296  1.00  0.00     0.019 A 
HETATM    4  C   UNL     1      26.191  50.134  48.185  1.00  0.00     0.001 A 
HETATM    5  C   UNL     1      27.227  49.490  48.852  1.00  0.00     0.002 A 
HETATM    6  C   UNL     1      26.963  48.347  49.612  1.00  0.00     0.024 A 
ENDROOT
BRANCH   1   7
HETATM    7  N   UNL     1      25.503  46.609  50.433  1.00  0.00    -0.290 NA
HETATM    8  H   UNL     1      24.777  46.029  50.012  1.00  0.00     0.127 HD
BRANCH   7   9
HETATM    9  C   UNL     1      25.273  46.745  51.888  1.00  0.00     0.119 C 
BRANCH   9  10
HETATM   10  C   UNL     1      26.458  46.280  52.746  1.00  0.00     0.190 C 
BRANCH  10  11
HETATM   11  O   UNL     1      26.738  44.895  52.528  1.00  0.00    -0.350 OA
BRANCH  11  12
HETATM   12  C   UNL     1      27.844  44.361  53.130  1.00  0.00     0.068 A 
HETATM   13  C   UNL     1      28.282  44.615  54.430  1.00  0.00     0.037 A 
HETATM   14  C   UNL     1      29.446  44.007  54.911  1.00  0.00     0.003 A 
HETATM   15  C   UNL     1      30.176  43.142  54.098  1.00  0.00     0.000 A 
HETATM   16  C   UNL     1      29.748  42.889  52.799  1.00  0.00     0.003 A 
HETATM   17  C   UNL     1      28.589  43.502  52.317  1.00  0.00     0.037 A 
ENDBRANCH  11  12
ENDBRANCH  10  11
ENDBRANCH   9  10
ENDBRANCH   7   9
ENDBRANCH   1   7
BRANCH   2  18
HETATM   18  C   UNL     1      23.168  48.145  49.191  1.00  0.00     0.253 C 
HETATM   19  N   UNL     1      22.306  49.173  49.474  1.00  0.00    -0.351 N 
HETATM   20  H   UNL     1      22.690  50.106  49.605  1.00  0.00     0.163 HD
HETATM   21  O   UNL     1      22.798  46.991  49.003  1.00  0.00    -0.268 OA
BRANCH  19  22
HETATM   22  C   UNL     1      20.878  48.987  49.490  1.00  0.00     0.187 C 
BRANCH  22  23
HETATM   23  C   UNL     1      20.221  50.293  49.249  1.00  0.00     0.070 A 
HETATM   24  O   UNL     1      19.228  50.650  50.116  1.00  0.00    -0.325 OA
HETATM   25  C   UNL     1      18.770  51.864  49.716  1.00  0.00     0.142 A 
HETATM   26  C   UNL     1      19.451  52.292  48.601  1.00  0.00     0.027 A 
HETATM   27  C   UNL     1      20.388  51.276  48.295  1.00  0.00     0.036 A 
ENDBRANCH  22  23
ENDBRANCH  19  22
ENDBRANCH   2  18
TORSDOF 8
ENDMDL
MODEL 2
REMARK VINA RESULT:      -8.4      0.554      1.108
REMARK  8 active torsions:
REMARK  status: ('A' for Active; 'I' for Inactive)
REMARK    1  A    between atoms: C_4  and  O_5 
REMARK    2  A    between atoms: O_5  and  C_6 
REMARK    3  A    between atoms: C_6  and  C_7 
REMARK    4  A    between atoms: C_7  and  N_8 
REMARK    5  A    between atoms: N_8  and  C_9 
REMARK    6  A    between atoms: C_10  and  C_11 
REMARK       I    between atoms: C_11  and  N_12 
REMARK    7  A    between atoms: N_12  and  C_13 
REMARK    8  A    between atoms: C_13  and  C_14 
ROOT
HETATM    1  C   UNL     1      25.072  47.860  49.667  1.00  0.00     0.024 A 
HETATM    2  C   UNL     1      24.057  48.571  48.988  1.00  0.00     0.053 A 
HETATM    3  C   UNL     1      24.393  49.663  48.167  1.00  0.00     0.019 A 
HETATM    4  C   UNL     1      25.716  50.077  48.033  1.00  0.00     0.001 A 
HETATM    5  C   UNL     1      26.720  49.405  48.723  1.00  0.00     0.002 A 
HETATM    6  C   UNL     1      26.400  48.308  49.528  1.00  0.00     0.024 A 
ENDROOT
BRANCH   1   7
HETATM    7  N   UNL     1      24.854  46.682  50.420  1.00  0.00    -0.290 NA
HETATM    8  H   UNL     1      23.859  46.517  50.567  1.00  0.00     0.127 HD
BRANCH   7   9
HETATM    9  C   UNL     1      25.584  46.606  51.704  1.00  0.00     0.119 C 
BRANCH   9  10
HETATM   10  C   UNL     1      26.448  45.346  51.850  1.00  0.00     0.190 C 
BRANCH  10  11
HETATM   11  O   UNL     1      26.918  45.198  53.192  1.00  0.00    -0.350 OA
BRANCH  11  12
HETATM   12  C   UNL     1      28.051  44.459  53.398  1.00  0.00     0.068 A 
HETATM   13  C   UNL     1      28.658  43.604  52.478  1.00  0.00     0.037 A 
HETATM   14  C   UNL     1      29.811  42.895  52.833  1.00  0.00     0.003 A 
HETATM   15  C   UNL     1      30.363  43.040  54.105  1.00  0.00     0.000 A 
HETATM   16  C   UNL     1      29.758  43.887  55.028  1.00  0.00     0.003 A 
HETATM   17  C   UNL     1      28.604  44.589  54.675  1.00  0.00     0.037 A 
ENDBRANCH  11  12
ENDBRANCH  10  11
ENDBRANCH   9  10
ENDBRANCH   7   9
ENDBRANCH   1   7
BRANCH   2  18
HETATM   18  C   UNL     1      22.597  48.290  49.125  1.00  0.00     0.253 C 
HETATM   19  N   UNL     1      21.832  49.299  49.650  1.00  0.00    -0.351 N 
HETATM   20  H   UNL     1      22.293  50.161  49.932  1.00  0.00     0.163 HD
HETATM   21  O   UNL     1      22.131  47.221  48.744  1.00  0.00    -0.268 OA
BRANCH  19  22
HETATM   22  C   UNL     1      20.397  49.209  49.719  1.00  0.00     0.187 C 
BRANCH  22  23
HETATM   23  C   UNL     1      19.815  50.515  49.328  1.00  0.00     0.070 A 
HETATM   24  O   UNL     1      18.748  50.955  50.058  1.00  0.00    -0.325 OA
HETATM   25  C   UNL     1      18.378  52.153  49.536  1.00  0.00     0.142 A 
HETATM   26  C   UNL     1      19.189  52.488  48.477  1.00  0.00     0.027 A 
HETATM   27  C   UNL     1      20.117  51.429  48.339  1.00  0.00     0.036 A 
ENDBRANCH  22  23
ENDBRANCH  19  22
ENDBRANCH   2  18
TORSDOF 8
ENDMDL
MODEL 3
REMARK VINA RESULT:      -8.2      1.467      8.824
REMARK  8 active torsions:
REMARK  status: ('A' for Active; 'I' for Inactive)
REMARK    1  A    between atoms: C_4  and  O_5 
REMARK    2  A    between atoms: O_5  and  C_6 
REMARK    3  A    between atoms: C_6  and  C_7 
REMARK    4  A    between atoms: C_7  and  N_8 
REMARK    5  A    between atoms: N_8  and  C_9 
REMARK    6  A    between atoms: C_10  and  C_11 
REMARK       I    between atoms: C_11  and  N_12 
REMARK    7  A    between atoms: N_12  and  C_13 
REMARK    8  A    between atoms: C_13  and  C_14 
ROOT
HETATM    1  C   UNL     1      24.719  48.439  49.352  1.00  0.00     0.024 A 
HETATM    2  C   UNL     1      25.966  47.949  49.801  1.00  0.00     0.053 A 
HETATM    3  C   UNL     1      27.157  48.573  49.385  1.00  0.00     0.019 A 
HETATM    4  C   UNL     1      27.129  49.656  48.509  1.00  0.00     0.001 A 
HETATM    5  C   UNL     1      25.909  50.126  48.035  1.00  0.00     0.002 A 
HETATM    6  C   UNL     1      24.719  49.526  48.455  1.00  0.00     0.024 A 
ENDROOT
BRANCH   1   7
HETATM    7  N   UNL     1      23.466  47.961  49.800  1.00  0.00    -0.290 NA
HETATM    8  H   UNL     1      23.580  47.234  50.507  1.00  0.00     0.127 HD
BRANCH   7   9
HETATM    9  C   UNL     1      22.544  47.506  48.737  1.00  0.00     0.119 C 
BRANCH   9  10
HETATM   10  C   UNL     1      21.240  48.313  48.663  1.00  0.00     0.190 C 
BRANCH  10  11
HETATM   11  O   UNL     1      21.301  49.464  49.508  1.00  0.00    -0.350 OA
BRANCH  11  12
HETATM   12  C   UNL     1      20.283  50.375  49.427  1.00  0.00     0.068 A 
HETATM   13  C   UNL     1      19.101  50.362  50.168  1.00  0.00     0.037 A 
HETATM   14  C   UNL     1      18.136  51.354  49.969  1.00  0.00     0.003 A 
HETATM   15  C   UNL     1      18.347  52.363  49.031  1.00  0.00     0.000 A 
HETATM   16  C   UNL     1      19.521  52.378  48.285  1.00  0.00     0.003 A 
HETATM   17  C   UNL     1      20.481  51.383  48.480  1.00  0.00     0.037 A 
ENDBRANCH  11  12
ENDBRANCH  10  11
ENDBRANCH   9  10
ENDBRANCH   7   9
ENDBRANCH   1   7
BRANCH   2  18
HETATM   18  C   UNL     1      26.136  46.740  50.659  1.00  0.00     0.253 C 
HETATM   19  N   UNL     1      25.557  46.792  51.901  1.00  0.00    -0.351 N 
HETATM   20  H   UNL     1      25.071  47.643  52.174  1.00  0.00     0.163 HD
HETATM   21  O   UNL     1      26.731  45.755  50.236  1.00  0.00    -0.268 OA
BRANCH  19  22
HETATM   22  C   UNL     1      25.536  45.651  52.779  1.00  0.00     0.187 C 
BRANCH  22  23
HETATM   23  C   UNL     1      26.731  45.696  53.654  1.00  0.00     0.070 A 
HETATM   24  O   UNL     1      27.549  44.602  53.635  1.00  0.00    -0.325 OA
HETATM   25  C   UNL     1      28.567  44.853  54.497  1.00  0.00     0.142 A 
HETATM   26  C   UNL     1      28.415  46.091  55.075  1.00  0.00     0.027 A 
HETATM   27  C   UNL     1      27.227  46.637  54.533  1.00  0.00     0.036 A 
ENDBRANCH  22  23
ENDBRANCH  19  22
ENDBRANCH   2  18
TORSDOF 8
ENDMDL
MODEL 4
REMARK VINA RESULT:      -8.2      3.459      5.683
REMARK  8 active torsions:
REMARK  status: ('A' for Active; 'I' for Inactive)
REMARK    1  A    between atoms: C_4  and  O_5 
REMARK    2  A    between atoms: O_5  and  C_6 
REMARK    3  A    between atoms: C_6  and  C_7 
REMARK    4  A    between atoms: C_7  and  N_8 
REMARK    5  A    between atoms: N_8  and  C_9 
REMARK    6  A    between atoms: C_10  and  C_11 
REMARK       I    between atoms: C_11  and  N_12 
REMARK    7  A    between atoms: N_12  and  C_13 
REMARK    8  A    between atoms: C_13  and  C_14 
ROOT
HETATM    1  C   UNL     1      27.197  43.699  52.289  1.00  0.00     0.024 A 
HETATM    2  C   UNL     1      26.033  43.538  51.504  1.00  0.00     0.053 A 
HETATM    3  C   UNL     1      25.772  42.304  50.880  1.00  0.00     0.019 A 
HETATM    4  C   UNL     1      26.662  41.239  51.000  1.00  0.00     0.001 A 
HETATM    5  C   UNL     1      27.826  41.396  51.744  1.00  0.00     0.002 A 
HETATM    6  C   UNL     1      28.088  42.612  52.382  1.00  0.00     0.024 A 
ENDROOT
BRANCH   1   7
HETATM    7  N   UNL     1      27.492  44.854  53.050  1.00  0.00    -0.290 NA
HETATM    8  H   UNL     1      28.451  45.164  52.893  1.00  0.00     0.127 HD
BRANCH   7   9
HETATM    9  C   UNL     1      27.215  44.747  54.499  1.00  0.00     0.119 C 
BRANCH   9  10
HETATM   10  C   UNL     1      27.670  45.970  55.307  1.00  0.00     0.190 C 
BRANCH  10  11
HETATM   11  O   UNL     1      29.085  46.150  55.214  1.00  0.00    -0.350 OA
BRANCH  11  12
HETATM   12  C   UNL     1      29.887  45.310  55.937  1.00  0.00     0.068 A 
HETATM   13  C   UNL     1      30.456  44.118  55.486  1.00  0.00     0.037 A 
HETATM   14  C   UNL     1      31.248  43.348  56.344  1.00  0.00     0.003 A 
HETATM   15  C   UNL     1      31.477  43.765  57.654  1.00  0.00     0.000 A 
HETATM   16  C   UNL     1      30.908  44.950  58.111  1.00  0.00     0.003 A 
HETATM   17  C   UNL     1      30.112  45.715  57.256  1.00  0.00     0.037 A 
ENDBRANCH  11  12
ENDBRANCH  10  11
ENDBRANCH   9  10
ENDBRANCH   7   9
ENDBRANCH   1   7
BRANCH   2  18
HETATM   18  C   UNL     1      25.054  44.627  51.217  1.00  0.00     0.253 C 
HETATM   19  N   UNL     1      25.577  45.807  50.753  1.00  0.00    -0.351 N 
HETATM   20  H   UNL     1      26.587  45.883  50.652  1.00  0.00     0.163 HD
HETATM   21  O   UNL     1      23.851  44.436  51.360  1.00  0.00    -0.268 OA
BRANCH  19  22
HETATM   22  C   UNL     1      24.738  46.893  50.318  1.00  0.00     0.187 C 
BRANCH  22  23
HETATM   23  C   UNL     1      25.586  47.928  49.681  1.00  0.00     0.070 A 
HETATM   24  O   UNL     1      24.943  48.873  48.933  1.00  0.00    -0.325 OA
HETATM   25  C   UNL     1      25.895  49.711  48.449  1.00  0.00     0.142 A 
HETATM   26  C   UNL     1      27.143  49.316  48.870  1.00  0.00     0.027 A 
HETATM   27  C   UNL     1      26.945  48.162  49.665  1.00  0.00     0.036 A 
ENDBRANCH  22  23
ENDBRANCH  19  22
ENDBRANCH   2  18
TORSDOF 8
ENDMDL
MODEL 5
REMARK VINA RESULT:      -8.1     11.497     14.307
REMARK  8 active torsions:
REMARK  status: ('A' for Active; 'I' for Inactive)
REMARK    1  A    between atoms: C_4  and  O_5 
REMARK    2  A    between atoms: O_5  and  C_6 
REMARK    3  A    between atoms: C_6  and  C_7 
REMARK    4  A    between atoms: C_7  and  N_8 
REMARK    5  A    between atoms: N_8  and  C_9 
REMARK    6  A    between atoms: C_10  and  C_11 
REMARK       I    between atoms: C_11  and  N_12 
REMARK    7  A    between atoms: N_12  and  C_13 
REMARK    8  A    between atoms: C_13  and  C_14 
ROOT
HETATM    1  C   UNL     1      30.909  52.369  41.204  1.00  0.00     0.024 A 
HETATM    2  C   UNL     1      31.188  52.320  39.820  1.00  0.00     0.053 A 
HETATM    3  C   UNL     1      30.133  52.355  38.889  1.00  0.00     0.019 A 
HETATM    4  C   UNL     1      28.807  52.408  39.312  1.00  0.00     0.001 A 
HETATM    5  C   UNL     1      28.519  52.423  40.672  1.00  0.00     0.002 A 
HETATM    6  C   UNL     1      29.559  52.407  41.606  1.00  0.00     0.024 A 
ENDROOT
BRANCH   1   7
HETATM    7  N   UNL     1      31.895  52.457  42.214  1.00  0.00    -0.290 NA
HETATM    8  H   UNL     1      32.831  52.504  41.812  1.00  0.00     0.127 HD
BRANCH   7   9
HETATM    9  C   UNL     1      31.833  51.409  43.255  1.00  0.00     0.119 C 
BRANCH   9  10
HETATM   10  C   UNL     1      32.388  50.052  42.799  1.00  0.00     0.190 C 
BRANCH  10  11
HETATM   11  O   UNL     1      31.344  49.083  42.681  1.00  0.00    -0.350 OA
BRANCH  11  12
HETATM   12  C   UNL     1      30.803  48.868  41.443  1.00  0.00     0.068 A 
HETATM   13  C   UNL     1      31.509  48.705  40.250  1.00  0.00     0.037 A 
HETATM   14  C   UNL     1      30.821  48.507  39.049  1.00  0.00     0.003 A 
HETATM   15  C   UNL     1      29.427  48.469  39.033  1.00  0.00     0.000 A 
HETATM   16  C   UNL     1      28.719  48.637  40.219  1.00  0.00     0.003 A 
HETATM   17  C   UNL     1      29.406  48.842  41.417  1.00  0.00     0.037 A 
ENDBRANCH  11  12
ENDBRANCH  10  11
ENDBRANCH   9  10
ENDBRANCH   7   9
ENDBRANCH   1   7
BRANCH   2  18
HETATM   18  C   UNL     1      32.555  52.163  39.242  1.00  0.00     0.253 C 
HETATM   19  N   UNL     1      33.564  52.839  39.879  1.00  0.00    -0.351 N 
HETATM   20  H   UNL     1      33.329  53.416  40.683  1.00  0.00     0.163 HD
HETATM   21  O   UNL     1      32.742  51.434  38.274  1.00  0.00    -0.268 OA
BRANCH  19  22
HETATM   22  C   UNL     1      34.945  52.676  39.504  1.00  0.00     0.187 C 
BRANCH  22  23
HETATM   23  C   UNL     1      35.660  51.980  40.600  1.00  0.00     0.070 A 
HETATM   24  O   UNL     1      35.133  52.103  41.854  1.00  0.00    -0.325 OA
HETATM   25  C   UNL     1      35.934  51.398  42.692  1.00  0.00     0.142 A 
HETATM   26  C   UNL     1      36.973  50.826  41.997  1.00  0.00     0.027 A 
HETATM   27  C   UNL     1      36.799  51.203  40.644  1.00  0.00     0.036 A 
ENDBRANCH  22  23
ENDBRANCH  19  22
ENDBRANCH   2  18
TORSDOF 8
ENDMDL
MODEL 6
REMARK VINA RESULT:      -8.0      1.854      2.717
REMARK  8 active torsions:
REMARK  status: ('A' for Active; 'I' for Inactive)
REMARK    1  A    between atoms: C_4  and  O_5 
REMARK    2  A    between atoms: O_5  and  C_6 
REMARK    3  A    between atoms: C_6  and  C_7 
REMARK    4  A    between atoms: C_7  and  N_8 
REMARK    5  A    between atoms: N_8  and  C_9 
REMARK    6  A    between atoms: C_10  and  C_11 
REMARK       I    between atoms: C_11  and  N_12 
REMARK    7  A    between atoms: N_12  and  C_13 
REMARK    8  A    between atoms: C_13  and  C_14 
ROOT
HETATM    1  C   UNL     1      25.199  48.109  49.616  1.00  0.00     0.024 A 
HETATM    2  C   UNL     1      24.892  49.221  48.800  1.00  0.00     0.053 A 
HETATM    3  C   UNL     1      25.929  50.007  48.264  1.00  0.00     0.019 A 
HETATM    4  C   UNL     1      27.262  49.722  48.549  1.00  0.00     0.001 A 
HETATM    5  C   UNL     1      27.575  48.650  49.377  1.00  0.00     0.002 A 
HETATM    6  C   UNL     1      26.554  47.852  49.901  1.00  0.00     0.024 A 
ENDROOT
BRANCH   1   7
HETATM    7  N   UNL     1      24.241  47.190  50.106  1.00  0.00    -0.290 NA
HETATM    8  H   UNL     1      23.827  47.520  50.977  1.00  0.00     0.127 HD
BRANCH   7   9
HETATM    9  C   UNL     1      24.717  45.798  50.255  1.00  0.00     0.119 C 
BRANCH   9  10
HETATM   10  C   UNL     1      24.757  45.312  51.710  1.00  0.00     0.190 C 
BRANCH  10  11
HETATM   11  O   UNL     1      26.098  45.032  52.121  1.00  0.00    -0.350 OA
BRANCH  11  12
HETATM   12  C   UNL     1      26.596  45.716  53.196  1.00  0.00     0.068 A 
HETATM   13  C   UNL     1      27.650  45.312  54.016  1.00  0.00     0.037 A 
HETATM   14  C   UNL     1      28.046  46.109  55.095  1.00  0.00     0.003 A 
HETATM   15  C   UNL     1      27.393  47.312  55.358  1.00  0.00     0.000 A 
HETATM   16  C   UNL     1      26.338  47.717  54.547  1.00  0.00     0.003 A 
HETATM   17  C   UNL     1      25.939  46.918  53.474  1.00  0.00     0.037 A 
ENDBRANCH  11  12
ENDBRANCH  10  11
ENDBRANCH   9  10
ENDBRANCH   7   9
ENDBRANCH   1   7
BRANCH   2  18
HETATM   18  C   UNL     1      23.506  49.689  48.501  1.00  0.00     0.253 C 
HETATM   19  N   UNL     1      22.624  49.681  49.550  1.00  0.00    -0.351 N 
HETATM   20  H   UNL     1      22.948  49.345  50.454  1.00  0.00     0.163 HD
HETATM   21  O   UNL     1      23.213  50.087  47.379  1.00  0.00    -0.268 OA
BRANCH  19  22
HETATM   22  C   UNL     1      21.295  50.224  49.432  1.00  0.00     0.187 C 
BRANCH  22  23
HETATM   23  C   UNL     1      20.328  49.107  49.326  1.00  0.00     0.070 A 
HETATM   24  O   UNL     1      19.087  49.316  49.856  1.00  0.00    -0.325 OA
HETATM   25  C   UNL     1      18.372  48.181  49.652  1.00  0.00     0.142 A 
HETATM   26  C   UNL     1      19.136  47.241  49.002  1.00  0.00     0.027 A 
HETATM   27  C   UNL     1      20.402  47.836  48.792  1.00  0.00     0.036 A 
ENDBRANCH  22  23
ENDBRANCH  19  22
ENDBRANCH   2  18
TORSDOF 8
ENDMDL
MODEL 7
REMARK VINA RESULT:      -7.9      2.149      9.461
REMARK  8 active torsions:
REMARK  status: ('A' for Active; 'I' for Inactive)
REMARK    1  A    between atoms: C_4  and  O_5 
REMARK    2  A    between atoms: O_5  and  C_6 
REMARK    3  A    between atoms: C_6  and  C_7 
REMARK    4  A    between atoms: C_7  and  N_8 
REMARK    5  A    between atoms: N_8  and  C_9 
REMARK    6  A    between atoms: C_10  and  C_11 
REMARK       I    between atoms: C_11  and  N_12 
REMARK    7  A    between atoms: N_12  and  C_13 
REMARK    8  A    between atoms: C_13  and  C_14 
ROOT
HETATM    1  C   UNL     1      24.681  46.499  50.863  1.00  0.00     0.024 A 
HETATM    2  C   UNL     1      25.254  45.792  51.944  1.00  0.00     0.053 A 
HETATM    3  C   UNL     1      25.149  44.389  51.999  1.00  0.00     0.019 A 
HETATM    4  C   UNL     1      24.460  43.684  51.015  1.00  0.00     0.001 A 
HETATM    5  C   UNL     1      23.865  44.373  49.965  1.00  0.00     0.002 A 
HETATM    6  C   UNL     1      23.977  45.764  49.889  1.00  0.00     0.024 A 
ENDROOT
BRANCH   1   7
HETATM    7  N   UNL     1      24.831  47.890  50.652  1.00  0.00    -0.290 NA
HETATM    8  H   UNL     1      24.045  48.409  51.044  1.00  0.00     0.127 HD
BRANCH   7   9
HETATM    9  C   UNL     1      25.068  48.297  49.250  1.00  0.00     0.119 C 
BRANCH   9  10
HETATM   10  C   UNL     1      24.303  49.561  48.835  1.00  0.00     0.190 C 
BRANCH  10  11
HETATM   11  O   UNL     1      23.332  49.920  49.821  1.00  0.00    -0.350 OA
BRANCH  11  12
HETATM   12  C   UNL     1      22.116  50.375  49.389  1.00  0.00     0.068 A 
HETATM   13  C   UNL     1      21.129  50.969  50.176  1.00  0.00     0.037 A 
HETATM   14  C   UNL     1      19.921  51.374  49.600  1.00  0.00     0.003 A 
HETATM   15  C   UNL     1      19.693  51.189  48.237  1.00  0.00     0.000 A 
HETATM   16  C   UNL     1      20.671  50.591  47.449  1.00  0.00     0.003 A 
HETATM   17  C   UNL     1      21.875  50.181  48.026  1.00  0.00     0.037 A 
ENDBRANCH  11  12
ENDBRANCH  10  11
ENDBRANCH   9  10
ENDBRANCH   7   9
ENDBRANCH   1   7
BRANCH   2  18
HETATM   18  C   UNL     1      25.930  46.436  53.108  1.00  0.00     0.253 C 
HETATM   19  N   UNL     1      26.910  45.700  53.723  1.00  0.00    -0.351 N 
HETATM   20  H   UNL     1      27.106  44.765  53.374  1.00  0.00     0.163 HD
HETATM   21  O   UNL     1      25.633  47.576  53.448  1.00  0.00    -0.268 OA
BRANCH  19  22
HETATM   22  C   UNL     1      27.727  46.249  54.774  1.00  0.00     0.187 C 
BRANCH  22  23
HETATM   23  C   UNL     1      28.834  45.306  55.063  1.00  0.00     0.070 A 
HETATM   24  O   UNL     1      29.750  45.702  55.996  1.00  0.00    -0.325 OA
HETATM   25  C   UNL     1      30.663  44.703  56.103  1.00  0.00     0.142 A 
HETATM   26  C   UNL     1      30.351  43.672  55.249  1.00  0.00     0.027 A 
HETATM   27  C   UNL     1      29.170  44.061  54.573  1.00  0.00     0.036 A 
ENDBRANCH  22  23
ENDBRANCH  19  22
ENDBRANCH   2  18
TORSDOF 8
ENDMDL
MODEL 8
REMARK VINA RESULT:      -7.9      4.052      9.588
REMARK  8 active torsions:
REMARK  status: ('A' for Active; 'I' for Inactive)
REMARK    1  A    between atoms: C_4  and  O_5 
REMARK    2  A    between atoms: O_5  and  C_6 
REMARK    3  A    between atoms: C_6  and  C_7 
REMARK    4  A    between atoms: C_7  and  N_8 
REMARK    5  A    between atoms: N_8  and  C_9 
REMARK    6  A    between atoms: C_10  and  C_11 
REMARK       I    between atoms: C_11  and  N_12 
REMARK    7  A    between atoms: N_12  and  C_13 
REMARK    8  A    between atoms: C_13  and  C_14 
ROOT
HETATM    1  C   UNL     1      19.108  49.657  49.577  1.00  0.00     0.024 A 
HETATM    2  C   UNL     1      20.387  49.938  49.045  1.00  0.00     0.053 A 
HETATM    3  C   UNL     1      20.694  51.240  48.608  1.00  0.00     0.019 A 
HETATM    4  C   UNL     1      19.744  52.257  48.664  1.00  0.00     0.001 A 
HETATM    5  C   UNL     1      18.472  51.983  49.155  1.00  0.00     0.002 A 
HETATM    6  C   UNL     1      18.160  50.698  49.609  1.00  0.00     0.024 A 
ENDROOT
BRANCH   1   7
HETATM    7  N   UNL     1      18.738  48.417  50.149  1.00  0.00    -0.290 NA
HETATM    8  H   UNL     1      19.536  47.785  50.208  1.00  0.00     0.127 HD
BRANCH   7   9
HETATM    9  C   UNL     1      17.591  47.740  49.508  1.00  0.00     0.119 C 
BRANCH   9  10
HETATM   10  C   UNL     1      17.947  47.033  48.192  1.00  0.00     0.190 C 
BRANCH  10  11
HETATM   11  O   UNL     1      17.109  47.482  47.125  1.00  0.00    -0.350 OA
BRANCH  11  12
HETATM   12  C   UNL     1      17.349  48.721  46.597  1.00  0.00     0.068 A 
HETATM   13  C   UNL     1      18.536  49.149  46.001  1.00  0.00     0.037 A 
HETATM   14  C   UNL     1      18.646  50.456  45.515  1.00  0.00     0.003 A 
HETATM   15  C   UNL     1      17.573  51.339  45.619  1.00  0.00     0.000 A 
HETATM   16  C   UNL     1      16.389  50.919  46.217  1.00  0.00     0.003 A 
HETATM   17  C   UNL     1      16.282  49.616  46.708  1.00  0.00     0.037 A 
ENDBRANCH  11  12
ENDBRANCH  10  11
ENDBRANCH   9  10
ENDBRANCH   7   9
ENDBRANCH   1   7
BRANCH   2  18
HETATM   18  C   UNL     1      21.457  48.918  48.840  1.00  0.00     0.253 C 
HETATM   19  N   UNL     1      22.591  49.069  49.595  1.00  0.00    -0.351 N 
HETATM   20  H   UNL     1      22.651  49.864  50.227  1.00  0.00     0.163 HD
HETATM   21  O   UNL     1      21.287  47.986  48.062  1.00  0.00    -0.268 OA
BRANCH  19  22
HETATM   22  C   UNL     1      23.645  48.088  49.590  1.00  0.00     0.187 C 
BRANCH  22  23
HETATM   23  C   UNL     1      24.899  48.734  49.134  1.00  0.00     0.070 A 
HETATM   24  O   UNL     1      26.068  48.208  49.607  1.00  0.00    -0.325 OA
HETATM   25  C   UNL     1      27.077  48.940  49.071  1.00  0.00     0.142 A 
HETATM   26  C   UNL     1      26.575  49.934  48.264  1.00  0.00     0.027 A 
HETATM   27  C   UNL     1      25.167  49.804  48.305  1.00  0.00     0.036 A 
ENDBRANCH  22  23
ENDBRANCH  19  22
ENDBRANCH   2  18
TORSDOF 8
ENDMDL
MODEL 9
REMARK VINA RESULT:      -7.8      4.286      7.504
REMARK  8 active torsions:
REMARK  status: ('A' for Active; 'I' for Inactive)
REMARK    1  A    between atoms: C_4  and  O_5 
REMARK    2  A    between atoms: O_5  and  C_6 
REMARK    3  A    between atoms: C_6  and  C_7 
REMARK    4  A    between atoms: C_7  and  N_8 
REMARK    5  A    between atoms: N_8  and  C_9 
REMARK    6  A    between atoms: C_10  and  C_11 
REMARK       I    between atoms: C_11  and  N_12 
REMARK    7  A    between atoms: N_12  and  C_13 
REMARK    8  A    between atoms: C_13  and  C_14 
ROOT
HETATM    1  C   UNL     1      29.319  43.856  54.475  1.00  0.00     0.024 A 
HETATM    2  C   UNL     1      28.569  44.935  54.994  1.00  0.00     0.053 A 
HETATM    3  C   UNL     1      29.069  45.681  56.078  1.00  0.00     0.019 A 
HETATM    4  C   UNL     1      30.286  45.353  56.671  1.00  0.00     0.001 A 
HETATM    5  C   UNL     1      31.017  44.273  56.189  1.00  0.00     0.002 A 
HETATM    6  C   UNL     1      30.539  43.535  55.102  1.00  0.00     0.024 A 
ENDROOT
BRANCH   1   7
HETATM    7  N   UNL     1      28.964  43.120  53.320  1.00  0.00    -0.290 NA
HETATM    8  H   UNL     1      28.330  43.653  52.724  1.00  0.00     0.127 HD
BRANCH   7   9
HETATM    9  C   UNL     1      28.421  41.768  53.572  1.00  0.00     0.119 C 
BRANCH   9  10
HETATM   10  C   UNL     1      28.897  40.713  52.563  1.00  0.00     0.190 C 
BRANCH  10  11
HETATM   11  O   UNL     1      28.127  40.770  51.360  1.00  0.00    -0.350 OA
BRANCH  11  12
HETATM   12  C   UNL     1      28.463  39.919  50.342  1.00  0.00     0.068 A 
HETATM   13  C   UNL     1      28.054  40.020  49.012  1.00  0.00     0.037 A 
HETATM   14  C   UNL     1      28.465  39.064  48.077  1.00  0.00     0.003 A 
HETATM   15  C   UNL     1      29.286  38.007  48.465  1.00  0.00     0.000 A 
HETATM   16  C   UNL     1      29.692  37.899  49.791  1.00  0.00     0.003 A 
HETATM   17  C   UNL     1      29.277  38.849  50.725  1.00  0.00     0.037 A 
ENDBRANCH  11  12
ENDBRANCH  10  11
ENDBRANCH   9  10
ENDBRANCH   7   9
ENDBRANCH   1   7
BRANCH   2  18
HETATM   18  C   UNL     1      27.211  45.325  54.513  1.00  0.00     0.253 C 
HETATM   19  N   UNL     1      27.097  46.578  53.970  1.00  0.00    -0.351 N 
HETATM   20  H   UNL     1      27.922  47.172  53.942  1.00  0.00     0.163 HD
HETATM   21  O   UNL     1      26.277  44.533  54.578  1.00  0.00    -0.268 OA
BRANCH  19  22
HETATM   22  C   UNL     1      25.877  47.033  53.353  1.00  0.00     0.187 C 
BRANCH  22  23
HETATM   23  C   UNL     1      25.955  46.783  51.895  1.00  0.00     0.070 A 
HETATM   24  O   UNL     1      26.018  47.882  51.086  1.00  0.00    -0.325 OA
HETATM   25  C   UNL     1      26.081  47.430  49.807  1.00  0.00     0.142 A 
HETATM   26  C   UNL     1      26.055  46.055  49.781  1.00  0.00     0.027 A 
HETATM   27  C   UNL     1      25.971  45.635  51.129  1.00  0.00     0.036 A 
ENDBRANCH  22  23
ENDBRANCH  19  22
ENDBRANCH   2  18
TORSDOF 8
ENDMDL
MODEL 10
REMARK VINA RESULT:      -7.7      5.488      8.115
REMARK  8 active torsions:
REMARK  status: ('A' for Active; 'I' for Inactive)
REMARK    1  A    between atoms: C_4  and  O_5 
REMARK    2  A    between atoms: O_5  and  C_6 
REMARK    3  A    between atoms: C_6  and  C_7 
REMARK    4  A    between atoms: C_7  and  N_8 
REMARK    5  A    between atoms: N_8  and  C_9 
REMARK    6  A    between atoms: C_10  and  C_11 
REMARK       I    between atoms: C_11  and  N_12 
REMARK    7  A    between atoms: N_12  and  C_13 
REMARK    8  A    between atoms: C_13  and  C_14 
ROOT
HETATM    1  C   UNL     1      30.067  44.049  55.318  1.00  0.00     0.024 A 
HETATM    2  C   UNL     1      29.450  45.202  55.853  1.00  0.00     0.053 A 
HETATM    3  C   UNL     1      29.839  45.685  57.117  1.00  0.00     0.019 A 
HETATM    4  C   UNL     1      30.808  45.023  57.868  1.00  0.00     0.001 A 
HETATM    5  C   UNL     1      31.397  43.868  57.365  1.00  0.00     0.002 A 
HETATM    6  C   UNL     1      31.032  43.390  56.104  1.00  0.00     0.024 A 
ENDROOT
BRANCH   1   7
HETATM    7  N   UNL     1      29.834  43.552  54.014  1.00  0.00    -0.290 NA
HETATM    8  H   UNL     1      29.331  44.232  53.445  1.00  0.00     0.127 HD
BRANCH   7   9
HETATM    9  C   UNL     1      29.169  42.233  53.948  1.00  0.00     0.119 C 
BRANCH   9  10
HETATM   10  C   UNL     1      28.274  42.053  52.714  1.00  0.00     0.190 C 
BRANCH  10  11
HETATM   11  O   UNL     1      28.666  40.906  51.958  1.00  0.00    -0.350 OA
BRANCH  11  12
HETATM   12  C   UNL     1      27.934  40.589  50.846  1.00  0.00     0.068 A 
HETATM   13  C   UNL     1      28.407  39.949  49.700  1.00  0.00     0.037 A 
HETATM   14  C   UNL     1      27.545  39.701  48.627  1.00  0.00     0.003 A 
HETATM   15  C   UNL     1      26.207  40.088  48.694  1.00  0.00     0.000 A 
HETATM   16  C   UNL     1      25.732  40.732  49.832  1.00  0.00     0.003 A 
HETATM   17  C   UNL     1      26.595  40.985  50.900  1.00  0.00     0.037 A 
ENDBRANCH  11  12
ENDBRANCH  10  11
ENDBRANCH   9  10
ENDBRANCH   7   9
ENDBRANCH   1   7
BRANCH   2  18
HETATM   18  C   UNL     1      28.334  45.943  55.194  1.00  0.00     0.253 C 
HETATM   19  N   UNL     1      27.264  45.189  54.787  1.00  0.00    -0.351 N 
HETATM   20  H   UNL     1      27.295  44.183  54.933  1.00  0.00     0.163 HD
HETATM   21  O   UNL     1      28.383  47.162  55.073  1.00  0.00    -0.268 OA
BRANCH  19  22
HETATM   22  C   UNL     1      26.069  45.791  54.253  1.00  0.00     0.187 C 
BRANCH  22  23
HETATM   23  C   UNL     1      25.819  45.243  52.899  1.00  0.00     0.070 A 
HETATM   24  O   UNL     1      24.637  44.586  52.710  1.00  0.00    -0.325 OA
HETATM   25  C   UNL     1      24.615  44.172  51.418  1.00  0.00     0.142 A 
HETATM   26  C   UNL     1      25.769  44.550  50.772  1.00  0.00     0.027 A 
HETATM   27  C   UNL     1      26.550  45.240  51.729  1.00  0.00     0.036 A 
ENDBRANCH  22  23
ENDBRANCH  19  22
ENDBRANCH   2  18
TORSDOF 8
ENDMDL
