MODEL 1
REMARK VINA RESULT:     -10.7      0.000      0.000
REMARK  8 active torsions:
REMARK  status: ('A' for Active; 'I' for Inactive)
REMARK    1  A    between atoms: C_8  and  N_9 
REMARK    2  A    between atoms: N_9  and  C_10 
REMARK    3  A    between atoms: N_14  and  C_15 
REMARK    4  A    between atoms: C_15  and  C_16 
REMARK    5  A    between atoms: C_28  and  N_29 
REMARK       I    between atoms: N_29  and  C_30 
REMARK    6  A    between atoms: C_30  and  O_31 
REMARK    7  A    between atoms: O_31  and  C_32 
REMARK    8  A    between atoms: C_32  and  C_33 
ROOT
HETATM    1  C   UNL     1      22.166  47.736  49.069  1.00  0.00     0.053 C 
HETATM    2  C   UNL     1      23.199  48.771  48.786  1.00  0.00    -0.002 A 
HETATM    3  C   UNL     1      24.583  48.635  48.891  1.00  0.00     0.106 A 
HETATM    4  N   UNL     1      25.155  49.820  48.530  1.00  0.00    -0.238 N 
HETATM    5  N   UNL     1      26.468  50.078  48.519  1.00  0.00    -0.161 NA
HETATM    6  C   UNL     1      27.198  49.068  48.869  1.00  0.00     0.257 A 
HETATM    7  N   UNL     1      26.756  47.820  49.213  1.00  0.00    -0.226 NA
HETATM    8  C   UNL     1      25.481  47.555  49.229  1.00  0.00     0.138 A 
HETATM    9  C   UNL     1      24.186  50.703  48.150  1.00  0.00     0.149 A 
HETATM   10  C   UNL     1      22.963  50.091  48.275  1.00  0.00     0.062 A 
ENDROOT
BRANCH   8  11
HETATM   11  N   UNL     1      25.030  46.284  49.553  1.00  0.00    -0.242 NA
HETATM   12  H   UNL     1      24.853  45.701  48.749  1.00  0.00     0.135 HD
BRANCH  11  13
HETATM   13  C   UNL     1      25.678  45.519  50.565  1.00  0.00     0.015 A 
HETATM   14  C   UNL     1      25.242  45.525  51.900  1.00  0.00     0.039 A 
HETATM   15  C   UNL     1      25.996  44.858  52.884  1.00  0.00     0.013 A 
HETATM   16  C   UNL     1      27.155  44.183  52.516  1.00  0.00     0.065 A 
HETATM   17  C   UNL     1      25.901  44.675  54.279  1.00  0.00     0.152 A 
HETATM   18  N   UNL     1      27.707  43.748  53.701  1.00  0.00    -0.265 N 
HETATM   19  C   UNL     1      27.575  44.091  51.185  1.00  0.00     0.034 A 
HETATM   20  N   UNL     1      26.936  44.000  54.783  1.00  0.00    -0.183 NA
HETATM   21  C   UNL     1      26.810  44.763  50.224  1.00  0.00     0.026 A 
BRANCH  18  22
HETATM   22  C   UNL     1      29.030  43.160  53.890  1.00  0.00     0.190 C 
BRANCH  22  23
HETATM   23  C   UNL     1      29.759  43.740  55.086  1.00  0.00    -0.035 A 
HETATM   24  C   UNL     1      30.733  43.002  55.782  1.00  0.00     0.051 A 
HETATM   25  C   UNL     1      31.367  43.553  56.891  1.00  0.00     0.117 A 
HETATM   26  F   UNL     1      32.264  42.824  57.568  1.00  0.00    -0.206 F 
HETATM   27  C   UNL     1      31.079  44.844  57.313  1.00  0.00     0.042 A 
HETATM   28  C   UNL     1      30.143  45.601  56.612  1.00  0.00     0.004 A 
HETATM   29  C   UNL     1      29.488  45.054  55.503  1.00  0.00     0.009 A 
ENDBRANCH  22  23
ENDBRANCH  18  22
ENDBRANCH  11  13
ENDBRANCH   8  11
BRANCH  10  30
HETATM   30  N   UNL     1      21.732  50.632  47.948  1.00  0.00    -0.301 N 
HETATM   31  C   UNL     1      20.819  51.112  48.840  1.00  0.00     0.365 C 
HETATM   32  O   UNL     1      20.869  51.104  50.063  1.00  0.00    -0.238 OA
HETATM   33  H   UNL     1      21.547  50.837  46.977  1.00  0.00     0.171 HD
BRANCH  31  34
HETATM   34  O   UNL     1      19.793  51.693  48.165  1.00  0.00    -0.302 OA
BRANCH  34  35
HETATM   35  C   UNL     1      18.748  50.826  47.665  1.00  0.00     0.215 C 
BRANCH  35  36
HETATM   36  C   UNL     1      17.856  50.173  48.750  1.00  0.00     0.233 C 
HETATM   37  N   UNL     1      17.709  51.067  49.974  1.00  0.00    -0.065 N 
HETATM   38  H   UNL     1      17.366  50.524  50.776  1.00  0.00     0.277 HD
HETATM   39  H   UNL     1      18.657  51.402  50.251  1.00  0.00     0.277 HD
HETATM   40  C   UNL     1      16.855  52.287  49.767  1.00  0.00     0.259 C 
HETATM   41  C   UNL     1      15.530  51.892  49.114  1.00  0.00     0.195 C 
HETATM   42  O   UNL     1      15.752  51.121  47.924  1.00  0.00    -0.387 OA
HETATM   43  C   UNL     1      16.440  49.896  48.211  1.00  0.00     0.202 C 
ENDBRANCH  35  36
ENDBRANCH  34  35
ENDBRANCH  31  34
ENDBRANCH  10  30
TORSDOF 8
ENDMDL
MODEL 2
REMARK VINA RESULT:     -10.4      2.004      3.155
REMARK  8 active torsions:
REMARK  status: ('A' for Active; 'I' for Inactive)
REMARK    1  A    between atoms: C_8  and  N_9 
REMARK    2  A    between atoms: N_9  and  C_10 
REMARK    3  A    between atoms: N_14  and  C_15 
REMARK    4  A    between atoms: C_15  and  C_16 
REMARK    5  A    between atoms: C_28  and  N_29 
REMARK       I    between atoms: N_29  and  C_30 
REMARK    6  A    between atoms: C_30  and  O_31 
REMARK    7  A    between atoms: O_31  and  C_32 
REMARK    8  A    between atoms: C_32  and  C_33 
ROOT
HETATM    1  C   UNL     1      22.537  49.672  49.430  1.00  0.00     0.053 C 
HETATM    2  C   UNL     1      21.562  48.617  49.037  1.00  0.00    -0.002 A 
HETATM    3  C   UNL     1      21.833  47.276  48.763  1.00  0.00     0.106 A 
HETATM    4  N   UNL     1      20.656  46.660  48.451  1.00  0.00    -0.238 N 
HETATM    5  N   UNL     1      20.517  45.372  48.116  1.00  0.00    -0.161 NA
HETATM    6  C   UNL     1      21.629  44.710  48.133  1.00  0.00     0.257 A 
HETATM    7  N   UNL     1      22.865  45.193  48.464  1.00  0.00    -0.226 NA
HETATM    8  C   UNL     1      23.014  46.445  48.791  1.00  0.00     0.138 A 
HETATM    9  C   UNL     1      19.627  47.550  48.561  1.00  0.00     0.149 A 
HETATM   10  C   UNL     1      20.139  48.767  48.938  1.00  0.00     0.062 A 
ENDROOT
BRANCH   8  11
HETATM   11  N   UNL     1      24.261  46.935  49.152  1.00  0.00    -0.242 NA
HETATM   12  H   UNL     1      24.254  47.912  49.403  1.00  0.00     0.135 HD
BRANCH  11  13
HETATM   13  C   UNL     1      25.090  46.213  50.059  1.00  0.00     0.015 A 
HETATM   14  C   UNL     1      25.956  45.195  49.630  1.00  0.00     0.039 A 
HETATM   15  C   UNL     1      26.654  44.425  50.580  1.00  0.00     0.013 A 
HETATM   16  C   UNL     1      26.490  44.698  51.934  1.00  0.00     0.065 A 
HETATM   17  C   UNL     1      27.551  43.337  50.538  1.00  0.00     0.152 A 
HETATM   18  N   UNL     1      27.201  43.714  52.586  1.00  0.00    -0.265 N 
HETATM   19  C   UNL     1      25.698  45.756  52.392  1.00  0.00     0.034 A 
HETATM   20  N   UNL     1      27.890  42.901  51.754  1.00  0.00    -0.183 NA
HETATM   21  C   UNL     1      25.013  46.507  51.429  1.00  0.00     0.026 A 
BRANCH  18  22
HETATM   22  C   UNL     1      27.193  43.426  54.018  1.00  0.00     0.190 C 
BRANCH  22  23
HETATM   23  C   UNL     1      28.372  44.045  54.742  1.00  0.00    -0.035 A 
HETATM   24  C   UNL     1      29.539  43.308  55.007  1.00  0.00     0.051 A 
HETATM   25  C   UNL     1      30.596  43.897  55.697  1.00  0.00     0.117 A 
HETATM   26  F   UNL     1      31.687  43.172  55.977  1.00  0.00    -0.206 F 
HETATM   27  C   UNL     1      30.533  45.222  56.106  1.00  0.00     0.042 A 
HETATM   28  C   UNL     1      29.397  45.975  55.819  1.00  0.00     0.004 A 
HETATM   29  C   UNL     1      28.323  45.391  55.139  1.00  0.00     0.009 A 
ENDBRANCH  22  23
ENDBRANCH  18  22
ENDBRANCH  11  13
ENDBRANCH   8  11
BRANCH  10  30
HETATM   30  N   UNL     1      19.420  49.921  49.199  1.00  0.00    -0.301 N 
HETATM   31  C   UNL     1      18.763  50.195  50.361  1.00  0.00     0.365 C 
HETATM   32  O   UNL     1      18.623  49.482  51.346  1.00  0.00    -0.238 OA
HETATM   33  H   UNL     1      19.509  50.692  48.552  1.00  0.00     0.171 HD
BRANCH  31  34
HETATM   34  O   UNL     1      18.288  51.467  50.321  1.00  0.00    -0.302 OA
BRANCH  34  35
HETATM   35  C   UNL     1      18.121  52.075  49.018  1.00  0.00     0.215 C 
BRANCH  35  36
HETATM   36  C   UNL     1      16.667  52.112  48.488  1.00  0.00     0.233 C 
HETATM   37  N   UNL     1      16.583  52.757  47.110  1.00  0.00    -0.065 N 
HETATM   38  H   UNL     1      15.615  53.027  46.899  1.00  0.00     0.277 HD
HETATM   39  H   UNL     1      17.122  53.649  47.133  1.00  0.00     0.277 HD
HETATM   40  C   UNL     1      17.149  51.929  45.990  1.00  0.00     0.259 C 
HETATM   41  C   UNL     1      16.588  50.508  46.055  1.00  0.00     0.195 C 
HETATM   42  O   UNL     1      16.775  49.939  47.358  1.00  0.00    -0.387 OA
HETATM   43  C   UNL     1      16.085  50.691  48.365  1.00  0.00     0.202 C 
ENDBRANCH  35  36
ENDBRANCH  34  35
ENDBRANCH  31  34
ENDBRANCH  10  30
TORSDOF 8
ENDMDL
MODEL 3
REMARK VINA RESULT:     -10.2      1.881      2.932
REMARK  8 active torsions:
REMARK  status: ('A' for Active; 'I' for Inactive)
REMARK    1  A    between atoms: C_8  and  N_9 
REMARK    2  A    between atoms: N_9  and  C_10 
REMARK    3  A    between atoms: N_14  and  C_15 
REMARK    4  A    between atoms: C_15  and  C_16 
REMARK    5  A    between atoms: C_28  and  N_29 
REMARK       I    between atoms: N_29  and  C_30 
REMARK    6  A    between atoms: C_30  and  O_31 
REMARK    7  A    between atoms: O_31  and  C_32 
REMARK    8  A    between atoms: C_32  and  C_33 
ROOT
HETATM    1  C   UNL     1      24.694  47.822  49.201  1.00  0.00     0.053 C 
HETATM    2  C   UNL     1      23.379  47.192  48.901  1.00  0.00    -0.002 A 
HETATM    3  C   UNL     1      23.126  45.844  48.645  1.00  0.00     0.106 A 
HETATM    4  N   UNL     1      21.787  45.697  48.427  1.00  0.00    -0.238 N 
HETATM    5  N   UNL     1      21.168  44.547  48.136  1.00  0.00    -0.161 NA
HETATM    6  C   UNL     1      21.964  43.527  48.096  1.00  0.00     0.257 A 
HETATM    7  N   UNL     1      23.310  43.529  48.333  1.00  0.00    -0.226 NA
HETATM    8  C   UNL     1      23.926  44.642  48.617  1.00  0.00     0.138 A 
HETATM    9  C   UNL     1      21.160  46.900  48.581  1.00  0.00     0.149 A 
HETATM   10  C   UNL     1      22.103  47.848  48.892  1.00  0.00     0.062 A 
ENDROOT
BRANCH   8  11
HETATM   11  N   UNL     1      25.287  44.646  48.882  1.00  0.00    -0.242 NA
HETATM   12  H   UNL     1      25.733  45.531  48.693  1.00  0.00     0.135 HD
BRANCH  11  13
HETATM   13  C   UNL     1      25.792  44.107  50.100  1.00  0.00     0.015 A 
HETATM   14  C   UNL     1      25.203  44.389  51.343  1.00  0.00     0.039 A 
HETATM   15  C   UNL     1      25.818  43.940  52.527  1.00  0.00     0.013 A 
HETATM   16  C   UNL     1      26.995  43.204  52.447  1.00  0.00     0.065 A 
HETATM   17  C   UNL     1      25.556  44.051  53.908  1.00  0.00     0.152 A 
HETATM   18  N   UNL     1      27.393  43.023  53.754  1.00  0.00    -0.265 N 
HETATM   19  C   UNL     1      27.567  42.837  51.224  1.00  0.00     0.034 A 
HETATM   20  N   UNL     1      26.508  43.494  54.661  1.00  0.00    -0.183 NA
HETATM   21  C   UNL     1      26.937  43.296  50.060  1.00  0.00     0.026 A 
BRANCH  18  22
HETATM   22  C   UNL     1      28.670  42.487  54.218  1.00  0.00     0.190 C 
BRANCH  22  23
HETATM   23  C   UNL     1      29.458  43.489  55.038  1.00  0.00    -0.035 A 
HETATM   24  C   UNL     1      30.611  43.111  55.749  1.00  0.00     0.051 A 
HETATM   25  C   UNL     1      31.299  44.048  56.513  1.00  0.00     0.117 A 
HETATM   26  F   UNL     1      32.373  43.666  57.216  1.00  0.00    -0.206 F 
HETATM   27  C   UNL     1      30.885  45.372  56.565  1.00  0.00     0.042 A 
HETATM   28  C   UNL     1      29.766  45.770  55.838  1.00  0.00     0.004 A 
HETATM   29  C   UNL     1      29.057  44.834  55.076  1.00  0.00     0.009 A 
ENDBRANCH  22  23
ENDBRANCH  18  22
ENDBRANCH  11  13
ENDBRANCH   8  11
BRANCH  10  30
HETATM   30  N   UNL     1      21.871  49.185  49.169  1.00  0.00    -0.301 N 
HETATM   31  C   UNL     1      22.220  50.230  48.366  1.00  0.00     0.365 C 
HETATM   32  O   UNL     1      22.843  50.209  47.313  1.00  0.00    -0.238 OA
HETATM   33  H   UNL     1      21.260  49.409  49.942  1.00  0.00     0.171 HD
BRANCH  31  34
HETATM   34  O   UNL     1      21.713  51.381  48.880  1.00  0.00    -0.302 OA
BRANCH  34  35
HETATM   35  C   UNL     1      20.478  51.290  49.629  1.00  0.00     0.215 C 
BRANCH  35  36
HETATM   36  C   UNL     1      19.246  51.939  48.951  1.00  0.00     0.233 C 
HETATM   37  N   UNL     1      19.007  51.377  47.556  1.00  0.00    -0.065 N 
HETATM   38  H   UNL     1      18.385  51.996  47.022  1.00  0.00     0.277 HD
HETATM   39  H   UNL     1      19.913  51.383  47.040  1.00  0.00     0.277 HD
HETATM   40  C   UNL     1      18.491  49.965  47.523  1.00  0.00     0.259 C 
HETATM   41  C   UNL     1      17.300  49.822  48.472  1.00  0.00     0.195 C 
HETATM   42  O   UNL     1      17.628  50.298  49.786  1.00  0.00    -0.387 OA
HETATM   43  C   UNL     1      17.967  51.691  49.772  1.00  0.00     0.202 C 
ENDBRANCH  35  36
ENDBRANCH  34  35
ENDBRANCH  31  34
ENDBRANCH  10  30
TORSDOF 8
ENDMDL
MODEL 4
REMARK VINA RESULT:     -10.2      5.319     13.766
REMARK  8 active torsions:
REMARK  status: ('A' for Active; 'I' for Inactive)
REMARK    1  A    between atoms: C_8  and  N_9 
REMARK    2  A    between atoms: N_9  and  C_10 
REMARK    3  A    between atoms: N_14  and  C_15 
REMARK    4  A    between atoms: C_15  and  C_16 
REMARK    5  A    between atoms: C_28  and  N_29 
REMARK       I    between atoms: N_29  and  C_30 
REMARK    6  A    between atoms: C_30  and  O_31 
REMARK    7  A    between atoms: O_31  and  C_32 
REMARK    8  A    between atoms: C_32  and  C_33 
ROOT
HETATM    1  C   UNL     1      19.698  51.631  49.067  1.00  0.00     0.053 C 
HETATM    2  C   UNL     1      19.215  50.222  49.069  1.00  0.00    -0.002 A 
HETATM    3  C   UNL     1      17.954  49.760  48.689  1.00  0.00     0.106 A 
HETATM    4  N   UNL     1      17.936  48.404  48.836  1.00  0.00    -0.238 N 
HETATM    5  N   UNL     1      16.890  47.609  48.582  1.00  0.00    -0.161 NA
HETATM    6  C   UNL     1      15.851  48.243  48.143  1.00  0.00     0.257 A 
HETATM    7  N   UNL     1      15.750  49.587  47.913  1.00  0.00    -0.226 NA
HETATM    8  C   UNL     1      16.759  50.373  48.156  1.00  0.00     0.138 A 
HETATM    9  C   UNL     1      19.160  47.969  49.254  1.00  0.00     0.149 A 
HETATM   10  C   UNL     1      19.986  49.058  49.394  1.00  0.00     0.062 A 
ENDROOT
BRANCH   8  11
HETATM   11  N   UNL     1      16.669  51.734  47.901  1.00  0.00    -0.242 NA
HETATM   12  H   UNL     1      16.786  51.971  46.927  1.00  0.00     0.135 HD
BRANCH  11  13
HETATM   13  C   UNL     1      15.613  52.510  48.459  1.00  0.00     0.015 A 
HETATM   14  C   UNL     1      14.870  53.421  47.692  1.00  0.00     0.039 A 
HETATM   15  C   UNL     1      13.928  54.258  48.319  1.00  0.00     0.013 A 
HETATM   16  C   UNL     1      13.731  54.156  49.692  1.00  0.00     0.065 A 
HETATM   17  C   UNL     1      13.051  55.282  47.905  1.00  0.00     0.152 A 
HETATM   18  N   UNL     1      12.851  55.170  50.004  1.00  0.00    -0.265 N 
HETATM   19  C   UNL     1      14.396  53.206  50.474  1.00  0.00     0.034 A 
HETATM   20  N   UNL     1      12.391  55.839  48.923  1.00  0.00    -0.183 NA
HETATM   21  C   UNL     1      15.329  52.384  49.828  1.00  0.00     0.026 A 
BRANCH  18  22
HETATM   22  C   UNL     1      12.472  55.624  51.339  1.00  0.00     0.190 C 
BRANCH  22  23
HETATM   23  C   UNL     1      13.527  56.507  51.974  1.00  0.00    -0.035 A 
HETATM   24  C   UNL     1      14.458  55.994  52.894  1.00  0.00     0.051 A 
HETATM   25  C   UNL     1      15.399  56.834  53.479  1.00  0.00     0.117 A 
HETATM   26  F   UNL     1      16.255  56.340  54.383  1.00  0.00    -0.206 F 
HETATM   27  C   UNL     1      15.460  58.181  53.147  1.00  0.00     0.042 A 
HETATM   28  C   UNL     1      14.568  58.698  52.210  1.00  0.00     0.004 A 
HETATM   29  C   UNL     1      13.608  57.865  51.625  1.00  0.00     0.009 A 
ENDBRANCH  22  23
ENDBRANCH  18  22
ENDBRANCH  11  13
ENDBRANCH   8  11
BRANCH  10  30
HETATM   30  N   UNL     1      21.322  49.039  49.756  1.00  0.00    -0.301 N 
HETATM   31  C   UNL     1      22.375  49.035  48.891  1.00  0.00     0.365 C 
HETATM   32  O   UNL     1      22.358  48.983  47.668  1.00  0.00    -0.238 OA
HETATM   33  H   UNL     1      21.552  49.198  50.727  1.00  0.00     0.171 HD
BRANCH  31  34
HETATM   34  O   UNL     1      23.534  49.158  49.590  1.00  0.00    -0.302 OA
BRANCH  34  35
HETATM   35  C   UNL     1      24.567  48.175  49.346  1.00  0.00     0.215 C 
BRANCH  35  36
HETATM   36  C   UNL     1      24.901  47.257  50.547  1.00  0.00     0.233 C 
HETATM   37  N   UNL     1      24.096  45.964  50.512  1.00  0.00    -0.065 N 
HETATM   38  H   UNL     1      24.111  45.507  51.431  1.00  0.00     0.277 HD
HETATM   39  H   UNL     1      23.096  46.206  50.339  1.00  0.00     0.277 HD
HETATM   40  C   UNL     1      24.506  44.993  49.440  1.00  0.00     0.259 C 
HETATM   41  C   UNL     1      26.021  44.790  49.471  1.00  0.00     0.195 C 
HETATM   42  O   UNL     1      26.711  46.047  49.421  1.00  0.00    -0.387 OA
HETATM   43  C   UNL     1      26.392  46.868  50.552  1.00  0.00     0.202 C 
ENDBRANCH  35  36
ENDBRANCH  34  35
ENDBRANCH  31  34
ENDBRANCH  10  30
TORSDOF 8
ENDMDL
MODEL 5
REMARK VINA RESULT:     -10.0      1.776      2.228
REMARK  8 active torsions:
REMARK  status: ('A' for Active; 'I' for Inactive)
REMARK    1  A    between atoms: C_8  and  N_9 
REMARK    2  A    between atoms: N_9  and  C_10 
REMARK    3  A    between atoms: N_14  and  C_15 
REMARK    4  A    between atoms: C_15  and  C_16 
REMARK    5  A    between atoms: C_28  and  N_29 
REMARK       I    between atoms: N_29  and  C_30 
REMARK    6  A    between atoms: C_30  and  O_31 
REMARK    7  A    between atoms: O_31  and  C_32 
REMARK    8  A    between atoms: C_32  and  C_33 
ROOT
HETATM    1  C   UNL     1      21.247  46.565  48.690  1.00  0.00     0.053 C 
HETATM    2  C   UNL     1      22.052  47.809  48.543  1.00  0.00    -0.002 A 
HETATM    3  C   UNL     1      23.397  47.989  48.869  1.00  0.00     0.106 A 
HETATM    4  N   UNL     1      23.738  49.276  48.570  1.00  0.00    -0.238 N 
HETATM    5  N   UNL     1      24.944  49.824  48.759  1.00  0.00    -0.161 NA
HETATM    6  C   UNL     1      25.817  49.002  49.247  1.00  0.00     0.257 A 
HETATM    7  N   UNL     1      25.618  47.684  49.552  1.00  0.00    -0.226 NA
HETATM    8  C   UNL     1      24.449  47.138  49.374  1.00  0.00     0.138 A 
HETATM    9  C   UNL     1      22.669  49.920  48.017  1.00  0.00     0.149 A 
HETATM   10  C   UNL     1      21.611  49.045  47.965  1.00  0.00     0.062 A 
ENDROOT
BRANCH   8  11
HETATM   11  N   UNL     1      24.249  45.795  49.658  1.00  0.00    -0.242 NA
HETATM   12  H   UNL     1      24.117  45.223  48.837  1.00  0.00     0.135 HD
BRANCH  11  13
HETATM   13  C   UNL     1      25.091  45.115  50.585  1.00  0.00     0.015 A 
HETATM   14  C   UNL     1      24.740  44.953  51.934  1.00  0.00     0.039 A 
HETATM   15  C   UNL     1      25.665  44.392  52.835  1.00  0.00     0.013 A 
HETATM   16  C   UNL     1      26.911  43.986  52.370  1.00  0.00     0.065 A 
HETATM   17  C   UNL     1      25.688  44.110  54.217  1.00  0.00     0.152 A 
HETATM   18  N   UNL     1      27.604  43.598  53.496  1.00  0.00    -0.265 N 
HETATM   19  C   UNL     1      27.264  44.059  51.018  1.00  0.00     0.034 A 
HETATM   20  N   UNL     1      26.863  43.626  54.626  1.00  0.00    -0.183 NA
HETATM   21  C   UNL     1      26.328  44.621  50.141  1.00  0.00     0.026 A 
BRANCH  18  22
HETATM   22  C   UNL     1      29.026  43.276  53.584  1.00  0.00     0.190 C 
BRANCH  22  23
HETATM   23  C   UNL     1      29.669  43.823  54.843  1.00  0.00    -0.035 A 
HETATM   24  C   UNL     1      30.633  43.087  55.554  1.00  0.00     0.051 A 
HETATM   25  C   UNL     1      31.188  43.606  56.721  1.00  0.00     0.117 A 
HETATM   26  F   UNL     1      32.077  42.878  57.409  1.00  0.00    -0.206 F 
HETATM   27  C   UNL     1      30.828  44.863  57.186  1.00  0.00     0.042 A 
HETATM   28  C   UNL     1      29.901  45.619  56.473  1.00  0.00     0.004 A 
HETATM   29  C   UNL     1      29.326  45.104  55.306  1.00  0.00     0.009 A 
ENDBRANCH  22  23
ENDBRANCH  18  22
ENDBRANCH  11  13
ENDBRANCH   8  11
BRANCH  10  30
HETATM   30  N   UNL     1      20.358  49.297  47.434  1.00  0.00    -0.301 N 
HETATM   31  C   UNL     1      19.647  50.448  47.600  1.00  0.00     0.365 C 
HETATM   32  O   UNL     1      19.927  51.428  48.277  1.00  0.00    -0.238 OA
HETATM   33  H   UNL     1      19.999  48.654  46.742  1.00  0.00     0.171 HD
BRANCH  31  34
HETATM   34  O   UNL     1      18.530  50.403  46.827  1.00  0.00    -0.302 OA
BRANCH  34  35
HETATM   35  C   UNL     1      18.292  49.193  46.069  1.00  0.00     0.215 C 
BRANCH  35  36
HETATM   36  C   UNL     1      16.955  48.474  46.376  1.00  0.00     0.233 C 
HETATM   37  N   UNL     1      16.970  47.025  45.905  1.00  0.00    -0.065 N 
HETATM   38  H   UNL     1      16.015  46.655  45.854  1.00  0.00     0.277 HD
HETATM   39  H   UNL     1      17.329  47.003  44.926  1.00  0.00     0.277 HD
HETATM   40  C   UNL     1      17.844  46.107  46.714  1.00  0.00     0.259 C 
HETATM   41  C   UNL     1      17.545  46.281  48.204  1.00  0.00     0.195 C 
HETATM   42  O   UNL     1      17.628  47.661  48.588  1.00  0.00    -0.387 OA
HETATM   43  C   UNL     1      16.666  48.461  47.889  1.00  0.00     0.202 C 
ENDBRANCH  35  36
ENDBRANCH  34  35
ENDBRANCH  31  34
ENDBRANCH  10  30
TORSDOF 8
ENDMDL
MODEL 6
REMARK VINA RESULT:      -9.9      2.137      3.447
REMARK  8 active torsions:
REMARK  status: ('A' for Active; 'I' for Inactive)
REMARK    1  A    between atoms: C_8  and  N_9 
REMARK    2  A    between atoms: N_9  and  C_10 
REMARK    3  A    between atoms: N_14  and  C_15 
REMARK    4  A    between atoms: C_15  and  C_16 
REMARK    5  A    between atoms: C_28  and  N_29 
REMARK       I    between atoms: N_29  and  C_30 
REMARK    6  A    between atoms: C_30  and  O_31 
REMARK    7  A    between atoms: O_31  and  C_32 
REMARK    8  A    between atoms: C_32  and  C_33 
ROOT
HETATM    1  C   UNL     1      22.311  47.945  48.968  1.00  0.00     0.053 C 
HETATM    2  C   UNL     1      21.680  46.704  48.438  1.00  0.00    -0.002 A 
HETATM    3  C   UNL     1      22.252  45.434  48.355  1.00  0.00     0.106 A 
HETATM    4  N   UNL     1      21.329  44.586  47.816  1.00  0.00    -0.238 N 
HETATM    5  N   UNL     1      21.520  43.285  47.569  1.00  0.00    -0.161 NA
HETATM    6  C   UNL     1      22.691  42.858  47.917  1.00  0.00     0.257 A 
HETATM    7  N   UNL     1      23.689  43.588  48.500  1.00  0.00    -0.226 NA
HETATM    8  C   UNL     1      23.518  44.856  48.745  1.00  0.00     0.138 A 
HETATM    9  C   UNL     1      20.162  45.258  47.592  1.00  0.00     0.149 A 
HETATM   10  C   UNL     1      20.329  46.565  47.978  1.00  0.00     0.062 A 
ENDROOT
BRANCH   8  11
HETATM   11  N   UNL     1      24.517  45.595  49.360  1.00  0.00    -0.242 NA
HETATM   12  H   UNL     1      24.208  46.498  49.688  1.00  0.00     0.135 HD
BRANCH  11  13
HETATM   13  C   UNL     1      25.369  44.999  50.334  1.00  0.00     0.015 A 
HETATM   14  C   UNL     1      24.975  44.836  51.671  1.00  0.00     0.039 A 
HETATM   15  C   UNL     1      25.901  44.363  52.621  1.00  0.00     0.013 A 
HETATM   16  C   UNL     1      27.192  44.045  52.215  1.00  0.00     0.065 A 
HETATM   17  C   UNL     1      25.887  44.111  54.008  1.00  0.00     0.152 A 
HETATM   18  N   UNL     1      27.865  43.733  53.376  1.00  0.00    -0.265 N 
HETATM   19  C   UNL     1      27.595  44.120  50.878  1.00  0.00     0.034 A 
HETATM   20  N   UNL     1      27.077  43.725  54.474  1.00  0.00    -0.183 NA
HETATM   21  C   UNL     1      26.657  44.593  49.951  1.00  0.00     0.026 A 
BRANCH  18  22
HETATM   22  C   UNL     1      29.302  43.522  53.529  1.00  0.00     0.190 C 
BRANCH  22  23
HETATM   23  C   UNL     1      29.818  43.984  54.877  1.00  0.00    -0.035 A 
HETATM   24  C   UNL     1      30.752  43.226  55.605  1.00  0.00     0.051 A 
HETATM   25  C   UNL     1      31.189  43.664  56.851  1.00  0.00     0.117 A 
HETATM   26  F   UNL     1      32.050  42.913  57.551  1.00  0.00    -0.206 F 
HETATM   27  C   UNL     1      30.739  44.864  57.386  1.00  0.00     0.042 A 
HETATM   28  C   UNL     1      29.841  45.644  56.661  1.00  0.00     0.004 A 
HETATM   29  C   UNL     1      29.384  45.208  55.412  1.00  0.00     0.009 A 
ENDBRANCH  22  23
ENDBRANCH  18  22
ENDBRANCH  11  13
ENDBRANCH   8  11
BRANCH  10  30
HETATM   30  N   UNL     1      19.369  47.562  47.953  1.00  0.00    -0.301 N 
HETATM   31  C   UNL     1      18.755  48.039  46.833  1.00  0.00     0.365 C 
HETATM   32  O   UNL     1      18.964  47.745  45.664  1.00  0.00    -0.238 OA
HETATM   33  H   UNL     1      18.969  47.858  48.833  1.00  0.00     0.171 HD
BRANCH  31  34
HETATM   34  O   UNL     1      17.773  48.906  47.193  1.00  0.00    -0.302 OA
BRANCH  34  35
HETATM   35  C   UNL     1      17.786  49.403  48.552  1.00  0.00     0.215 C 
BRANCH  35  36
HETATM   36  C   UNL     1      18.051  50.921  48.698  1.00  0.00     0.233 C 
HETATM   37  N   UNL     1      18.695  51.258  50.037  1.00  0.00    -0.065 N 
HETATM   38  H   UNL     1      18.606  52.261  50.236  1.00  0.00     0.277 HD
HETATM   39  H   UNL     1      18.156  50.777  50.789  1.00  0.00     0.277 HD
HETATM   40  C   UNL     1      20.128  50.824  50.176  1.00  0.00     0.259 C 
HETATM   41  C   UNL     1      20.932  51.281  48.958  1.00  0.00     0.195 C 
HETATM   42  O   UNL     1      20.306  50.859  47.739  1.00  0.00    -0.387 OA
HETATM   43  C   UNL     1      18.998  51.428  47.594  1.00  0.00     0.202 C 
ENDBRANCH  35  36
ENDBRANCH  34  35
ENDBRANCH  31  34
ENDBRANCH  10  30
TORSDOF 8
ENDMDL
MODEL 7
REMARK VINA RESULT:      -9.9      5.190     12.081
REMARK  8 active torsions:
REMARK  status: ('A' for Active; 'I' for Inactive)
REMARK    1  A    between atoms: C_8  and  N_9 
REMARK    2  A    between atoms: N_9  and  C_10 
REMARK    3  A    between atoms: N_14  and  C_15 
REMARK    4  A    between atoms: C_15  and  C_16 
REMARK    5  A    between atoms: C_28  and  N_29 
REMARK       I    between atoms: N_29  and  C_30 
REMARK    6  A    between atoms: C_30  and  O_31 
REMARK    7  A    between atoms: O_31  and  C_32 
REMARK    8  A    between atoms: C_32  and  C_33 
ROOT
HETATM    1  C   UNL     1      24.192  47.057  49.483  1.00  0.00     0.053 C 
HETATM    2  C   UNL     1      23.787  45.641  49.255  1.00  0.00    -0.002 A 
HETATM    3  C   UNL     1      22.876  45.163  48.313  1.00  0.00     0.106 A 
HETATM    4  N   UNL     1      22.807  43.807  48.439  1.00  0.00    -0.238 N 
HETATM    5  N   UNL     1      22.026  42.998  47.713  1.00  0.00    -0.161 NA
HETATM    6  C   UNL     1      21.324  43.619  46.820  1.00  0.00     0.257 A 
HETATM    7  N   UNL     1      21.329  44.962  46.564  1.00  0.00    -0.226 NA
HETATM    8  C   UNL     1      22.083  45.761  47.264  1.00  0.00     0.138 A 
HETATM    9  C   UNL     1      23.679  43.388  49.401  1.00  0.00     0.149 A 
HETATM   10  C   UNL     1      24.319  44.487  49.920  1.00  0.00     0.062 A 
ENDROOT
BRANCH   8  11
HETATM   11  N   UNL     1      22.110  47.121  46.991  1.00  0.00    -0.242 NA
HETATM   12  H   UNL     1      21.913  47.344  46.027  1.00  0.00     0.135 HD
BRANCH  11  13
HETATM   13  C   UNL     1      21.441  48.047  47.842  1.00  0.00     0.015 A 
HETATM   14  C   UNL     1      20.507  47.635  48.806  1.00  0.00     0.039 A 
HETATM   15  C   UNL     1      19.778  48.598  49.529  1.00  0.00     0.013 A 
HETATM   16  C   UNL     1      20.007  49.949  49.291  1.00  0.00     0.065 A 
HETATM   17  C   UNL     1      18.770  48.572  50.515  1.00  0.00     0.152 A 
HETATM   18  N   UNL     1      19.072  50.611  50.056  1.00  0.00    -0.265 N 
HETATM   19  C   UNL     1      20.985  50.394  48.395  1.00  0.00     0.034 A 
HETATM   20  N   UNL     1      18.337  49.792  50.842  1.00  0.00    -0.183 NA
HETATM   21  C   UNL     1      21.698  49.418  47.688  1.00  0.00     0.026 A 
BRANCH  18  22
HETATM   22  C   UNL     1      18.753  52.035  50.016  1.00  0.00     0.190 C 
BRANCH  22  23
HETATM   23  C   UNL     1      17.439  52.319  49.316  1.00  0.00    -0.035 A 
HETATM   24  C   UNL     1      16.345  52.874  50.004  1.00  0.00     0.051 A 
HETATM   25  C   UNL     1      15.144  53.100  49.339  1.00  0.00     0.117 A 
HETATM   26  F   UNL     1      14.098  53.593  50.015  1.00  0.00    -0.206 F 
HETATM   27  C   UNL     1      15.009  52.814  47.987  1.00  0.00     0.042 A 
HETATM   28  C   UNL     1      16.095  52.297  47.284  1.00  0.00     0.004 A 
HETATM   29  C   UNL     1      17.304  52.053  47.944  1.00  0.00     0.009 A 
ENDBRANCH  22  23
ENDBRANCH  18  22
ENDBRANCH  11  13
ENDBRANCH   8  11
BRANCH  10  30
HETATM   30  N   UNL     1      25.310  44.486  50.886  1.00  0.00    -0.301 N 
HETATM   31  C   UNL     1      26.648  44.580  50.644  1.00  0.00     0.365 C 
HETATM   32  O   UNL     1      27.229  44.618  49.567  1.00  0.00    -0.238 OA
HETATM   33  H   UNL     1      25.030  44.580  51.852  1.00  0.00     0.171 HD
BRANCH  31  34
HETATM   34  O   UNL     1      27.313  44.690  51.824  1.00  0.00    -0.302 OA
BRANCH  34  35
HETATM   35  C   UNL     1      28.040  43.529  52.291  1.00  0.00     0.215 C 
BRANCH  35  36
HETATM   36  C   UNL     1      27.764  43.123  53.759  1.00  0.00     0.233 C 
HETATM   37  N   UNL     1      28.983  42.481  54.408  1.00  0.00    -0.065 N 
HETATM   38  H   UNL     1      28.712  41.973  55.257  1.00  0.00     0.277 HD
HETATM   39  H   UNL     1      29.357  41.756  53.758  1.00  0.00     0.277 HD
HETATM   40  C   UNL     1      30.113  43.429  54.705  1.00  0.00     0.259 C 
HETATM   41  C   UNL     1      29.582  44.659  55.443  1.00  0.00     0.195 C 
HETATM   42  O   UNL     1      28.487  45.254  54.731  1.00  0.00    -0.387 OA
HETATM   43  C   UNL     1      27.382  44.348  54.611  1.00  0.00     0.202 C 
ENDBRANCH  35  36
ENDBRANCH  34  35
ENDBRANCH  31  34
ENDBRANCH  10  30
TORSDOF 8
ENDMDL
MODEL 8
REMARK VINA RESULT:      -9.8      5.097     11.682
REMARK  8 active torsions:
REMARK  status: ('A' for Active; 'I' for Inactive)
REMARK    1  A    between atoms: C_8  and  N_9 
REMARK    2  A    between atoms: N_9  and  C_10 
REMARK    3  A    between atoms: N_14  and  C_15 
REMARK    4  A    between atoms: C_15  and  C_16 
REMARK    5  A    between atoms: C_28  and  N_29 
REMARK       I    between atoms: N_29  and  C_30 
REMARK    6  A    between atoms: C_30  and  O_31 
REMARK    7  A    between atoms: O_31  and  C_32 
REMARK    8  A    between atoms: C_32  and  C_33 
ROOT
HETATM    1  C   UNL     1      23.537  46.173  49.434  1.00  0.00     0.053 C 
HETATM    2  C   UNL     1      24.730  47.061  49.511  1.00  0.00    -0.002 A 
HETATM    3  C   UNL     1      24.918  48.282  48.862  1.00  0.00     0.106 A 
HETATM    4  N   UNL     1      26.145  48.766  49.214  1.00  0.00    -0.238 N 
HETATM    5  N   UNL     1      26.683  49.910  48.779  1.00  0.00    -0.161 NA
HETATM    6  C   UNL     1      25.913  50.574  47.978  1.00  0.00     0.257 A 
HETATM    7  N   UNL     1      24.653  50.224  47.578  1.00  0.00    -0.226 NA
HETATM    8  C   UNL     1      24.116  49.112  47.993  1.00  0.00     0.138 A 
HETATM    9  C   UNL     1      26.734  47.919  50.108  1.00  0.00     0.149 A 
HETATM   10  C   UNL     1      25.888  46.861  50.333  1.00  0.00     0.062 A 
ENDROOT
BRANCH   8  11
HETATM   11  N   UNL     1      22.829  48.765  47.610  1.00  0.00    -0.242 NA
HETATM   12  H   UNL     1      22.682  47.769  47.545  1.00  0.00     0.135 HD
BRANCH  11  13
HETATM   13  C   UNL     1      21.698  49.377  48.224  1.00  0.00     0.015 A 
HETATM   14  C   UNL     1      21.060  48.816  49.341  1.00  0.00     0.039 A 
HETATM   15  C   UNL     1      19.869  49.388  49.827  1.00  0.00     0.013 A 
HETATM   16  C   UNL     1      19.349  50.516  49.202  1.00  0.00     0.065 A 
HETATM   17  C   UNL     1      18.959  49.100  50.864  1.00  0.00     0.152 A 
HETATM   18  N   UNL     1      18.146  50.751  49.830  1.00  0.00    -0.265 N 
HETATM   19  C   UNL     1      20.000  51.147  48.136  1.00  0.00     0.034 A 
HETATM   20  N   UNL     1      17.909  49.925  50.874  1.00  0.00    -0.183 NA
HETATM   21  C   UNL     1      21.184  50.560  47.671  1.00  0.00     0.026 A 
BRANCH  18  22
HETATM   22  C   UNL     1      17.111  51.697  49.422  1.00  0.00     0.190 C 
BRANCH  22  23
HETATM   23  C   UNL     1      16.362  51.243  48.185  1.00  0.00    -0.035 A 
HETATM   24  C   UNL     1      16.066  52.132  47.137  1.00  0.00     0.051 A 
HETATM   25  C   UNL     1      15.355  51.691  46.025  1.00  0.00     0.117 A 
HETATM   26  F   UNL     1      15.047  52.557  45.052  1.00  0.00    -0.206 F 
HETATM   27  C   UNL     1      14.953  50.366  45.913  1.00  0.00     0.042 A 
HETATM   28  C   UNL     1      15.270  49.465  46.927  1.00  0.00     0.004 A 
HETATM   29  C   UNL     1      15.973  49.899  48.056  1.00  0.00     0.009 A 
ENDBRANCH  22  23
ENDBRANCH  18  22
ENDBRANCH  11  13
ENDBRANCH   8  11
BRANCH  10  30
HETATM   30  N   UNL     1      26.096  45.809  51.207  1.00  0.00    -0.301 N 
HETATM   31  C   UNL     1      26.771  44.661  50.914  1.00  0.00     0.365 C 
HETATM   32  O   UNL     1      27.253  44.311  49.845  1.00  0.00    -0.238 OA
HETATM   33  H   UNL     1      25.876  45.951  52.183  1.00  0.00     0.171 HD
BRANCH  31  34
HETATM   34  O   UNL     1      26.904  43.916  52.042  1.00  0.00    -0.302 OA
BRANCH  34  35
HETATM   35  C   UNL     1      27.941  44.300  52.976  1.00  0.00     0.215 C 
BRANCH  35  36
HETATM   36  C   UNL     1      27.499  44.373  54.459  1.00  0.00     0.233 C 
HETATM   37  N   UNL     1      28.395  45.300  55.270  1.00  0.00    -0.065 N 
HETATM   38  H   UNL     1      28.275  45.126  56.275  1.00  0.00     0.277 HD
HETATM   39  H   UNL     1      29.388  45.061  55.063  1.00  0.00     0.277 HD
HETATM   40  C   UNL     1      28.224  46.764  54.972  1.00  0.00     0.259 C 
HETATM   41  C   UNL     1      26.740  47.135  55.004  1.00  0.00     0.195 C 
HETATM   42  O   UNL     1      25.975  46.268  54.155  1.00  0.00    -0.387 OA
HETATM   43  C   UNL     1      26.058  44.903  54.583  1.00  0.00     0.202 C 
ENDBRANCH  35  36
ENDBRANCH  34  35
ENDBRANCH  31  34
ENDBRANCH  10  30
TORSDOF 8
ENDMDL
MODEL 9
REMARK VINA RESULT:      -9.8      5.781     11.863
REMARK  8 active torsions:
REMARK  status: ('A' for Active; 'I' for Inactive)
REMARK    1  A    between atoms: C_8  and  N_9 
REMARK    2  A    between atoms: N_9  and  C_10 
REMARK    3  A    between atoms: N_14  and  C_15 
REMARK    4  A    between atoms: C_15  and  C_16 
REMARK    5  A    between atoms: C_28  and  N_29 
REMARK       I    between atoms: N_29  and  C_30 
REMARK    6  A    between atoms: C_30  and  O_31 
REMARK    7  A    between atoms: O_31  and  C_32 
REMARK    8  A    between atoms: C_32  and  C_33 
ROOT
HETATM    1  C   UNL     1      26.834  44.190  49.639  1.00  0.00     0.053 C 
HETATM    2  C   UNL     1      26.778  44.293  51.124  1.00  0.00    -0.002 A 
HETATM    3  C   UNL     1      26.395  45.401  51.881  1.00  0.00     0.106 A 
HETATM    4  N   UNL     1      26.480  45.064  53.200  1.00  0.00    -0.238 N 
HETATM    5  N   UNL     1      26.205  45.875  54.229  1.00  0.00    -0.161 NA
HETATM    6  C   UNL     1      25.810  47.054  53.868  1.00  0.00     0.257 A 
HETATM    7  N   UNL     1      25.644  47.505  52.588  1.00  0.00    -0.226 NA
HETATM    8  C   UNL     1      25.909  46.727  51.577  1.00  0.00     0.138 A 
HETATM    9  C   UNL     1      26.859  43.758  53.319  1.00  0.00     0.149 A 
HETATM   10  C   UNL     1      27.037  43.238  52.061  1.00  0.00     0.062 A 
ENDROOT
BRANCH   8  11
HETATM   11  N   UNL     1      25.718  47.172  50.277  1.00  0.00    -0.242 NA
HETATM   12  H   UNL     1      26.319  46.720  49.604  1.00  0.00     0.135 HD
BRANCH  11  13
HETATM   13  C   UNL     1      24.406  47.301  49.738  1.00  0.00     0.015 A 
HETATM   14  C   UNL     1      23.594  46.187  49.474  1.00  0.00     0.039 A 
HETATM   15  C   UNL     1      22.360  46.360  48.819  1.00  0.00     0.013 A 
HETATM   16  C   UNL     1      21.953  47.640  48.458  1.00  0.00     0.065 A 
HETATM   17  C   UNL     1      21.326  45.514  48.369  1.00  0.00     0.152 A 
HETATM   18  N   UNL     1      20.786  47.457  47.747  1.00  0.00    -0.265 N 
HETATM   19  C   UNL     1      22.700  48.780  48.775  1.00  0.00     0.034 A 
HETATM   20  N   UNL     1      20.364  46.173  47.719  1.00  0.00    -0.183 NA
HETATM   21  C   UNL     1      23.924  48.582  49.427  1.00  0.00     0.026 A 
BRANCH  18  22
HETATM   22  C   UNL     1      20.061  48.463  46.976  1.00  0.00     0.190 C 
BRANCH  22  23
HETATM   23  C   UNL     1      19.662  49.662  47.813  1.00  0.00    -0.035 A 
HETATM   24  C   UNL     1      18.619  49.587  48.754  1.00  0.00     0.051 A 
HETATM   25  C   UNL     1      18.260  50.712  49.490  1.00  0.00     0.117 A 
HETATM   26  F   UNL     1      17.240  50.638  50.354  1.00  0.00    -0.206 F 
HETATM   27  C   UNL     1      18.938  51.914  49.337  1.00  0.00     0.042 A 
HETATM   28  C   UNL     1      19.997  51.994  48.435  1.00  0.00     0.004 A 
HETATM   29  C   UNL     1      20.359  50.874  47.679  1.00  0.00     0.009 A 
ENDBRANCH  22  23
ENDBRANCH  18  22
ENDBRANCH  11  13
ENDBRANCH   8  11
BRANCH  10  30
HETATM   30  N   UNL     1      27.379  41.934  51.748  1.00  0.00    -0.301 N 
HETATM   31  C   UNL     1      28.564  41.334  52.052  1.00  0.00     0.365 C 
HETATM   32  O   UNL     1      29.553  41.822  52.583  1.00  0.00    -0.238 OA
HETATM   33  H   UNL     1      26.650  41.321  51.409  1.00  0.00     0.171 HD
BRANCH  31  34
HETATM   34  O   UNL     1      28.501  40.017  51.723  1.00  0.00    -0.302 OA
BRANCH  34  35
HETATM   35  C   UNL     1      28.560  39.679  50.317  1.00  0.00     0.215 C 
BRANCH  35  36
HETATM   36  C   UNL     1      29.119  38.270  50.000  1.00  0.00     0.233 C 
HETATM   37  N   UNL     1      28.170  37.169  50.457  1.00  0.00    -0.065 N 
HETATM   38  H   UNL     1      28.661  36.268  50.502  1.00  0.00     0.277 HD
HETATM   39  H   UNL     1      27.877  37.375  51.437  1.00  0.00     0.277 HD
HETATM   40  C   UNL     1      26.914  37.038  49.641  1.00  0.00     0.259 C 
HETATM   41  C   UNL     1      27.261  36.992  48.152  1.00  0.00     0.195 C 
HETATM   42  O   UNL     1      28.090  38.102  47.782  1.00  0.00    -0.387 OA
HETATM   43  C   UNL     1      29.338  38.087  48.487  1.00  0.00     0.202 C 
ENDBRANCH  35  36
ENDBRANCH  34  35
ENDBRANCH  31  34
ENDBRANCH  10  30
TORSDOF 8
ENDMDL
MODEL 10
REMARK VINA RESULT:      -9.7      3.854      5.203
REMARK  8 active torsions:
REMARK  status: ('A' for Active; 'I' for Inactive)
REMARK    1  A    between atoms: C_8  and  N_9 
REMARK    2  A    between atoms: N_9  and  C_10 
REMARK    3  A    between atoms: N_14  and  C_15 
REMARK    4  A    between atoms: C_15  and  C_16 
REMARK    5  A    between atoms: C_28  and  N_29 
REMARK       I    between atoms: N_29  and  C_30 
REMARK    6  A    between atoms: C_30  and  O_31 
REMARK    7  A    between atoms: O_31  and  C_32 
REMARK    8  A    between atoms: C_32  and  C_33 
ROOT
HETATM    1  C   UNL     1      23.529  44.879  48.252  1.00  0.00     0.053 C 
HETATM    2  C   UNL     1      22.588  46.019  48.432  1.00  0.00    -0.002 A 
HETATM    3  C   UNL     1      22.896  47.310  48.863  1.00  0.00     0.106 A 
HETATM    4  N   UNL     1      21.743  48.040  48.878  1.00  0.00    -0.238 N 
HETATM    5  N   UNL     1      21.639  49.321  49.250  1.00  0.00    -0.161 NA
HETATM    6  C   UNL     1      22.767  49.855  49.590  1.00  0.00     0.257 A 
HETATM    7  N   UNL     1      23.994  49.251  49.583  1.00  0.00    -0.226 NA
HETATM    8  C   UNL     1      24.110  48.005  49.223  1.00  0.00     0.138 A 
HETATM    9  C   UNL     1      20.708  47.275  48.424  1.00  0.00     0.149 A 
HETATM   10  C   UNL     1      21.188  46.024  48.120  1.00  0.00     0.062 A 
ENDROOT
BRANCH   8  11
HETATM   11  N   UNL     1      25.356  47.395  49.190  1.00  0.00    -0.242 NA
HETATM   12  H   UNL     1      26.120  48.043  49.070  1.00  0.00     0.135 HD
BRANCH  11  13
HETATM   13  C   UNL     1      25.710  46.412  50.159  1.00  0.00     0.015 A 
HETATM   14  C   UNL     1      25.055  46.311  51.396  1.00  0.00     0.039 A 
HETATM   15  C   UNL     1      25.530  45.412  52.368  1.00  0.00     0.013 A 
HETATM   16  C   UNL     1      26.635  44.617  52.081  1.00  0.00     0.065 A 
HETATM   17  C   UNL     1      25.171  45.066  53.687  1.00  0.00     0.152 A 
HETATM   18  N   UNL     1      26.909  43.949  53.255  1.00  0.00    -0.265 N 
HETATM   19  C   UNL     1      27.263  44.634  50.831  1.00  0.00     0.034 A 
HETATM   20  N   UNL     1      26.004  44.176  54.233  1.00  0.00    -0.183 NA
HETATM   21  C   UNL     1      26.772  45.538  49.880  1.00  0.00     0.026 A 
BRANCH  18  22
HETATM   22  C   UNL     1      28.089  43.141  53.550  1.00  0.00     0.190 C 
BRANCH  22  23
HETATM   23  C   UNL     1      29.017  43.808  54.546  1.00  0.00    -0.035 A 
HETATM   24  C   UNL     1      30.116  43.125  55.097  1.00  0.00     0.051 A 
HETATM   25  C   UNL     1      30.936  43.756  56.028  1.00  0.00     0.117 A 
HETATM   26  F   UNL     1      31.955  43.082  56.574  1.00  0.00    -0.206 F 
HETATM   27  C   UNL     1      30.708  45.073  56.405  1.00  0.00     0.042 A 
HETATM   28  C   UNL     1      29.645  45.774  55.841  1.00  0.00     0.004 A 
HETATM   29  C   UNL     1      28.805  45.146  54.914  1.00  0.00     0.009 A 
ENDBRANCH  22  23
ENDBRANCH  18  22
ENDBRANCH  11  13
ENDBRANCH   8  11
BRANCH  10  30
HETATM   30  N   UNL     1      20.466  44.969  47.589  1.00  0.00    -0.301 N 
HETATM   31  C   UNL     1      19.119  44.796  47.708  1.00  0.00     0.365 C 
HETATM   32  O   UNL     1      18.315  45.472  48.335  1.00  0.00    -0.238 OA
HETATM   33  H   UNL     1      20.932  44.359  46.932  1.00  0.00     0.171 HD
BRANCH  31  34
HETATM   34  O   UNL     1      18.733  43.738  46.948  1.00  0.00    -0.302 OA
BRANCH  34  35
HETATM   35  C   UNL     1      18.919  43.841  45.517  1.00  0.00     0.215 C 
BRANCH  35  36
HETATM   36  C   UNL     1      19.551  42.598  44.842  1.00  0.00     0.233 C 
HETATM   37  N   UNL     1      20.348  42.973  43.599  1.00  0.00    -0.065 N 
HETATM   38  H   UNL     1      20.517  42.145  43.017  1.00  0.00     0.277 HD
HETATM   39  H   UNL     1      19.763  43.609  43.014  1.00  0.00     0.277 HD
HETATM   40  C   UNL     1      21.640  43.692  43.870  1.00  0.00     0.259 C 
HETATM   41  C   UNL     1      22.445  42.938  44.930  1.00  0.00     0.195 C 
HETATM   42  O   UNL     1      21.653  42.692  46.100  1.00  0.00    -0.387 OA
HETATM   43  C   UNL     1      20.513  41.874  45.802  1.00  0.00     0.202 C 
ENDBRANCH  35  36
ENDBRANCH  34  35
ENDBRANCH  31  34
ENDBRANCH  10  30
TORSDOF 8
ENDMDL
