MODEL 1
REMARK VINA RESULT:      -9.8      0.000      0.000
REMARK  7 active torsions:
REMARK  status: ('A' for Active; 'I' for Inactive)
REMARK    1  A    between atoms: C_2  and  O_3 
REMARK    2  A    between atoms: O_3  and  C_4 
REMARK    3  A    between atoms: C_4  and  C_5 
REMARK    4  A    between atoms: C_8  and  N_9 
REMARK       I    between atoms: N_9  and  C_10 
REMARK    5  A    between atoms: C_10  and  C_11 
REMARK    6  A    between atoms: C_11  and  N_12 
REMARK    7  A    between atoms: C_18  and  C_19 
ROOT
HETATM    1  N   UNL     1      26.704  44.412  50.688  1.00  0.00    -0.063 N 
HETATM    2  H   UNL     1      27.306  44.628  51.494  1.00  0.00     0.280 HD
HETATM    3  C   UNL     1      27.044  45.457  49.634  1.00  0.00     0.240 C 
HETATM    4  C   UNL     1      26.291  46.758  49.811  1.00  0.00     0.083 C 
HETATM    5  C   UNL     1      24.806  46.511  50.034  1.00  0.00     0.131 A 
HETATM    6  N   UNL     1      24.120  47.815  50.196  1.00  0.00    -0.251 NA
HETATM    7  C   UNL     1      23.165  47.856  49.302  1.00  0.00     0.132 A 
HETATM    8  C   UNL     1      23.144  46.606  48.448  1.00  0.00     0.272 A 
HETATM    9  O   UNL     1      22.385  46.318  47.556  1.00  0.00    -0.266 OA
HETATM   10  N   UNL     1      24.179  45.868  48.924  1.00  0.00    -0.327 N 
HETATM   11  C   UNL     1      24.646  45.734  51.334  1.00  0.00     0.083 C 
HETATM   12  C   UNL     1      25.286  44.369  51.231  1.00  0.00     0.240 C 
HETATM   13  H   UNL     1      24.390  44.957  48.516  1.00  0.00     0.165 HD
ENDROOT
BRANCH   1  14
HETATM   14  C   UNL     1      27.118  42.984  50.199  1.00  0.00     0.337 C 
BRANCH  14  15
HETATM   15  C   UNL     1      26.630  41.848  51.115  1.00  0.00     0.248 C 
HETATM   16  N   UNL     1      27.013  41.720  52.409  1.00  0.00    -0.326 N 
HETATM   17  H   UNL     1      26.531  40.935  52.844  1.00  0.00     0.169 HD
HETATM   18  O   UNL     1      25.813  41.017  50.691  1.00  0.00    -0.271 OA
BRANCH  16  19
HETATM   19  C   UNL     1      27.858  42.438  53.271  1.00  0.00     0.034 A 
HETATM   20  C   UNL     1      27.469  43.444  54.153  1.00  0.00     0.030 A 
HETATM   21  C   UNL     1      28.419  44.056  54.988  1.00  0.00     0.020 A 
HETATM   22  C   UNL     1      29.766  43.677  54.948  1.00  0.00     0.039 A 
HETATM   23  C   UNL     1      30.163  42.692  54.043  1.00  0.00     0.020 A 
HETATM   24  C   UNL     1      29.216  42.086  53.213  1.00  0.00     0.030 A 
BRANCH  22  25
HETATM   25  C   UNL     1      30.724  44.343  55.873  1.00  0.00     0.293 C 
HETATM   26  O   UNL     1      31.720  43.790  56.308  1.00  0.00    -0.259 OA
BRANCH  25  27
HETATM   27  O   UNL     1      30.332  45.616  56.112  1.00  0.00    -0.318 OA
BRANCH  27  28
HETATM   28  C   UNL     1      30.274  46.014  57.491  1.00  0.00     0.174 C 
HETATM   29  C   UNL     1      28.828  46.168  57.920  1.00  0.00     0.034 C 
ENDBRANCH  27  28
ENDBRANCH  25  27
ENDBRANCH  22  25
ENDBRANCH  16  19
ENDBRANCH  14  15
ENDBRANCH   1  14
BRANCH   7  30
HETATM   30  C   UNL     1      22.224  48.986  49.155  1.00  0.00    -0.001 A 
HETATM   31  C   UNL     1      20.849  48.852  49.372  1.00  0.00     0.037 A 
HETATM   32  C   UNL     1      20.010  49.960  49.229  1.00  0.00     0.035 A 
HETATM   33 CL   UNL     1      18.319  49.788  49.501  1.00  0.00    -0.084 Cl
HETATM   34  C   UNL     1      20.526  51.202  48.868  1.00  0.00     0.024 A 
HETATM   35  C   UNL     1      21.894  51.341  48.645  1.00  0.00     0.003 A 
HETATM   36  C   UNL     1      22.740  50.239  48.788  1.00  0.00     0.014 A 
ENDBRANCH   7  30
TORSDOF 7
ENDMDL
MODEL 2
REMARK VINA RESULT:      -9.6      3.437      9.893
REMARK  7 active torsions:
REMARK  status: ('A' for Active; 'I' for Inactive)
REMARK    1  A    between atoms: C_2  and  O_3 
REMARK    2  A    between atoms: O_3  and  C_4 
REMARK    3  A    between atoms: C_4  and  C_5 
REMARK    4  A    between atoms: C_8  and  N_9 
REMARK       I    between atoms: N_9  and  C_10 
REMARK    5  A    between atoms: C_10  and  C_11 
REMARK    6  A    between atoms: C_11  and  N_12 
REMARK    7  A    between atoms: C_18  and  C_19 
ROOT
HETATM    1  N   UNL     1      24.573  44.363  48.648  1.00  0.00    -0.063 N 
HETATM    2  H   UNL     1      25.032  44.387  47.727  1.00  0.00     0.280 HD
HETATM    3  C   UNL     1      24.958  45.669  49.328  1.00  0.00     0.240 C 
HETATM    4  C   UNL     1      26.299  45.613  50.027  1.00  0.00     0.083 C 
HETATM    5  C   UNL     1      26.421  44.364  50.888  1.00  0.00     0.131 A 
HETATM    6  N   UNL     1      27.748  44.363  51.550  1.00  0.00    -0.251 NA
HETATM    7  C   UNL     1      27.530  44.262  52.837  1.00  0.00     0.132 A 
HETATM    8  C   UNL     1      26.050  44.216  53.153  1.00  0.00     0.272 A 
HETATM    9  O   UNL     1      25.515  44.105  54.228  1.00  0.00    -0.266 OA
HETATM   10  N   UNL     1      25.454  44.320  51.938  1.00  0.00    -0.327 N 
HETATM   11  C   UNL     1      26.354  43.149  49.973  1.00  0.00     0.083 C 
HETATM   12  C   UNL     1      25.008  43.058  49.293  1.00  0.00     0.240 C 
HETATM   13  H   UNL     1      24.436  44.313  51.864  1.00  0.00     0.165 HD
ENDROOT
BRANCH   1  14
HETATM   14  C   UNL     1      23.033  44.320  48.372  1.00  0.00     0.337 C 
BRANCH  14  15
HETATM   15  C   UNL     1      22.633  44.882  46.995  1.00  0.00     0.248 C 
HETATM   16  N   UNL     1      21.815  45.951  46.838  1.00  0.00    -0.326 N 
HETATM   17  H   UNL     1      21.728  46.186  45.850  1.00  0.00     0.169 HD
HETATM   18  O   UNL     1      23.100  44.379  45.962  1.00  0.00    -0.271 OA
BRANCH  16  19
HETATM   19  C   UNL     1      21.127  46.812  47.708  1.00  0.00     0.034 A 
HETATM   20  C   UNL     1      19.824  46.642  48.173  1.00  0.00     0.030 A 
HETATM   21  C   UNL     1      19.271  47.567  49.074  1.00  0.00     0.020 A 
HETATM   22  C   UNL     1      20.007  48.673  49.516  1.00  0.00     0.039 A 
HETATM   23  C   UNL     1      21.300  48.862  49.028  1.00  0.00     0.020 A 
HETATM   24  C   UNL     1      21.847  47.941  48.130  1.00  0.00     0.030 A 
BRANCH  22  25
HETATM   25  C   UNL     1      19.378  49.606  50.491  1.00  0.00     0.293 C 
HETATM   26  O   UNL     1      18.627  49.234  51.377  1.00  0.00    -0.259 OA
BRANCH  25  27
HETATM   27  O   UNL     1      19.787  50.874  50.253  1.00  0.00    -0.318 OA
BRANCH  27  28
HETATM   28  C   UNL     1      18.777  51.793  49.806  1.00  0.00     0.174 C 
HETATM   29  C   UNL     1      19.190  52.403  48.480  1.00  0.00     0.034 C 
ENDBRANCH  27  28
ENDBRANCH  25  27
ENDBRANCH  22  25
ENDBRANCH  16  19
ENDBRANCH  14  15
ENDBRANCH   1  14
BRANCH   7  30
HETATM   30  C   UNL     1      28.605  44.195  53.850  1.00  0.00    -0.001 A 
HETATM   31  C   UNL     1      28.666  45.070  54.939  1.00  0.00     0.037 A 
HETATM   32  C   UNL     1      29.701  44.949  55.871  1.00  0.00     0.035 A 
HETATM   33 CL   UNL     1      29.768  46.027  57.211  1.00  0.00    -0.084 Cl
HETATM   34  C   UNL     1      30.678  43.968  55.727  1.00  0.00     0.024 A 
HETATM   35  C   UNL     1      30.625  43.097  54.641  1.00  0.00     0.003 A 
HETATM   36  C   UNL     1      29.594  43.209  53.706  1.00  0.00     0.014 A 
ENDBRANCH   7  30
TORSDOF 7
ENDMDL
MODEL 3
REMARK VINA RESULT:      -9.3      1.479      2.131
REMARK  7 active torsions:
REMARK  status: ('A' for Active; 'I' for Inactive)
REMARK    1  A    between atoms: C_2  and  O_3 
REMARK    2  A    between atoms: O_3  and  C_4 
REMARK    3  A    between atoms: C_4  and  C_5 
REMARK    4  A    between atoms: C_8  and  N_9 
REMARK       I    between atoms: N_9  and  C_10 
REMARK    5  A    between atoms: C_10  and  C_11 
REMARK    6  A    between atoms: C_11  and  N_12 
REMARK    7  A    between atoms: C_18  and  C_19 
ROOT
HETATM    1  N   UNL     1      25.532  42.843  50.170  1.00  0.00    -0.063 N 
HETATM    2  H   UNL     1      24.857  42.068  50.204  1.00  0.00     0.280 HD
HETATM    3  C   UNL     1      25.191  43.732  51.358  1.00  0.00     0.240 C 
HETATM    4  C   UNL     1      24.083  44.723  51.071  1.00  0.00     0.083 C 
HETATM    5  C   UNL     1      24.319  45.449  49.754  1.00  0.00     0.131 A 
HETATM    6  N   UNL     1      23.210  46.406  49.526  1.00  0.00    -0.251 NA
HETATM    7  C   UNL     1      23.754  47.584  49.356  1.00  0.00     0.132 A 
HETATM    8  C   UNL     1      25.262  47.529  49.483  1.00  0.00     0.272 A 
HETATM    9  O   UNL     1      26.060  48.425  49.361  1.00  0.00    -0.266 OA
HETATM   10  N   UNL     1      25.518  46.225  49.758  1.00  0.00    -0.327 N 
HETATM   11  C   UNL     1      24.286  44.419  48.633  1.00  0.00     0.083 C 
HETATM   12  C   UNL     1      25.419  43.430  48.773  1.00  0.00     0.240 C 
HETATM   13  H   UNL     1      26.479  45.908  49.891  1.00  0.00     0.165 HD
ENDROOT
BRANCH   1  14
HETATM   14  C   UNL     1      26.949  42.202  50.353  1.00  0.00     0.337 C 
BRANCH  14  15
HETATM   15  C   UNL     1      26.973  41.022  51.342  1.00  0.00     0.248 C 
HETATM   16  N   UNL     1      27.502  41.106  52.587  1.00  0.00    -0.326 N 
HETATM   17  H   UNL     1      27.364  40.230  53.088  1.00  0.00     0.169 HD
HETATM   18  O   UNL     1      26.453  39.941  51.028  1.00  0.00    -0.271 OA
BRANCH  16  19
HETATM   19  C   UNL     1      28.129  42.116  53.333  1.00  0.00     0.034 A 
HETATM   20  C   UNL     1      29.498  42.375  53.380  1.00  0.00     0.030 A 
HETATM   21  C   UNL     1      29.987  43.448  54.144  1.00  0.00     0.020 A 
HETATM   22  C   UNL     1      29.119  44.269  54.874  1.00  0.00     0.039 A 
HETATM   23  C   UNL     1      27.752  43.992  54.854  1.00  0.00     0.020 A 
HETATM   24  C   UNL     1      27.268  42.924  54.094  1.00  0.00     0.030 A 
BRANCH  22  25
HETATM   25  C   UNL     1      29.692  45.406  55.646  1.00  0.00     0.293 C 
HETATM   26  O   UNL     1      29.104  46.462  55.808  1.00  0.00    -0.259 OA
BRANCH  25  27
HETATM   27  O   UNL     1      30.907  45.071  56.139  1.00  0.00    -0.318 OA
BRANCH  27  28
HETATM   28  C   UNL     1      30.909  44.271  57.332  1.00  0.00     0.174 C 
HETATM   29  C   UNL     1      31.962  43.186  57.219  1.00  0.00     0.034 C 
ENDBRANCH  27  28
ENDBRANCH  25  27
ENDBRANCH  22  25
ENDBRANCH  16  19
ENDBRANCH  14  15
ENDBRANCH   1  14
BRANCH   7  30
HETATM   30  C   UNL     1      22.983  48.812  49.070  1.00  0.00    -0.001 A 
HETATM   31  C   UNL     1      21.587  48.856  49.136  1.00  0.00     0.037 A 
HETATM   32  C   UNL     1      20.915  50.051  48.865  1.00  0.00     0.035 A 
HETATM   33 CL   UNL     1      19.196  50.098  48.952  1.00  0.00    -0.084 Cl
HETATM   34  C   UNL     1      21.618  51.203  48.526  1.00  0.00     0.024 A 
HETATM   35  C   UNL     1      23.009  51.165  48.454  1.00  0.00     0.003 A 
HETATM   36  C   UNL     1      23.689  49.976  48.725  1.00  0.00     0.014 A 
ENDBRANCH   7  30
TORSDOF 7
ENDMDL
MODEL 4
REMARK VINA RESULT:      -9.2      3.711      9.094
REMARK  7 active torsions:
REMARK  status: ('A' for Active; 'I' for Inactive)
REMARK    1  A    between atoms: C_2  and  O_3 
REMARK    2  A    between atoms: O_3  and  C_4 
REMARK    3  A    between atoms: C_4  and  C_5 
REMARK    4  A    between atoms: C_8  and  N_9 
REMARK       I    between atoms: N_9  and  C_10 
REMARK    5  A    between atoms: C_10  and  C_11 
REMARK    6  A    between atoms: C_11  and  N_12 
REMARK    7  A    between atoms: C_18  and  C_19 
ROOT
HETATM    1  N   UNL     1      25.952  43.094  49.376  1.00  0.00    -0.063 N 
HETATM    2  H   UNL     1      26.555  42.617  48.691  1.00  0.00     0.280 HD
HETATM    3  C   UNL     1      26.534  44.492  49.525  1.00  0.00     0.240 C 
HETATM    4  C   UNL     1      27.674  44.568  50.519  1.00  0.00     0.083 C 
HETATM    5  C   UNL     1      27.320  43.863  51.820  1.00  0.00     0.131 A 
HETATM    6  N   UNL     1      28.466  43.971  52.754  1.00  0.00    -0.251 NA
HETATM    7  C   UNL     1      28.010  44.516  53.853  1.00  0.00     0.132 A 
HETATM    8  C   UNL     1      26.536  44.845  53.746  1.00  0.00     0.272 A 
HETATM    9  O   UNL     1      25.811  45.329  54.579  1.00  0.00    -0.266 OA
HETATM   10  N   UNL     1      26.207  44.458  52.487  1.00  0.00    -0.327 N 
HETATM   11  C   UNL     1      27.104  42.386  51.515  1.00  0.00     0.083 C 
HETATM   12  C   UNL     1      25.919  42.192  50.598  1.00  0.00     0.240 C 
HETATM   13  H   UNL     1      25.250  44.570  52.150  1.00  0.00     0.165 HD
ENDROOT
BRANCH   1  14
HETATM   14  C   UNL     1      24.525  43.159  48.737  1.00  0.00     0.337 C 
BRANCH  14  15
HETATM   15  C   UNL     1      23.398  43.398  49.758  1.00  0.00     0.248 C 
HETATM   16  N   UNL     1      22.942  44.631  50.086  1.00  0.00    -0.326 N 
HETATM   17  H   UNL     1      22.160  44.557  50.736  1.00  0.00     0.169 HD
HETATM   18  O   UNL     1      22.830  42.433  50.291  1.00  0.00    -0.271 OA
BRANCH  16  19
HETATM   19  C   UNL     1      23.261  45.944  49.701  1.00  0.00     0.034 A 
HETATM   20  C   UNL     1      24.317  46.710  50.190  1.00  0.00     0.030 A 
HETATM   21  C   UNL     1      24.543  48.002  49.686  1.00  0.00     0.020 A 
HETATM   22  C   UNL     1      23.718  48.544  48.694  1.00  0.00     0.039 A 
HETATM   23  C   UNL     1      22.641  47.791  48.225  1.00  0.00     0.020 A 
HETATM   24  C   UNL     1      22.418  46.507  48.729  1.00  0.00     0.030 A 
BRANCH  22  25
HETATM   25  C   UNL     1      24.020  49.908  48.180  1.00  0.00     0.293 C 
HETATM   26  O   UNL     1      24.763  50.112  47.234  1.00  0.00    -0.259 OA
BRANCH  25  27
HETATM   27  O   UNL     1      23.339  50.837  48.890  1.00  0.00    -0.318 OA
BRANCH  27  28
HETATM   28  C   UNL     1      22.056  51.219  48.368  1.00  0.00     0.174 C 
HETATM   29  C   UNL     1      20.990  51.015  49.427  1.00  0.00     0.034 C 
ENDBRANCH  27  28
ENDBRANCH  25  27
ENDBRANCH  22  25
ENDBRANCH  16  19
ENDBRANCH  14  15
ENDBRANCH   1  14
BRANCH   7  30
HETATM   30  C   UNL     1      28.838  44.769  55.051  1.00  0.00    -0.001 A 
HETATM   31  C   UNL     1      29.966  44.002  55.360  1.00  0.00     0.037 A 
HETATM   32  C   UNL     1      30.717  44.298  56.502  1.00  0.00     0.035 A 
HETATM   33 CL   UNL     1      32.106  43.352  56.874  1.00  0.00    -0.084 Cl
HETATM   34  C   UNL     1      30.354  45.348  57.341  1.00  0.00     0.024 A 
HETATM   35  C   UNL     1      29.229  46.112  57.041  1.00  0.00     0.003 A 
HETATM   36  C   UNL     1      28.474  45.825  55.901  1.00  0.00     0.014 A 
ENDBRANCH   7  30
TORSDOF 7
ENDMDL
MODEL 5
REMARK VINA RESULT:      -8.9      6.548     13.272
REMARK  7 active torsions:
REMARK  status: ('A' for Active; 'I' for Inactive)
REMARK    1  A    between atoms: C_2  and  O_3 
REMARK    2  A    between atoms: O_3  and  C_4 
REMARK    3  A    between atoms: C_4  and  C_5 
REMARK    4  A    between atoms: C_8  and  N_9 
REMARK       I    between atoms: N_9  and  C_10 
REMARK    5  A    between atoms: C_10  and  C_11 
REMARK    6  A    between atoms: C_11  and  N_12 
REMARK    7  A    between atoms: C_18  and  C_19 
ROOT
HETATM    1  N   UNL     1      17.707  51.310  49.008  1.00  0.00    -0.063 N 
HETATM    2  H   UNL     1      17.524  52.133  49.598  1.00  0.00     0.280 HD
HETATM    3  C   UNL     1      18.131  50.208  49.968  1.00  0.00     0.240 C 
HETATM    4  C   UNL     1      19.603  50.248  50.318  1.00  0.00     0.083 C 
HETATM    5  C   UNL     1      20.463  50.399  49.072  1.00  0.00     0.131 A 
HETATM    6  N   UNL     1      21.890  50.428  49.472  1.00  0.00    -0.251 NA
HETATM    7  C   UNL     1      22.492  49.478  48.803  1.00  0.00     0.132 A 
HETATM    8  C   UNL     1      21.525  48.714  47.923  1.00  0.00     0.272 A 
HETATM    9  O   UNL     1      21.756  47.802  47.169  1.00  0.00    -0.266 OA
HETATM   10  N   UNL     1      20.327  49.301  48.169  1.00  0.00    -0.327 N 
HETATM   11  C   UNL     1      20.132  51.739  48.428  1.00  0.00     0.083 C 
HETATM   12  C   UNL     1      18.698  51.769  47.952  1.00  0.00     0.240 C 
HETATM   13  H   UNL     1      19.487  48.972  47.692  1.00  0.00     0.165 HD
ENDROOT
BRANCH   1  14
HETATM   14  C   UNL     1      16.346  50.948  48.323  1.00  0.00     0.337 C 
BRANCH  14  15
HETATM   15  C   UNL     1      15.824  52.035  47.366  1.00  0.00     0.248 C 
HETATM   16  N   UNL     1      15.225  53.174  47.791  1.00  0.00    -0.326 N 
HETATM   17  H   UNL     1      15.008  53.776  46.998  1.00  0.00     0.169 HD
HETATM   18  O   UNL     1      15.982  51.910  46.143  1.00  0.00    -0.271 OA
BRANCH  16  19
HETATM   19  C   UNL     1      14.897  53.716  49.044  1.00  0.00     0.034 A 
HETATM   20  C   UNL     1      15.787  53.977  50.085  1.00  0.00     0.030 A 
HETATM   21  C   UNL     1      15.326  54.559  51.278  1.00  0.00     0.020 A 
HETATM   22  C   UNL     1      13.974  54.882  51.448  1.00  0.00     0.039 A 
HETATM   23  C   UNL     1      13.077  54.592  50.420  1.00  0.00     0.020 A 
HETATM   24  C   UNL     1      13.538  54.013  49.235  1.00  0.00     0.030 A 
BRANCH  22  25
HETATM   25  C   UNL     1      13.547  55.519  52.724  1.00  0.00     0.293 C 
HETATM   26  O   UNL     1      12.376  55.646  53.044  1.00  0.00    -0.259 OA
BRANCH  25  27
HETATM   27  O   UNL     1      14.630  55.889  53.446  1.00  0.00    -0.318 OA
BRANCH  27  28
HETATM   28  C   UNL     1      14.735  57.286  53.761  1.00  0.00     0.174 C 
HETATM   29  C   UNL     1      15.959  57.526  54.625  1.00  0.00     0.034 C 
ENDBRANCH  27  28
ENDBRANCH  25  27
ENDBRANCH  22  25
ENDBRANCH  16  19
ENDBRANCH  14  15
ENDBRANCH   1  14
BRANCH   7  30
HETATM   30  C   UNL     1      23.940  49.196  48.896  1.00  0.00    -0.001 A 
HETATM   31  C   UNL     1      24.451  48.117  49.624  1.00  0.00     0.037 A 
HETATM   32  C   UNL     1      25.830  47.895  49.665  1.00  0.00     0.035 A 
HETATM   33 CL   UNL     1      26.451  46.562  50.559  1.00  0.00    -0.084 Cl
HETATM   34  C   UNL     1      26.707  48.740  48.991  1.00  0.00     0.024 A 
HETATM   35  C   UNL     1      26.206  49.820  48.268  1.00  0.00     0.003 A 
HETATM   36  C   UNL     1      24.829  50.048  48.220  1.00  0.00     0.014 A 
ENDBRANCH   7  30
TORSDOF 7
ENDMDL
MODEL 6
REMARK VINA RESULT:      -8.8      3.558     10.372
REMARK  7 active torsions:
REMARK  status: ('A' for Active; 'I' for Inactive)
REMARK    1  A    between atoms: C_2  and  O_3 
REMARK    2  A    between atoms: O_3  and  C_4 
REMARK    3  A    between atoms: C_4  and  C_5 
REMARK    4  A    between atoms: C_8  and  N_9 
REMARK       I    between atoms: N_9  and  C_10 
REMARK    5  A    between atoms: C_10  and  C_11 
REMARK    6  A    between atoms: C_11  and  N_12 
REMARK    7  A    between atoms: C_18  and  C_19 
ROOT
HETATM    1  N   UNL     1      24.204  44.536  48.332  1.00  0.00    -0.063 N 
HETATM    2  H   UNL     1      24.664  44.685  47.424  1.00  0.00     0.280 HD
HETATM    3  C   UNL     1      24.470  45.802  49.134  1.00  0.00     0.240 C 
HETATM    4  C   UNL     1      25.808  45.797  49.843  1.00  0.00     0.083 C 
HETATM    5  C   UNL     1      26.033  44.490  50.587  1.00  0.00     0.131 A 
HETATM    6  N   UNL     1      27.352  44.541  51.263  1.00  0.00    -0.251 NA
HETATM    7  C   UNL     1      27.138  44.303  52.532  1.00  0.00     0.132 A 
HETATM    8  C   UNL     1      25.666  44.102  52.824  1.00  0.00     0.272 A 
HETATM    9  O   UNL     1      25.137  43.846  53.877  1.00  0.00    -0.266 OA
HETATM   10  N   UNL     1      25.069  44.265  51.616  1.00  0.00    -0.327 N 
HETATM   11  C   UNL     1      26.077  43.363  49.564  1.00  0.00     0.083 C 
HETATM   12  C   UNL     1      24.747  43.220  48.860  1.00  0.00     0.240 C 
HETATM   13  H   UNL     1      24.056  44.178  51.529  1.00  0.00     0.165 HD
ENDROOT
BRANCH   1  14
HETATM   14  C   UNL     1      22.674  44.387  48.034  1.00  0.00     0.337 C 
BRANCH  14  15
HETATM   15  C   UNL     1      21.792  44.396  49.295  1.00  0.00     0.248 C 
HETATM   16  N   UNL     1      20.715  45.206  49.443  1.00  0.00    -0.326 N 
HETATM   17  H   UNL     1      20.245  45.010  50.326  1.00  0.00     0.169 HD
HETATM   18  O   UNL     1      22.027  43.605  50.220  1.00  0.00    -0.271 OA
BRANCH  16  19
HETATM   19  C   UNL     1      20.093  46.185  48.653  1.00  0.00     0.034 A 
HETATM   20  C   UNL     1      18.877  46.051  47.984  1.00  0.00     0.030 A 
HETATM   21  C   UNL     1      18.350  47.130  47.255  1.00  0.00     0.020 A 
HETATM   22  C   UNL     1      19.031  48.351  47.180  1.00  0.00     0.039 A 
HETATM   23  C   UNL     1      20.263  48.477  47.822  1.00  0.00     0.020 A 
HETATM   24  C   UNL     1      20.785  47.402  48.546  1.00  0.00     0.030 A 
BRANCH  22  25
HETATM   25  C   UNL     1      18.413  49.468  46.414  1.00  0.00     0.293 C 
HETATM   26  O   UNL     1      17.377  49.346  45.782  1.00  0.00    -0.259 OA
BRANCH  25  27
HETATM   27  O   UNL     1      19.148  50.595  46.557  1.00  0.00    -0.318 OA
BRANCH  27  28
HETATM   28  C   UNL     1      18.509  51.688  47.236  1.00  0.00     0.174 C 
HETATM   29  C   UNL     1      19.312  52.067  48.466  1.00  0.00     0.034 C 
ENDBRANCH  27  28
ENDBRANCH  25  27
ENDBRANCH  22  25
ENDBRANCH  16  19
ENDBRANCH  14  15
ENDBRANCH   1  14
BRANCH   7  30
HETATM   30  C   UNL     1      28.209  44.236  53.549  1.00  0.00    -0.001 A 
HETATM   31  C   UNL     1      28.274  45.117  54.632  1.00  0.00     0.037 A 
HETATM   32  C   UNL     1      29.305  44.996  55.567  1.00  0.00     0.035 A 
HETATM   33 CL   UNL     1      29.376  46.082  56.901  1.00  0.00    -0.084 Cl
HETATM   34  C   UNL     1      30.276  44.007  55.433  1.00  0.00     0.024 A 
HETATM   35  C   UNL     1      30.220  43.129  54.353  1.00  0.00     0.003 A 
HETATM   36  C   UNL     1      29.192  43.242  53.415  1.00  0.00     0.014 A 
ENDBRANCH   7  30
TORSDOF 7
ENDMDL
MODEL 7
REMARK VINA RESULT:      -8.7      1.530      2.018
REMARK  7 active torsions:
REMARK  status: ('A' for Active; 'I' for Inactive)
REMARK    1  A    between atoms: C_2  and  O_3 
REMARK    2  A    between atoms: O_3  and  C_4 
REMARK    3  A    between atoms: C_4  and  C_5 
REMARK    4  A    between atoms: C_8  and  N_9 
REMARK       I    between atoms: N_9  and  C_10 
REMARK    5  A    between atoms: C_10  and  C_11 
REMARK    6  A    between atoms: C_11  and  N_12 
REMARK    7  A    between atoms: C_18  and  C_19 
ROOT
HETATM    1  N   UNL     1      26.176  43.141  50.910  1.00  0.00    -0.063 N 
HETATM    2  H   UNL     1      26.982  43.255  51.541  1.00  0.00     0.280 HD
HETATM    3  C   UNL     1      26.590  43.798  49.601  1.00  0.00     0.240 C 
HETATM    4  C   UNL     1      26.361  45.294  49.578  1.00  0.00     0.083 C 
HETATM    5  C   UNL     1      24.966  45.646  50.077  1.00  0.00     0.131 A 
HETATM    6  N   UNL     1      24.795  47.118  50.030  1.00  0.00    -0.251 NA
HETATM    7  C   UNL     1      23.730  47.353  49.307  1.00  0.00     0.132 A 
HETATM    8  C   UNL     1      23.113  46.073  48.785  1.00  0.00     0.272 A 
HETATM    9  O   UNL     1      22.121  45.937  48.113  1.00  0.00    -0.266 OA
HETATM   10  N   UNL     1      23.932  45.100  49.258  1.00  0.00    -0.327 N 
HETATM   11  C   UNL     1      24.860  45.210  51.532  1.00  0.00     0.083 C 
HETATM   12  C   UNL     1      24.982  43.709  51.657  1.00  0.00     0.240 C 
HETATM   13  H   UNL     1      23.738  44.120  49.050  1.00  0.00     0.165 HD
ENDROOT
BRANCH   1  14
HETATM   14  C   UNL     1      25.984  41.600  50.714  1.00  0.00     0.337 C 
BRANCH  14  15
HETATM   15  C   UNL     1      27.224  40.767  51.086  1.00  0.00     0.248 C 
HETATM   16  N   UNL     1      28.132  41.158  52.013  1.00  0.00    -0.326 N 
HETATM   17  H   UNL     1      28.839  40.436  52.142  1.00  0.00     0.169 HD
HETATM   18  O   UNL     1      27.407  39.660  50.558  1.00  0.00    -0.271 OA
BRANCH  16  19
HETATM   19  C   UNL     1      28.278  42.277  52.849  1.00  0.00     0.034 A 
HETATM   20  C   UNL     1      29.209  43.303  52.694  1.00  0.00     0.030 A 
HETATM   21  C   UNL     1      29.220  44.386  53.588  1.00  0.00     0.020 A 
HETATM   22  C   UNL     1      28.308  44.456  54.648  1.00  0.00     0.039 A 
HETATM   23  C   UNL     1      27.396  43.415  54.824  1.00  0.00     0.020 A 
HETATM   24  C   UNL     1      27.388  42.338  53.934  1.00  0.00     0.030 A 
BRANCH  22  25
HETATM   25  C   UNL     1      28.350  45.641  55.549  1.00  0.00     0.293 C 
HETATM   26  O   UNL     1      28.390  45.549  56.765  1.00  0.00    -0.259 OA
BRANCH  25  27
HETATM   27  O   UNL     1      28.366  46.781  54.821  1.00  0.00    -0.318 OA
BRANCH  27  28
HETATM   28  C   UNL     1      27.316  47.723  55.093  1.00  0.00     0.174 C 
HETATM   29  C   UNL     1      26.147  47.471  54.160  1.00  0.00     0.034 C 
ENDBRANCH  27  28
ENDBRANCH  25  27
ENDBRANCH  22  25
ENDBRANCH  16  19
ENDBRANCH  14  15
ENDBRANCH   1  14
BRANCH   7  30
HETATM   30  C   UNL     1      23.198  48.707  49.043  1.00  0.00    -0.001 A 
HETATM   31  C   UNL     1      21.967  49.142  49.544  1.00  0.00     0.037 A 
HETATM   32  C   UNL     1      21.523  50.438  49.270  1.00  0.00     0.035 A 
HETATM   33 CL   UNL     1      20.008  50.968  49.894  1.00  0.00    -0.084 Cl
HETATM   34  C   UNL     1      22.290  51.306  48.498  1.00  0.00     0.024 A 
HETATM   35  C   UNL     1      23.515  50.878  47.992  1.00  0.00     0.003 A 
HETATM   36  C   UNL     1      23.968  49.584  48.262  1.00  0.00     0.014 A 
ENDBRANCH   7  30
TORSDOF 7
ENDMDL
MODEL 8
REMARK VINA RESULT:      -8.5      3.669      9.671
REMARK  7 active torsions:
REMARK  status: ('A' for Active; 'I' for Inactive)
REMARK    1  A    between atoms: C_2  and  O_3 
REMARK    2  A    between atoms: O_3  and  C_4 
REMARK    3  A    between atoms: C_4  and  C_5 
REMARK    4  A    between atoms: C_8  and  N_9 
REMARK       I    between atoms: N_9  and  C_10 
REMARK    5  A    between atoms: C_10  and  C_11 
REMARK    6  A    between atoms: C_11  and  N_12 
REMARK    7  A    between atoms: C_18  and  C_19 
ROOT
HETATM    1  N   UNL     1      22.913  42.618  48.024  1.00  0.00    -0.063 N 
HETATM    2  H   UNL     1      22.242  41.879  48.273  1.00  0.00     0.280 HD
HETATM    3  C   UNL     1      24.230  41.899  47.765  1.00  0.00     0.240 C 
HETATM    4  C   UNL     1      25.030  41.635  49.022  1.00  0.00     0.083 C 
HETATM    5  C   UNL     1      25.124  42.882  49.890  1.00  0.00     0.131 A 
HETATM    6  N   UNL     1      25.918  42.568  51.101  1.00  0.00    -0.251 NA
HETATM    7  C   UNL     1      26.900  43.432  51.145  1.00  0.00     0.132 A 
HETATM    8  C   UNL     1      26.869  44.377  49.963  1.00  0.00     0.272 A 
HETATM    9  O   UNL     1      27.610  45.296  49.715  1.00  0.00    -0.266 OA
HETATM   10  N   UNL     1      25.800  43.959  49.240  1.00  0.00    -0.327 N 
HETATM   11  C   UNL     1      23.716  43.253  50.338  1.00  0.00     0.083 C 
HETATM   12  C   UNL     1      22.854  43.630  49.156  1.00  0.00     0.240 C 
HETATM   13  H   UNL     1      25.547  44.437  48.374  1.00  0.00     0.165 HD
ENDROOT
BRANCH   1  14
HETATM   14  C   UNL     1      22.378  43.275  46.708  1.00  0.00     0.337 C 
BRANCH  14  15
HETATM   15  C   UNL     1      20.842  43.304  46.609  1.00  0.00     0.248 C 
HETATM   16  N   UNL     1      20.095  44.382  46.952  1.00  0.00    -0.326 N 
HETATM   17  H   UNL     1      19.111  44.206  46.757  1.00  0.00     0.169 HD
HETATM   18  O   UNL     1      20.232  42.324  46.157  1.00  0.00    -0.271 OA
BRANCH  16  19
HETATM   19  C   UNL     1      20.373  45.666  47.448  1.00  0.00     0.034 A 
HETATM   20  C   UNL     1      21.394  46.511  47.017  1.00  0.00     0.030 A 
HETATM   21  C   UNL     1      21.536  47.791  47.578  1.00  0.00     0.020 A 
HETATM   22  C   UNL     1      20.665  48.240  48.579  1.00  0.00     0.039 A 
HETATM   23  C   UNL     1      19.662  47.384  49.035  1.00  0.00     0.020 A 
HETATM   24  C   UNL     1      19.525  46.111  48.475  1.00  0.00     0.030 A 
BRANCH  22  25
HETATM   25  C   UNL     1      20.847  49.614  49.120  1.00  0.00     0.293 C 
HETATM   26  O   UNL     1      21.940  50.079  49.399  1.00  0.00    -0.259 OA
BRANCH  25  27
HETATM   27  O   UNL     1      19.651  50.241  49.216  1.00  0.00    -0.318 OA
BRANCH  27  28
HETATM   28  C   UNL     1      19.692  51.641  49.531  1.00  0.00     0.174 C 
HETATM   29  C   UNL     1      19.016  52.434  48.429  1.00  0.00     0.034 C 
ENDBRANCH  27  28
ENDBRANCH  25  27
ENDBRANCH  22  25
ENDBRANCH  16  19
ENDBRANCH  14  15
ENDBRANCH   1  14
BRANCH   7  30
HETATM   30  C   UNL     1      27.908  43.477  52.225  1.00  0.00    -0.001 A 
HETATM   31  C   UNL     1      27.817  44.363  53.303  1.00  0.00     0.037 A 
HETATM   32  C   UNL     1      28.796  44.350  54.300  1.00  0.00     0.035 A 
HETATM   33 CL   UNL     1      28.674  45.442  55.625  1.00  0.00    -0.084 Cl
HETATM   34  C   UNL     1      29.868  43.464  54.234  1.00  0.00     0.024 A 
HETATM   35  C   UNL     1      29.968  42.582  53.161  1.00  0.00     0.003 A 
HETATM   36  C   UNL     1      28.993  42.587  52.161  1.00  0.00     0.014 A 
ENDBRANCH   7  30
TORSDOF 7
ENDMDL
MODEL 9
REMARK VINA RESULT:      -8.4      2.961      4.601
REMARK  7 active torsions:
REMARK  status: ('A' for Active; 'I' for Inactive)
REMARK    1  A    between atoms: C_2  and  O_3 
REMARK    2  A    between atoms: O_3  and  C_4 
REMARK    3  A    between atoms: C_4  and  C_5 
REMARK    4  A    between atoms: C_8  and  N_9 
REMARK       I    between atoms: N_9  and  C_10 
REMARK    5  A    between atoms: C_10  and  C_11 
REMARK    6  A    between atoms: C_11  and  N_12 
REMARK    7  A    between atoms: C_18  and  C_19 
ROOT
HETATM    1  N   UNL     1      22.848  46.838  48.537  1.00  0.00    -0.063 N 
HETATM    2  H   UNL     1      23.282  46.716  47.612  1.00  0.00     0.280 HD
HETATM    3  C   UNL     1      21.467  46.208  48.425  1.00  0.00     0.240 C 
HETATM    4  C   UNL     1      20.425  47.140  47.845  1.00  0.00     0.083 C 
HETATM    5  C   UNL     1      20.470  48.505  48.517  1.00  0.00     0.131 A 
HETATM    6  N   UNL     1      19.430  49.373  47.916  1.00  0.00    -0.251 NA
HETATM    7  C   UNL     1      18.677  49.800  48.898  1.00  0.00     0.132 A 
HETATM    8  C   UNL     1      19.124  49.238  50.231  1.00  0.00     0.272 A 
HETATM    9  O   UNL     1      18.665  49.447  51.326  1.00  0.00    -0.266 OA
HETATM   10  N   UNL     1      20.178  48.445  49.914  1.00  0.00    -0.327 N 
HETATM   11  C   UNL     1      21.827  49.132  48.225  1.00  0.00     0.083 C 
HETATM   12  C   UNL     1      22.942  48.322  48.846  1.00  0.00     0.240 C 
HETATM   13  H   UNL     1      20.676  47.937  50.645  1.00  0.00     0.165 HD
ENDROOT
BRANCH   1  14
HETATM   14  C   UNL     1      23.736  46.038  49.549  1.00  0.00     0.337 C 
BRANCH  14  15
HETATM   15  C   UNL     1      24.297  44.723  48.977  1.00  0.00     0.248 C 
HETATM   16  N   UNL     1      25.239  43.981  49.608  1.00  0.00    -0.326 N 
HETATM   17  H   UNL     1      25.424  43.127  49.084  1.00  0.00     0.169 HD
HETATM   18  O   UNL     1      23.854  44.273  47.910  1.00  0.00    -0.271 OA
BRANCH  16  19
HETATM   19  C   UNL     1      25.952  44.096  50.812  1.00  0.00     0.034 A 
HETATM   20  C   UNL     1      25.412  44.388  52.063  1.00  0.00     0.030 A 
HETATM   21  C   UNL     1      26.242  44.436  53.196  1.00  0.00     0.020 A 
HETATM   22  C   UNL     1      27.618  44.199  53.093  1.00  0.00     0.039 A 
HETATM   23  C   UNL     1      28.166  43.938  51.837  1.00  0.00     0.020 A 
HETATM   24  C   UNL     1      27.338  43.892  50.712  1.00  0.00     0.030 A 
BRANCH  22  25
HETATM   25  C   UNL     1      28.444  44.239  54.331  1.00  0.00     0.293 C 
HETATM   26  O   UNL     1      29.568  43.768  54.395  1.00  0.00    -0.259 OA
BRANCH  25  27
HETATM   27  O   UNL     1      27.777  44.883  55.317  1.00  0.00    -0.318 OA
BRANCH  27  28
HETATM   28  C   UNL     1      28.434  46.028  55.884  1.00  0.00     0.174 C 
HETATM   29  C   UNL     1      28.119  47.260  55.058  1.00  0.00     0.034 C 
ENDBRANCH  27  28
ENDBRANCH  25  27
ENDBRANCH  22  25
ENDBRANCH  16  19
ENDBRANCH  14  15
ENDBRANCH   1  14
BRANCH   7  30
HETATM   30  C   UNL     1      17.536  50.723  48.719  1.00  0.00    -0.001 A 
HETATM   31  C   UNL     1      17.280  51.781  49.596  1.00  0.00     0.037 A 
HETATM   32  C   UNL     1      16.192  52.627  49.367  1.00  0.00     0.035 A 
HETATM   33 CL   UNL     1      15.886  53.930  50.449  1.00  0.00    -0.084 Cl
HETATM   34  C   UNL     1      15.353  52.428  48.274  1.00  0.00     0.024 A 
HETATM   35  C   UNL     1      15.599  51.373  47.399  1.00  0.00     0.003 A 
HETATM   36  C   UNL     1      16.686  50.523  47.620  1.00  0.00     0.014 A 
ENDBRANCH   7  30
TORSDOF 7
ENDMDL
MODEL 10
REMARK VINA RESULT:      -8.4      3.702      9.745
REMARK  7 active torsions:
REMARK  status: ('A' for Active; 'I' for Inactive)
REMARK    1  A    between atoms: C_2  and  O_3 
REMARK    2  A    between atoms: O_3  and  C_4 
REMARK    3  A    between atoms: C_4  and  C_5 
REMARK    4  A    between atoms: C_8  and  N_9 
REMARK       I    between atoms: N_9  and  C_10 
REMARK    5  A    between atoms: C_10  and  C_11 
REMARK    6  A    between atoms: C_11  and  N_12 
REMARK    7  A    between atoms: C_18  and  C_19 
ROOT
HETATM    1  N   UNL     1      24.828  43.606  49.635  1.00  0.00    -0.063 N 
HETATM    2  H   UNL     1      24.628  44.450  49.081  1.00  0.00     0.280 HD
HETATM    3  C   UNL     1      24.210  43.861  51.002  1.00  0.00     0.240 C 
HETATM    4  C   UNL     1      25.108  44.649  51.932  1.00  0.00     0.083 C 
HETATM    5  C   UNL     1      26.521  44.084  51.945  1.00  0.00     0.131 A 
HETATM    6  N   UNL     1      27.353  44.889  52.872  1.00  0.00    -0.251 NA
HETATM    7  C   UNL     1      27.867  44.056  53.741  1.00  0.00     0.132 A 
HETATM    8  C   UNL     1      27.406  42.635  53.496  1.00  0.00     0.272 A 
HETATM    9  O   UNL     1      27.707  41.634  54.097  1.00  0.00    -0.266 OA
HETATM   10  N   UNL     1      26.575  42.741  52.429  1.00  0.00    -0.327 N 
HETATM   11  C   UNL     1      27.104  44.232  50.546  1.00  0.00     0.083 C 
HETATM   12  C   UNL     1      26.331  43.401  49.548  1.00  0.00     0.240 C 
HETATM   13  H   UNL     1      26.120  41.911  52.048  1.00  0.00     0.165 HD
ENDROOT
BRANCH   1  14
HETATM   14  C   UNL     1      24.098  42.423  48.915  1.00  0.00     0.337 C 
BRANCH  14  15
HETATM   15  C   UNL     1      23.884  42.650  47.408  1.00  0.00     0.248 C 
HETATM   16  N   UNL     1      23.131  43.660  46.908  1.00  0.00    -0.326 N 
HETATM   17  H   UNL     1      23.170  43.658  45.890  1.00  0.00     0.169 HD
HETATM   18  O   UNL     1      24.450  41.916  46.584  1.00  0.00    -0.271 OA
BRANCH  16  19
HETATM   19  C   UNL     1      22.379  44.708  47.464  1.00  0.00     0.034 A 
HETATM   20  C   UNL     1      22.887  45.887  48.006  1.00  0.00     0.030 A 
HETATM   21  C   UNL     1      22.013  46.871  48.497  1.00  0.00     0.020 A 
HETATM   22  C   UNL     1      20.625  46.689  48.458  1.00  0.00     0.039 A 
HETATM   23  C   UNL     1      20.116  45.496  47.944  1.00  0.00     0.020 A 
HETATM   24  C   UNL     1      20.988  44.518  47.458  1.00  0.00     0.030 A 
BRANCH  22  25
HETATM   25  C   UNL     1      19.747  47.777  48.969  1.00  0.00     0.293 C 
HETATM   26  O   UNL     1      18.529  47.707  48.961  1.00  0.00    -0.259 OA
BRANCH  25  27
HETATM   27  O   UNL     1      20.497  48.795  49.450  1.00  0.00    -0.318 OA
BRANCH  27  28
HETATM   28  C   UNL     1      19.938  50.112  49.321  1.00  0.00     0.174 C 
HETATM   29  C   UNL     1      20.886  50.997  48.536  1.00  0.00     0.034 C 
ENDBRANCH  27  28
ENDBRANCH  25  27
ENDBRANCH  22  25
ENDBRANCH  16  19
ENDBRANCH  14  15
ENDBRANCH   1  14
BRANCH   7  30
HETATM   30  C   UNL     1      28.788  44.463  54.824  1.00  0.00    -0.001 A 
HETATM   31  C   UNL     1      29.893  43.693  55.199  1.00  0.00     0.037 A 
HETATM   32  C   UNL     1      30.735  44.135  56.222  1.00  0.00     0.035 A 
HETATM   33 CL   UNL     1      32.096  43.184  56.676  1.00  0.00    -0.084 Cl
HETATM   34  C   UNL     1      30.486  45.337  56.880  1.00  0.00     0.024 A 
HETATM   35  C   UNL     1      29.384  46.107  56.515  1.00  0.00     0.003 A 
HETATM   36  C   UNL     1      28.538  45.672  55.491  1.00  0.00     0.014 A 
ENDBRANCH   7  30
TORSDOF 7
ENDMDL
