MODEL 1
REMARK VINA RESULT:      -9.5      0.000      0.000
REMARK  5 active torsions:
REMARK  status: ('A' for Active; 'I' for Inactive)
REMARK    1  A    between atoms: C_6  and  N_7 
REMARK       I    between atoms: N_7  and  C_8 
REMARK       I    between atoms: C_8  and  N_9 
REMARK    2  A    between atoms: N_9  and  N_10 
REMARK       I    between atoms: N_10  and  C_11 
REMARK    3  A    between atoms: C_11  and  C_12 
REMARK    4  A    between atoms: C_12  and  N_13 
REMARK       I    between atoms: N_13  and  C_14 
REMARK       I    between atoms: C_14  and  N_15 
REMARK    5  A    between atoms: N_15  and  C_16 
ROOT
HETATM    1  N   UNL     1      27.248  44.210  51.201  1.00  0.00    -0.265 N 
HETATM    2  C   UNL     1      26.034  44.870  51.093  1.00  0.00     0.253 C 
HETATM    3  O   UNL     1      25.093  44.656  51.860  1.00  0.00    -0.270 OA
HETATM    4  H   UNL     1      27.771  44.092  50.325  1.00  0.00     0.190 HD
ENDROOT
BRANCH   2   5
HETATM    5  C   UNL     1      25.841  45.732  49.836  1.00  0.00     0.228 C 
BRANCH   5   6
HETATM    6  N   UNL     1      24.493  46.011  49.352  1.00  0.00    -0.334 N 
HETATM    7  C   UNL     1      23.914  47.239  49.564  1.00  0.00     0.321 C 
HETATM    8  N   UNL     1      22.893  47.494  48.681  1.00  0.00    -0.309 N 
HETATM    9  O   UNL     1      24.301  47.967  50.471  1.00  0.00    -0.247 OA
HETATM   10  H   UNL     1      22.869  46.924  47.848  1.00  0.00     0.170 HD
HETATM   11  H   UNL     1      24.221  45.512  48.519  1.00  0.00     0.164 HD
BRANCH   8  12
HETATM   12  C   UNL     1      22.036  48.615  48.690  1.00  0.00     0.038 A 
HETATM   13  C   UNL     1      20.736  48.592  49.202  1.00  0.00     0.055 A 
HETATM   14  C   UNL     1      19.935  49.741  49.167  1.00  0.00     0.058 A 
HETATM   15 CL   UNL     1      18.331  49.623  49.801  1.00  0.00    -0.082 Cl
HETATM   16  C   UNL     1      20.434  50.927  48.622  1.00  0.00     0.055 A 
HETATM   17 CL   UNL     1      19.510  52.383  48.551  1.00  0.00    -0.083 Cl
HETATM   18  C   UNL     1      21.731  50.955  48.103  1.00  0.00     0.028 A 
HETATM   19  C   UNL     1      22.523  49.803  48.128  1.00  0.00     0.031 A 
ENDBRANCH   8  12
ENDBRANCH   5   6
ENDBRANCH   2   5
BRANCH   1  20
HETATM   20  N   UNL     1      27.260  43.078  52.043  1.00  0.00    -0.249 N 
HETATM   21  C   UNL     1      27.786  43.084  53.316  1.00  0.00     0.339 C 
HETATM   22  N   UNL     1      28.468  44.234  53.627  1.00  0.00    -0.308 N 
HETATM   23  O   UNL     1      27.618  42.109  54.041  1.00  0.00    -0.245 OA
HETATM   24  H   UNL     1      28.371  44.954  52.925  1.00  0.00     0.170 HD
HETATM   25  H   UNL     1      26.573  42.350  51.857  1.00  0.00     0.192 HD
BRANCH  22  26
HETATM   26  C   UNL     1      29.146  44.543  54.820  1.00  0.00     0.038 A 
HETATM   27  C   UNL     1      30.229  43.805  55.309  1.00  0.00     0.053 A 
HETATM   28  C   UNL     1      30.847  44.180  56.505  1.00  0.00     0.036 A 
HETATM   29  C   UNL     1      30.397  45.284  57.224  1.00  0.00     0.024 A 
HETATM   30 CL   UNL     1      32.184  43.270  57.099  1.00  0.00    -0.084 Cl
HETATM   31  C   UNL     1      29.322  46.026  56.741  1.00  0.00     0.004 A 
HETATM   32  C   UNL     1      28.703  45.658  55.542  1.00  0.00     0.029 A 
ENDBRANCH  22  26
ENDBRANCH   1  20
TORSDOF 5
ENDMDL
MODEL 2
REMARK VINA RESULT:      -9.4      1.965     11.367
REMARK  5 active torsions:
REMARK  status: ('A' for Active; 'I' for Inactive)
REMARK    1  A    between atoms: C_6  and  N_7 
REMARK       I    between atoms: N_7  and  C_8 
REMARK       I    between atoms: C_8  and  N_9 
REMARK    2  A    between atoms: N_9  and  N_10 
REMARK       I    between atoms: N_10  and  C_11 
REMARK    3  A    between atoms: C_11  and  C_12 
REMARK    4  A    between atoms: C_12  and  N_13 
REMARK       I    between atoms: N_13  and  C_14 
REMARK       I    between atoms: C_14  and  N_15 
REMARK    5  A    between atoms: N_15  and  C_16 
ROOT
HETATM    1  N   UNL     1      23.824  47.694  49.926  1.00  0.00    -0.265 N 
HETATM    2  C   UNL     1      24.943  47.425  50.698  1.00  0.00     0.253 C 
HETATM    3  O   UNL     1      26.019  48.001  50.528  1.00  0.00    -0.270 OA
HETATM    4  H   UNL     1      23.164  46.915  49.809  1.00  0.00     0.190 HD
ENDROOT
BRANCH   2   5
HETATM    5  C   UNL     1      24.841  46.217  51.642  1.00  0.00     0.228 C 
BRANCH   5   6
HETATM    6  N   UNL     1      25.997  45.347  51.828  1.00  0.00    -0.334 N 
HETATM    7  C   UNL     1      26.843  45.527  52.895  1.00  0.00     0.321 C 
HETATM    8  N   UNL     1      27.566  44.396  53.185  1.00  0.00    -0.309 N 
HETATM    9  O   UNL     1      26.912  46.610  53.466  1.00  0.00    -0.247 OA
HETATM   10  H   UNL     1      27.216  43.530  52.802  1.00  0.00     0.170 HD
HETATM   11  H   UNL     1      25.891  44.406  51.480  1.00  0.00     0.164 HD
BRANCH   8  12
HETATM   12  C   UNL     1      28.587  44.277  54.153  1.00  0.00     0.038 A 
HETATM   13  C   UNL     1      28.706  45.122  55.260  1.00  0.00     0.055 A 
HETATM   14  C   UNL     1      29.754  44.955  56.176  1.00  0.00     0.058 A 
HETATM   15 CL   UNL     1      29.843  46.054  57.506  1.00  0.00    -0.082 Cl
HETATM   16  C   UNL     1      30.689  43.933  55.990  1.00  0.00     0.055 A 
HETATM   17 CL   UNL     1      32.001  43.661  57.079  1.00  0.00    -0.083 Cl
HETATM   18  C   UNL     1      30.578  43.090  54.883  1.00  0.00     0.028 A 
HETATM   19  C   UNL     1      29.539  43.268  53.964  1.00  0.00     0.031 A 
ENDBRANCH   8  12
ENDBRANCH   5   6
ENDBRANCH   2   5
BRANCH   1  20
HETATM   20  N   UNL     1      24.052  48.444  48.752  1.00  0.00    -0.249 N 
HETATM   21  C   UNL     1      23.170  49.386  48.270  1.00  0.00     0.339 C 
HETATM   22  N   UNL     1      21.963  49.398  48.923  1.00  0.00    -0.308 N 
HETATM   23  O   UNL     1      23.509  50.105  47.336  1.00  0.00    -0.245 OA
HETATM   24  H   UNL     1      21.949  48.807  49.742  1.00  0.00     0.170 HD
HETATM   25  H   UNL     1      25.017  48.552  48.447  1.00  0.00     0.192 HD
BRANCH  22  26
HETATM   26  C   UNL     1      20.843  50.208  48.658  1.00  0.00     0.038 A 
HETATM   27  C   UNL     1      20.126  50.169  47.458  1.00  0.00     0.053 A 
HETATM   28  C   UNL     1      19.024  51.008  47.274  1.00  0.00     0.036 A 
HETATM   29  C   UNL     1      18.627  51.891  48.276  1.00  0.00     0.024 A 
HETATM   30 CL   UNL     1      18.142  50.952  45.796  1.00  0.00    -0.084 Cl
HETATM   31  C   UNL     1      19.333  51.932  49.475  1.00  0.00     0.004 A 
HETATM   32  C   UNL     1      20.433  51.090  49.665  1.00  0.00     0.029 A 
ENDBRANCH  22  26
ENDBRANCH   1  20
TORSDOF 5
ENDMDL
MODEL 3
REMARK VINA RESULT:      -9.2      1.727      2.035
REMARK  5 active torsions:
REMARK  status: ('A' for Active; 'I' for Inactive)
REMARK    1  A    between atoms: C_6  and  N_7 
REMARK       I    between atoms: N_7  and  C_8 
REMARK       I    between atoms: C_8  and  N_9 
REMARK    2  A    between atoms: N_9  and  N_10 
REMARK       I    between atoms: N_10  and  C_11 
REMARK    3  A    between atoms: C_11  and  C_12 
REMARK    4  A    between atoms: C_12  and  N_13 
REMARK       I    between atoms: N_13  and  C_14 
REMARK       I    between atoms: C_14  and  N_15 
REMARK    5  A    between atoms: N_15  and  C_16 
ROOT
HETATM    1  N   UNL     1      26.182  45.488  51.484  1.00  0.00    -0.265 N 
HETATM    2  C   UNL     1      25.740  46.780  51.243  1.00  0.00     0.253 C 
HETATM    3  O   UNL     1      25.143  47.445  52.091  1.00  0.00    -0.270 OA
HETATM    4  H   UNL     1      26.236  44.874  50.662  1.00  0.00     0.190 HD
ENDROOT
BRANCH   2   5
HETATM    5  C   UNL     1      25.840  47.270  49.790  1.00  0.00     0.228 C 
BRANCH   5   6
HETATM    6  N   UNL     1      25.075  48.437  49.368  1.00  0.00    -0.334 N 
HETATM    7  C   UNL     1      23.706  48.376  49.266  1.00  0.00     0.321 C 
HETATM    8  N   UNL     1      23.122  49.619  49.321  1.00  0.00    -0.309 N 
HETATM    9  O   UNL     1      23.135  47.302  49.122  1.00  0.00    -0.247 OA
HETATM   10  H   UNL     1      23.690  50.364  49.695  1.00  0.00     0.170 HD
HETATM   11  H   UNL     1      25.478  49.330  49.610  1.00  0.00     0.164 HD
BRANCH   8  12
HETATM   12  C   UNL     1      21.752  49.910  49.147  1.00  0.00     0.038 A 
HETATM   13  C   UNL     1      20.728  48.991  49.391  1.00  0.00     0.055 A 
HETATM   14  C   UNL     1      19.388  49.345  49.185  1.00  0.00     0.058 A 
HETATM   15 CL   UNL     1      18.183  48.144  49.489  1.00  0.00    -0.082 Cl
HETATM   16  C   UNL     1      19.063  50.629  48.738  1.00  0.00     0.055 A 
HETATM   17 CL   UNL     1      17.436  51.139  48.469  1.00  0.00    -0.083 Cl
HETATM   18  C   UNL     1      20.083  51.549  48.487  1.00  0.00     0.028 A 
HETATM   19  C   UNL     1      21.420  51.189  48.681  1.00  0.00     0.031 A 
ENDBRANCH   8  12
ENDBRANCH   5   6
ENDBRANCH   2   5
BRANCH   1  20
HETATM   20  N   UNL     1      25.664  44.867  52.641  1.00  0.00    -0.249 N 
HETATM   21  C   UNL     1      26.422  44.594  53.759  1.00  0.00     0.339 C 
HETATM   22  N   UNL     1      27.766  44.805  53.581  1.00  0.00    -0.308 N 
HETATM   23  O   UNL     1      25.867  44.198  54.778  1.00  0.00    -0.245 OA
HETATM   24  H   UNL     1      27.984  45.252  52.702  1.00  0.00     0.170 HD
HETATM   25  H   UNL     1      24.661  44.934  52.798  1.00  0.00     0.192 HD
BRANCH  22  26
HETATM   26  C   UNL     1      28.806  44.591  54.504  1.00  0.00     0.038 A 
HETATM   27  C   UNL     1      29.059  45.430  55.594  1.00  0.00     0.053 A 
HETATM   28  C   UNL     1      30.114  45.147  56.465  1.00  0.00     0.036 A 
HETATM   29  C   UNL     1      30.925  44.034  56.262  1.00  0.00     0.024 A 
HETATM   30 CL   UNL     1      30.416  46.182  57.808  1.00  0.00    -0.084 Cl
HETATM   31  C   UNL     1      30.677  43.191  55.181  1.00  0.00     0.004 A 
HETATM   32  C   UNL     1      29.619  43.468  54.310  1.00  0.00     0.029 A 
ENDBRANCH  22  26
ENDBRANCH   1  20
TORSDOF 5
ENDMDL
MODEL 4
REMARK VINA RESULT:      -8.9      2.049     10.631
REMARK  5 active torsions:
REMARK  status: ('A' for Active; 'I' for Inactive)
REMARK    1  A    between atoms: C_6  and  N_7 
REMARK       I    between atoms: N_7  and  C_8 
REMARK       I    between atoms: C_8  and  N_9 
REMARK    2  A    between atoms: N_9  and  N_10 
REMARK       I    between atoms: N_10  and  C_11 
REMARK    3  A    between atoms: C_11  and  C_12 
REMARK    4  A    between atoms: C_12  and  N_13 
REMARK       I    between atoms: N_13  and  C_14 
REMARK       I    between atoms: C_14  and  N_15 
REMARK    5  A    between atoms: N_15  and  C_16 
ROOT
HETATM    1  N   UNL     1      22.431  44.870  49.896  1.00  0.00    -0.265 N 
HETATM    2  C   UNL     1      23.641  44.318  49.507  1.00  0.00     0.253 C 
HETATM    3  O   UNL     1      23.970  44.207  48.324  1.00  0.00    -0.270 OA
HETATM    4  H   UNL     1      22.048  44.525  50.784  1.00  0.00     0.190 HD
ENDROOT
BRANCH   2   5
HETATM    5  C   UNL     1      24.470  43.652  50.616  1.00  0.00     0.228 C 
BRANCH   5   6
HETATM    6  N   UNL     1      25.807  44.150  50.917  1.00  0.00    -0.334 N 
HETATM    7  C   UNL     1      26.362  43.958  52.159  1.00  0.00     0.321 C 
HETATM    8  N   UNL     1      27.732  44.053  52.140  1.00  0.00    -0.309 N 
HETATM    9  O   UNL     1      25.654  43.749  53.137  1.00  0.00    -0.247 OA
HETATM   10  H   UNL     1      28.174  43.971  51.236  1.00  0.00     0.170 HD
HETATM   11  H   UNL     1      26.440  44.192  50.133  1.00  0.00     0.164 HD
BRANCH   8  12
HETATM   12  C   UNL     1      28.593  44.004  53.257  1.00  0.00     0.038 A 
HETATM   13  C   UNL     1      28.510  44.886  54.338  1.00  0.00     0.055 A 
HETATM   14  C   UNL     1      29.407  44.787  55.410  1.00  0.00     0.058 A 
HETATM   15 CL   UNL     1      29.251  45.930  56.697  1.00  0.00    -0.082 Cl
HETATM   16  C   UNL     1      30.394  43.797  55.408  1.00  0.00     0.055 A 
HETATM   17 CL   UNL     1      31.528  43.609  56.696  1.00  0.00    -0.083 Cl
HETATM   18  C   UNL     1      30.485  42.917  54.328  1.00  0.00     0.028 A 
HETATM   19  C   UNL     1      29.596  43.026  53.254  1.00  0.00     0.031 A 
ENDBRANCH   8  12
ENDBRANCH   5   6
ENDBRANCH   2   5
BRANCH   1  20
HETATM   20  N   UNL     1      21.472  45.032  48.872  1.00  0.00    -0.249 N 
HETATM   21  C   UNL     1      21.055  46.261  48.412  1.00  0.00     0.339 C 
HETATM   22  N   UNL     1      21.510  47.316  49.162  1.00  0.00    -0.308 N 
HETATM   23  O   UNL     1      20.339  46.319  47.418  1.00  0.00    -0.245 OA
HETATM   24  H   UNL     1      22.188  47.044  49.859  1.00  0.00     0.170 HD
HETATM   25  H   UNL     1      21.341  44.255  48.228  1.00  0.00     0.192 HD
BRANCH  22  26
HETATM   26  C   UNL     1      21.242  48.686  48.982  1.00  0.00     0.038 A 
HETATM   27  C   UNL     1      20.114  49.329  49.501  1.00  0.00     0.053 A 
HETATM   28  C   UNL     1      19.921  50.694  49.276  1.00  0.00     0.036 A 
HETATM   29  C   UNL     1      20.843  51.431  48.536  1.00  0.00     0.024 A 
HETATM   30 CL   UNL     1      18.532  51.481  49.922  1.00  0.00    -0.084 Cl
HETATM   31  C   UNL     1      21.971  50.798  48.019  1.00  0.00     0.004 A 
HETATM   32  C   UNL     1      22.170  49.433  48.247  1.00  0.00     0.029 A 
ENDBRANCH  22  26
ENDBRANCH   1  20
TORSDOF 5
ENDMDL
MODEL 5
REMARK VINA RESULT:      -8.9      1.664      2.122
REMARK  5 active torsions:
REMARK  status: ('A' for Active; 'I' for Inactive)
REMARK    1  A    between atoms: C_6  and  N_7 
REMARK       I    between atoms: N_7  and  C_8 
REMARK       I    between atoms: C_8  and  N_9 
REMARK    2  A    between atoms: N_9  and  N_10 
REMARK       I    between atoms: N_10  and  C_11 
REMARK    3  A    between atoms: C_11  and  C_12 
REMARK    4  A    between atoms: C_12  and  N_13 
REMARK       I    between atoms: N_13  and  C_14 
REMARK       I    between atoms: C_14  and  N_15 
REMARK    5  A    between atoms: N_15  and  C_16 
ROOT
HETATM    1  N   UNL     1      26.545  44.699  51.346  1.00  0.00    -0.265 N 
HETATM    2  C   UNL     1      26.620  45.605  50.299  1.00  0.00     0.253 C 
HETATM    3  O   UNL     1      27.240  45.368  49.261  1.00  0.00    -0.270 OA
HETATM    4  H   UNL     1      26.432  45.106  52.282  1.00  0.00     0.190 HD
ENDROOT
BRANCH   2   5
HETATM    5  C   UNL     1      26.068  47.011  50.580  1.00  0.00     0.228 C 
BRANCH   5   6
HETATM    6  N   UNL     1      24.626  47.221  50.646  1.00  0.00    -0.334 N 
HETATM    7  C   UNL     1      23.988  47.993  49.705  1.00  0.00     0.321 C 
HETATM    8  N   UNL     1      22.645  47.717  49.627  1.00  0.00    -0.309 N 
HETATM    9  O   UNL     1      24.605  48.830  49.057  1.00  0.00    -0.247 OA
HETATM   10  H   UNL     1      22.343  46.842  50.030  1.00  0.00     0.170 HD
HETATM   11  H   UNL     1      24.097  46.467  51.057  1.00  0.00     0.164 HD
BRANCH   8  12
HETATM   12  C   UNL     1      21.693  48.396  48.837  1.00  0.00     0.038 A 
HETATM   13  C   UNL     1      21.344  49.736  49.026  1.00  0.00     0.055 A 
HETATM   14  C   UNL     1      20.380  50.344  48.211  1.00  0.00     0.058 A 
HETATM   15 CL   UNL     1      19.989  51.998  48.524  1.00  0.00    -0.082 Cl
HETATM   16  C   UNL     1      19.760  49.613  47.193  1.00  0.00     0.055 A 
HETATM   17 CL   UNL     1      18.571  50.296  46.146  1.00  0.00    -0.083 Cl
HETATM   18  C   UNL     1      20.101  48.272  47.004  1.00  0.00     0.028 A 
HETATM   19  C   UNL     1      21.055  47.665  47.827  1.00  0.00     0.031 A 
ENDBRANCH   8  12
ENDBRANCH   5   6
ENDBRANCH   2   5
BRANCH   1  20
HETATM   20  N   UNL     1      27.449  43.616  51.287  1.00  0.00    -0.249 N 
HETATM   21  C   UNL     1      28.331  43.308  52.299  1.00  0.00     0.339 C 
HETATM   22  N   UNL     1      28.388  44.255  53.291  1.00  0.00    -0.308 N 
HETATM   23  O   UNL     1      28.971  42.264  52.241  1.00  0.00    -0.245 OA
HETATM   24  H   UNL     1      27.681  44.971  53.196  1.00  0.00     0.170 HD
HETATM   25  H   UNL     1      27.220  42.850  50.658  1.00  0.00     0.192 HD
BRANCH  22  26
HETATM   26  C   UNL     1      29.202  44.260  54.438  1.00  0.00     0.038 A 
HETATM   27  C   UNL     1      29.056  45.172  55.488  1.00  0.00     0.053 A 
HETATM   28  C   UNL     1      29.908  45.109  56.593  1.00  0.00     0.036 A 
HETATM   29  C   UNL     1      30.912  44.146  56.664  1.00  0.00     0.024 A 
HETATM   30 CL   UNL     1      29.719  46.231  57.886  1.00  0.00    -0.084 Cl
HETATM   31  C   UNL     1      31.061  43.232  55.624  1.00  0.00     0.004 A 
HETATM   32  C   UNL     1      30.207  43.288  54.519  1.00  0.00     0.029 A 
ENDBRANCH  22  26
ENDBRANCH   1  20
TORSDOF 5
ENDMDL
MODEL 6
REMARK VINA RESULT:      -8.9      5.395      7.794
REMARK  5 active torsions:
REMARK  status: ('A' for Active; 'I' for Inactive)
REMARK    1  A    between atoms: C_6  and  N_7 
REMARK       I    between atoms: N_7  and  C_8 
REMARK       I    between atoms: C_8  and  N_9 
REMARK    2  A    between atoms: N_9  and  N_10 
REMARK       I    between atoms: N_10  and  C_11 
REMARK    3  A    between atoms: C_11  and  C_12 
REMARK    4  A    between atoms: C_12  and  N_13 
REMARK       I    between atoms: N_13  and  C_14 
REMARK       I    between atoms: C_14  and  N_15 
REMARK    5  A    between atoms: N_15  and  C_16 
ROOT
HETATM    1  N   UNL     1      25.823  45.938  52.186  1.00  0.00    -0.265 N 
HETATM    2  C   UNL     1      25.111  46.458  51.117  1.00  0.00     0.253 C 
HETATM    3  O   UNL     1      24.786  47.645  51.052  1.00  0.00    -0.270 OA
HETATM    4  H   UNL     1      25.659  44.945  52.391  1.00  0.00     0.190 HD
ENDROOT
BRANCH   2   5
HETATM    5  C   UNL     1      24.558  45.438  50.110  1.00  0.00     0.228 C 
BRANCH   5   6
HETATM    6  N   UNL     1      24.622  44.014  50.417  1.00  0.00    -0.334 N 
HETATM    7  C   UNL     1      25.770  43.298  50.176  1.00  0.00     0.321 C 
HETATM    8  N   UNL     1      25.832  42.145  50.921  1.00  0.00    -0.309 N 
HETATM    9  O   UNL     1      26.594  43.690  49.359  1.00  0.00    -0.247 OA
HETATM   10  H   UNL     1      25.217  42.095  51.720  1.00  0.00     0.170 HD
HETATM   11  H   UNL     1      24.044  43.710  51.185  1.00  0.00     0.164 HD
BRANCH   8  12
HETATM   12  C   UNL     1      26.825  41.145  50.839  1.00  0.00     0.038 A 
HETATM   13  C   UNL     1      26.810  40.117  49.893  1.00  0.00     0.055 A 
HETATM   14  C   UNL     1      27.823  39.148  49.877  1.00  0.00     0.058 A 
HETATM   15 CL   UNL     1      27.721  37.897  48.689  1.00  0.00    -0.082 Cl
HETATM   16  C   UNL     1      28.864  39.207  50.808  1.00  0.00     0.055 A 
HETATM   17 CL   UNL     1      30.149  38.056  50.845  1.00  0.00    -0.083 Cl
HETATM   18  C   UNL     1      28.880  40.230  51.759  1.00  0.00     0.028 A 
HETATM   19  C   UNL     1      27.861  41.187  51.780  1.00  0.00     0.031 A 
ENDBRANCH   8  12
ENDBRANCH   5   6
ENDBRANCH   2   5
BRANCH   1  20
HETATM   20  N   UNL     1      25.907  46.762  53.329  1.00  0.00    -0.249 N 
HETATM   21  C   UNL     1      26.898  46.646  54.278  1.00  0.00     0.339 C 
HETATM   22  N   UNL     1      27.692  45.538  54.116  1.00  0.00    -0.308 N 
HETATM   23  O   UNL     1      26.993  47.496  55.156  1.00  0.00    -0.245 OA
HETATM   24  H   UNL     1      27.513  45.045  53.252  1.00  0.00     0.170 HD
HETATM   25  H   UNL     1      25.447  47.668  53.285  1.00  0.00     0.192 HD
BRANCH  22  26
HETATM   26  C   UNL     1      28.762  45.113  54.924  1.00  0.00     0.038 A 
HETATM   27  C   UNL     1      29.177  45.787  56.077  1.00  0.00     0.053 A 
HETATM   28  C   UNL     1      30.251  45.298  56.824  1.00  0.00     0.036 A 
HETATM   29  C   UNL     1      30.922  44.141  56.435  1.00  0.00     0.024 A 
HETATM   30 CL   UNL     1      30.754  46.130  58.246  1.00  0.00    -0.084 Cl
HETATM   31  C   UNL     1      30.512  43.462  55.290  1.00  0.00     0.004 A 
HETATM   32  C   UNL     1      29.434  43.945  54.542  1.00  0.00     0.029 A 
ENDBRANCH  22  26
ENDBRANCH   1  20
TORSDOF 5
ENDMDL
MODEL 7
REMARK VINA RESULT:      -8.8      4.347      8.600
REMARK  5 active torsions:
REMARK  status: ('A' for Active; 'I' for Inactive)
REMARK    1  A    between atoms: C_6  and  N_7 
REMARK       I    between atoms: N_7  and  C_8 
REMARK       I    between atoms: C_8  and  N_9 
REMARK    2  A    between atoms: N_9  and  N_10 
REMARK       I    between atoms: N_10  and  C_11 
REMARK    3  A    between atoms: C_11  and  C_12 
REMARK    4  A    between atoms: C_12  and  N_13 
REMARK       I    between atoms: N_13  and  C_14 
REMARK       I    between atoms: C_14  and  N_15 
REMARK    5  A    between atoms: N_15  and  C_16 
ROOT
HETATM    1  N   UNL     1      26.822  40.876  49.039  1.00  0.00    -0.265 N 
HETATM    2  C   UNL     1      27.052  39.760  49.828  1.00  0.00     0.253 C 
HETATM    3  O   UNL     1      26.139  39.050  50.255  1.00  0.00    -0.270 OA
HETATM    4  H   UNL     1      27.521  41.626  49.112  1.00  0.00     0.190 HD
ENDROOT
BRANCH   2   5
HETATM    5  C   UNL     1      28.493  39.566  50.325  1.00  0.00     0.228 C 
BRANCH   5   6
HETATM    6  N   UNL     1      28.872  40.053  51.646  1.00  0.00    -0.334 N 
HETATM    7  C   UNL     1      28.668  41.368  51.991  1.00  0.00     0.321 C 
HETATM    8  N   UNL     1      28.633  41.551  53.353  1.00  0.00    -0.309 N 
HETATM    9  O   UNL     1      28.560  42.233  51.131  1.00  0.00    -0.247 OA
HETATM   10  H   UNL     1      28.479  40.724  53.911  1.00  0.00     0.170 HD
HETATM   11  H   UNL     1      28.828  39.371  52.388  1.00  0.00     0.164 HD
BRANCH   8  12
HETATM   12  C   UNL     1      28.539  42.784  54.031  1.00  0.00     0.038 A 
HETATM   13  C   UNL     1      29.616  43.395  54.680  1.00  0.00     0.055 A 
HETATM   14  C   UNL     1      29.448  44.616  55.347  1.00  0.00     0.058 A 
HETATM   15 CL   UNL     1      30.824  45.294  56.142  1.00  0.00    -0.082 Cl
HETATM   16  C   UNL     1      28.196  45.239  55.363  1.00  0.00     0.055 A 
HETATM   17 CL   UNL     1      27.915  46.746  56.156  1.00  0.00    -0.083 Cl
HETATM   18  C   UNL     1      27.116  44.630  54.722  1.00  0.00     0.028 A 
HETATM   19  C   UNL     1      27.284  43.405  54.069  1.00  0.00     0.031 A 
ENDBRANCH   8  12
ENDBRANCH   5   6
ENDBRANCH   2   5
BRANCH   1  20
HETATM   20  N   UNL     1      25.486  41.329  48.989  1.00  0.00    -0.249 N 
HETATM   21  C   UNL     1      25.111  42.621  49.286  1.00  0.00     0.339 C 
HETATM   22  N   UNL     1      26.121  43.382  49.818  1.00  0.00    -0.308 N 
HETATM   23  O   UNL     1      23.957  42.977  49.069  1.00  0.00    -0.245 OA
HETATM   24  H   UNL     1      27.020  42.922  49.790  1.00  0.00     0.170 HD
HETATM   25  H   UNL     1      24.839  40.810  48.400  1.00  0.00     0.192 HD
BRANCH  22  26
HETATM   26  C   UNL     1      26.061  44.717  50.255  1.00  0.00     0.038 A 
HETATM   27  C   UNL     1      26.679  45.780  49.589  1.00  0.00     0.053 A 
HETATM   28  C   UNL     1      26.571  47.079  50.092  1.00  0.00     0.036 A 
HETATM   29  C   UNL     1      25.852  47.334  51.257  1.00  0.00     0.024 A 
HETATM   30 CL   UNL     1      27.331  48.384  49.263  1.00  0.00    -0.084 Cl
HETATM   31  C   UNL     1      25.230  46.281  51.924  1.00  0.00     0.004 A 
HETATM   32  C   UNL     1      25.331  44.981  51.422  1.00  0.00     0.029 A 
ENDBRANCH  22  26
ENDBRANCH   1  20
TORSDOF 5
ENDMDL
MODEL 8
REMARK VINA RESULT:      -8.5     12.227     14.799
REMARK  5 active torsions:
REMARK  status: ('A' for Active; 'I' for Inactive)
REMARK    1  A    between atoms: C_6  and  N_7 
REMARK       I    between atoms: N_7  and  C_8 
REMARK       I    between atoms: C_8  and  N_9 
REMARK    2  A    between atoms: N_9  and  N_10 
REMARK       I    between atoms: N_10  and  C_11 
REMARK    3  A    between atoms: C_11  and  C_12 
REMARK    4  A    between atoms: C_12  and  N_13 
REMARK       I    between atoms: N_13  and  C_14 
REMARK       I    between atoms: C_14  and  N_15 
REMARK    5  A    between atoms: N_15  and  C_16 
ROOT
HETATM    1  N   UNL     1      27.110  48.504  38.650  1.00  0.00    -0.265 N 
HETATM    2  C   UNL     1      26.331  48.163  39.744  1.00  0.00     0.253 C 
HETATM    3  O   UNL     1      25.352  48.826  40.093  1.00  0.00    -0.270 OA
HETATM    4  H   UNL     1      28.095  48.217  38.696  1.00  0.00     0.190 HD
ENDROOT
BRANCH   2   5
HETATM    5  C   UNL     1      26.872  47.035  40.635  1.00  0.00     0.228 C 
BRANCH   5   6
HETATM    6  N   UNL     1      27.898  47.329  41.629  1.00  0.00    -0.334 N 
HETATM    7  C   UNL     1      29.120  47.827  41.246  1.00  0.00     0.321 C 
HETATM    8  N   UNL     1      29.768  48.470  42.273  1.00  0.00    -0.309 N 
HETATM    9  O   UNL     1      29.535  47.663  40.105  1.00  0.00    -0.247 OA
HETATM   10  H   UNL     1      29.198  48.743  43.060  1.00  0.00     0.170 HD
HETATM   11  H   UNL     1      27.556  47.602  42.538  1.00  0.00     0.164 HD
BRANCH   8  12
HETATM   12  C   UNL     1      31.073  49.004  42.238  1.00  0.00     0.038 A 
HETATM   13  C   UNL     1      31.490  50.082  43.024  1.00  0.00     0.055 A 
HETATM   14  C   UNL     1      32.800  50.571  42.928  1.00  0.00     0.058 A 
HETATM   15 CL   UNL     1      33.230  51.920  43.919  1.00  0.00    -0.082 Cl
HETATM   16  C   UNL     1      33.707  49.976  42.046  1.00  0.00     0.055 A 
HETATM   17 CL   UNL     1      35.337  50.517  41.880  1.00  0.00    -0.083 Cl
HETATM   18  C   UNL     1      33.294  48.903  41.254  1.00  0.00     0.028 A 
HETATM   19  C   UNL     1      31.982  48.426  41.342  1.00  0.00     0.031 A 
ENDBRANCH   8  12
ENDBRANCH   5   6
ENDBRANCH   2   5
BRANCH   1  20
HETATM   20  N   UNL     1      26.905  49.800  38.129  1.00  0.00    -0.249 N 
HETATM   21  C   UNL     1      27.772  50.850  38.341  1.00  0.00     0.339 C 
HETATM   22  N   UNL     1      28.755  50.578  39.259  1.00  0.00    -0.308 N 
HETATM   23  O   UNL     1      27.607  51.899  37.729  1.00  0.00    -0.245 OA
HETATM   24  H   UNL     1      28.774  49.608  39.544  1.00  0.00     0.170 HD
HETATM   25  H   UNL     1      26.308  49.885  37.309  1.00  0.00     0.192 HD
BRANCH  22  26
HETATM   26  C   UNL     1      29.768  51.436  39.723  1.00  0.00     0.038 A 
HETATM   27  C   UNL     1      31.080  51.419  39.240  1.00  0.00     0.053 A 
HETATM   28  C   UNL     1      32.027  52.307  39.756  1.00  0.00     0.036 A 
HETATM   29  C   UNL     1      31.683  53.215  40.754  1.00  0.00     0.024 A 
HETATM   30 CL   UNL     1      33.640  52.284  39.152  1.00  0.00    -0.084 Cl
HETATM   31  C   UNL     1      30.377  53.241  41.238  1.00  0.00     0.004 A 
HETATM   32  C   UNL     1      29.424  52.358  40.720  1.00  0.00     0.029 A 
ENDBRANCH  22  26
ENDBRANCH   1  20
TORSDOF 5
ENDMDL
MODEL 9
REMARK VINA RESULT:      -8.4      2.868      9.649
REMARK  5 active torsions:
REMARK  status: ('A' for Active; 'I' for Inactive)
REMARK    1  A    between atoms: C_6  and  N_7 
REMARK       I    between atoms: N_7  and  C_8 
REMARK       I    between atoms: C_8  and  N_9 
REMARK    2  A    between atoms: N_9  and  N_10 
REMARK       I    between atoms: N_10  and  C_11 
REMARK    3  A    between atoms: C_11  and  C_12 
REMARK    4  A    between atoms: C_12  and  N_13 
REMARK       I    between atoms: N_13  and  C_14 
REMARK       I    between atoms: C_14  and  N_15 
REMARK    5  A    between atoms: N_15  and  C_16 
ROOT
HETATM    1  N   UNL     1      26.213  42.288  51.243  1.00  0.00    -0.265 N 
HETATM    2  C   UNL     1      26.803  41.489  50.277  1.00  0.00     0.253 C 
HETATM    3  O   UNL     1      26.157  40.958  49.371  1.00  0.00    -0.270 OA
HETATM    4  H   UNL     1      26.681  42.304  52.157  1.00  0.00     0.190 HD
ENDROOT
BRANCH   2   5
HETATM    5  C   UNL     1      28.276  41.120  50.510  1.00  0.00     0.228 C 
BRANCH   5   6
HETATM    6  N   UNL     1      28.824  41.155  51.861  1.00  0.00    -0.334 N 
HETATM    7  C   UNL     1      29.064  42.354  52.488  1.00  0.00     0.321 C 
HETATM    8  N   UNL     1      29.122  42.227  53.854  1.00  0.00    -0.309 N 
HETATM    9  O   UNL     1      29.221  43.381  51.838  1.00  0.00    -0.247 OA
HETATM   10  H   UNL     1      28.723  41.386  54.243  1.00  0.00     0.170 HD
HETATM   11  H   UNL     1      28.580  40.371  52.448  1.00  0.00     0.164 HD
BRANCH   8  12
HETATM   12  C   UNL     1      29.448  43.243  54.778  1.00  0.00     0.038 A 
HETATM   13  C   UNL     1      28.693  44.406  54.949  1.00  0.00     0.055 A 
HETATM   14  C   UNL     1      29.083  45.381  55.877  1.00  0.00     0.058 A 
HETATM   15 CL   UNL     1      28.106  46.800  56.011  1.00  0.00    -0.082 Cl
HETATM   16  C   UNL     1      30.233  45.193  56.648  1.00  0.00     0.055 A 
HETATM   17 CL   UNL     1      30.771  46.344  57.816  1.00  0.00    -0.083 Cl
HETATM   18  C   UNL     1      30.995  44.035  56.478  1.00  0.00     0.028 A 
HETATM   19  C   UNL     1      30.610  43.071  55.541  1.00  0.00     0.031 A 
ENDBRANCH   8  12
ENDBRANCH   5   6
ENDBRANCH   2   5
BRANCH   1  20
HETATM   20  N   UNL     1      24.804  42.230  51.313  1.00  0.00    -0.249 N 
HETATM   21  C   UNL     1      23.978  43.196  50.781  1.00  0.00     0.339 C 
HETATM   22  N   UNL     1      24.643  44.313  50.344  1.00  0.00    -0.308 N 
HETATM   23  O   UNL     1      22.768  42.997  50.743  1.00  0.00    -0.245 OA
HETATM   24  H   UNL     1      25.648  44.207  50.357  1.00  0.00     0.170 HD
HETATM   25  H   UNL     1      24.380  41.314  51.442  1.00  0.00     0.192 HD
BRANCH  22  26
HETATM   26  C   UNL     1      24.097  45.483  49.785  1.00  0.00     0.038 A 
HETATM   27  C   UNL     1      23.126  45.482  48.779  1.00  0.00     0.053 A 
HETATM   28  C   UNL     1      22.636  46.690  48.278  1.00  0.00     0.036 A 
HETATM   29  C   UNL     1      23.104  47.907  48.769  1.00  0.00     0.024 A 
HETATM   30 CL   UNL     1      21.436  46.681  47.042  1.00  0.00    -0.084 Cl
HETATM   31  C   UNL     1      24.068  47.917  49.774  1.00  0.00     0.004 A 
HETATM   32  C   UNL     1      24.558  46.710  50.282  1.00  0.00     0.029 A 
ENDBRANCH  22  26
ENDBRANCH   1  20
TORSDOF 5
ENDMDL
MODEL 10
REMARK VINA RESULT:      -8.4      2.456      3.420
REMARK  5 active torsions:
REMARK  status: ('A' for Active; 'I' for Inactive)
REMARK    1  A    between atoms: C_6  and  N_7 
REMARK       I    between atoms: N_7  and  C_8 
REMARK       I    between atoms: C_8  and  N_9 
REMARK    2  A    between atoms: N_9  and  N_10 
REMARK       I    between atoms: N_10  and  C_11 
REMARK    3  A    between atoms: C_11  and  C_12 
REMARK    4  A    between atoms: C_12  and  N_13 
REMARK       I    between atoms: N_13  and  C_14 
REMARK       I    between atoms: C_14  and  N_15 
REMARK    5  A    between atoms: N_15  and  C_16 
ROOT
HETATM    1  N   UNL     1      25.100  46.675  52.216  1.00  0.00    -0.265 N 
HETATM    2  C   UNL     1      25.472  47.274  51.024  1.00  0.00     0.253 C 
HETATM    3  O   UNL     1      26.486  47.968  50.919  1.00  0.00    -0.270 OA
HETATM    4  H   UNL     1      24.092  46.526  52.346  1.00  0.00     0.190 HD
ENDROOT
BRANCH   2   5
HETATM    5  C   UNL     1      24.445  47.210  49.883  1.00  0.00     0.228 C 
BRANCH   5   6
HETATM    6  N   UNL     1      23.252  48.047  49.938  1.00  0.00    -0.334 N 
HETATM    7  C   UNL     1      22.298  47.970  48.952  1.00  0.00     0.321 C 
HETATM    8  N   UNL     1      21.077  48.441  49.369  1.00  0.00    -0.309 N 
HETATM    9  O   UNL     1      22.578  47.538  47.840  1.00  0.00    -0.247 OA
HETATM   10  H   UNL     1      20.943  48.517  50.366  1.00  0.00     0.170 HD
HETATM   11  H   UNL     1      22.936  48.291  50.864  1.00  0.00     0.164 HD
BRANCH   8  12
HETATM   12  C   UNL     1      19.919  48.591  48.575  1.00  0.00     0.038 A 
HETATM   13  C   UNL     1      19.828  49.477  47.498  1.00  0.00     0.055 A 
HETATM   14  C   UNL     1      18.642  49.583  46.760  1.00  0.00     0.058 A 
HETATM   15 CL   UNL     1      18.604  50.718  45.457  1.00  0.00    -0.082 Cl
HETATM   16  C   UNL     1      17.536  48.795  47.094  1.00  0.00     0.055 A 
HETATM   17 CL   UNL     1      16.045  48.866  46.227  1.00  0.00    -0.083 Cl
HETATM   18  C   UNL     1      17.620  47.913  48.173  1.00  0.00     0.028 A 
HETATM   19  C   UNL     1      18.801  47.819  48.915  1.00  0.00     0.031 A 
ENDBRANCH   8  12
ENDBRANCH   5   6
ENDBRANCH   2   5
BRANCH   1  20
HETATM   20  N   UNL     1      25.774  47.130  53.370  1.00  0.00    -0.249 N 
HETATM   21  C   UNL     1      26.914  46.537  53.866  1.00  0.00     0.339 C 
HETATM   22  N   UNL     1      27.233  45.352  53.253  1.00  0.00    -0.308 N 
HETATM   23  O   UNL     1      27.527  47.083  54.778  1.00  0.00    -0.245 OA
HETATM   24  H   UNL     1      26.660  45.158  52.444  1.00  0.00     0.170 HD
HETATM   25  H   UNL     1      25.631  48.100  53.642  1.00  0.00     0.192 HD
BRANCH  22  26
HETATM   26  C   UNL     1      28.305  44.488  53.542  1.00  0.00     0.038 A 
HETATM   27  C   UNL     1      29.001  44.496  54.755  1.00  0.00     0.053 A 
HETATM   28  C   UNL     1      30.055  43.604  54.962  1.00  0.00     0.036 A 
HETATM   29  C   UNL     1      30.429  42.700  53.970  1.00  0.00     0.024 A 
HETATM   30 CL   UNL     1      30.905  43.615  56.461  1.00  0.00    -0.084 Cl
HETATM   31  C   UNL     1      29.738  42.684  52.761  1.00  0.00     0.004 A 
HETATM   32  C   UNL     1      28.679  43.571  52.552  1.00  0.00     0.029 A 
ENDBRANCH  22  26
ENDBRANCH   1  20
TORSDOF 5
ENDMDL
