MODEL 1
REMARK VINA RESULT:      -8.6      0.000      0.000
REMARK  5 active torsions:
REMARK  status: ('A' for Active; 'I' for Inactive)
REMARK    1  A    between atoms: C_4  and  C_5 
REMARK    2  A    between atoms: C_6  and  N_7 
REMARK    3  A    between atoms: C_9  and  C_10 
REMARK       I    between atoms: C_10  and  N_11 
REMARK    4  A    between atoms: N_11  and  C_12 
REMARK    5  A    between atoms: C_12  and  C_13 
ROOT
HETATM    1  C   UNL     1      28.078  44.552  54.470  1.00  0.00     0.019 A 
HETATM    2  C   UNL     1      27.070  45.401  54.135  1.00  0.00     0.111 A 
HETATM    3  C   UNL     1      26.882  46.678  54.950  1.00  0.00     0.273 A 
HETATM    4  O   UNL     1      25.973  47.479  54.729  1.00  0.00    -0.266 OA
HETATM    5  N   UNL     1      27.761  46.925  55.965  1.00  0.00    -0.321 N 
HETATM    6  C   UNL     1      28.816  46.083  56.299  1.00  0.00     0.046 A 
HETATM    7  C   UNL     1      29.005  44.899  55.582  1.00  0.00     0.006 A 
HETATM    8  C   UNL     1      29.669  46.448  57.344  1.00  0.00     0.032 A 
HETATM    9  C   UNL     1      30.743  45.623  57.678  1.00  0.00     0.026 A 
HETATM   10  C   UNL     1      30.950  44.443  56.967  1.00  0.00     0.035 A 
HETATM   11 CL   UNL     1      32.280  43.429  57.372  1.00  0.00    -0.084 Cl
HETATM   12  C   UNL     1      30.091  44.080  55.929  1.00  0.00     0.038 A 
HETATM   13  H   UNL     1      27.600  47.782  56.474  1.00  0.00     0.169 HD
ENDROOT
BRANCH   2  14
HETATM   14  N   UNL     1      26.168  45.179  53.067  1.00  0.00    -0.375 N 
HETATM   15  C   UNL     1      26.011  46.211  52.023  1.00  0.00     0.137 C 
HETATM   16  C   UNL     1      25.561  45.584  50.697  1.00  0.00     0.096 C 
HETATM   17  C   UNL     1      24.281  44.760  50.914  1.00  0.00     0.017 C 
HETATM   18  C   UNL     1      24.411  43.782  52.085  1.00  0.00     0.021 C 
HETATM   19  C   UNL     1      24.904  44.479  53.351  1.00  0.00     0.123 C 
BRANCH  16  20
HETATM   20  C   UNL     1      26.666  44.772  50.017  1.00  0.00     0.223 C 
HETATM   21  N   UNL     1      26.274  43.532  49.562  1.00  0.00    -0.358 N 
HETATM   22  H   UNL     1      25.400  43.133  49.877  1.00  0.00     0.162 HD
HETATM   23  O   UNL     1      27.835  45.147  49.951  1.00  0.00    -0.273 OA
BRANCH  21  24
HETATM   24  C   UNL     1      27.187  42.627  48.887  1.00  0.00     0.154 C 
BRANCH  24  25
HETATM   25  C   UNL     1      26.621  41.213  48.785  1.00  0.00     0.139 C 
HETATM   26  O   UNL     1      27.684  40.272  48.513  1.00  0.00    -0.384 OA
HETATM   27  C   UNL     1      27.456  39.093  49.300  1.00  0.00     0.168 C 
HETATM   28  C   UNL     1      26.107  39.252  49.968  1.00  0.00     0.029 C 
HETATM   29  C   UNL     1      25.982  40.749  50.084  1.00  0.00     0.035 C 
ENDBRANCH  24  25
ENDBRANCH  21  24
ENDBRANCH  16  20
ENDBRANCH   2  14
BRANCH   1  30
HETATM   30  C   UNL     1      28.239  43.313  53.665  1.00  0.00    -0.023 A 
HETATM   31  C   UNL     1      29.000  43.328  52.490  1.00  0.00     0.012 A 
HETATM   32  C   UNL     1      29.171  42.160  51.746  1.00  0.00     0.001 A 
HETATM   33  C   UNL     1      28.587  40.969  52.173  1.00  0.00     0.000 A 
HETATM   34  C   UNL     1      27.834  40.942  53.346  1.00  0.00     0.001 A 
HETATM   35  C   UNL     1      27.662  42.110  54.093  1.00  0.00     0.012 A 
ENDBRANCH   1  30
TORSDOF 5
ENDMDL
MODEL 2
REMARK VINA RESULT:      -8.5     12.817     15.710
REMARK  5 active torsions:
REMARK  status: ('A' for Active; 'I' for Inactive)
REMARK    1  A    between atoms: C_4  and  C_5 
REMARK    2  A    between atoms: C_6  and  N_7 
REMARK    3  A    between atoms: C_9  and  C_10 
REMARK       I    between atoms: C_10  and  N_11 
REMARK    4  A    between atoms: N_11  and  C_12 
REMARK    5  A    between atoms: C_12  and  C_13 
ROOT
HETATM    1  C   UNL     1      28.901  49.407  40.069  1.00  0.00     0.019 A 
HETATM    2  C   UNL     1      29.057  50.578  39.395  1.00  0.00     0.111 A 
HETATM    3  C   UNL     1      27.863  51.162  38.646  1.00  0.00     0.273 A 
HETATM    4  O   UNL     1      27.935  52.200  37.987  1.00  0.00    -0.266 OA
HETATM    5  N   UNL     1      26.675  50.493  38.713  1.00  0.00    -0.321 N 
HETATM    6  C   UNL     1      26.490  49.312  39.424  1.00  0.00     0.046 A 
HETATM    7  C   UNL     1      27.568  48.744  40.108  1.00  0.00     0.006 A 
HETATM    8  C   UNL     1      25.223  48.724  39.443  1.00  0.00     0.032 A 
HETATM    9  C   UNL     1      25.017  47.550  40.167  1.00  0.00     0.026 A 
HETATM   10  C   UNL     1      26.080  46.976  40.860  1.00  0.00     0.035 A 
HETATM   11 CL   UNL     1      25.825  45.532  41.762  1.00  0.00    -0.084 Cl
HETATM   12  C   UNL     1      27.345  47.563  40.833  1.00  0.00     0.038 A 
HETATM   13  H   UNL     1      25.913  50.918  38.206  1.00  0.00     0.169 HD
ENDROOT
BRANCH   2  14
HETATM   14  N   UNL     1      30.272  51.305  39.340  1.00  0.00    -0.375 N 
HETATM   15  C   UNL     1      30.307  52.698  39.827  1.00  0.00     0.137 C 
HETATM   16  C   UNL     1      31.718  53.078  40.297  1.00  0.00     0.096 C 
HETATM   17  C   UNL     1      32.733  52.815  39.171  1.00  0.00     0.017 C 
HETATM   18  C   UNL     1      32.600  51.408  38.585  1.00  0.00     0.021 C 
HETATM   19  C   UNL     1      31.159  51.097  38.183  1.00  0.00     0.123 C 
BRANCH  16  20
HETATM   20  C   UNL     1      32.114  52.392  41.607  1.00  0.00     0.223 C 
HETATM   21  N   UNL     1      33.427  51.981  41.669  1.00  0.00    -0.358 N 
HETATM   22  H   UNL     1      33.981  51.935  40.824  1.00  0.00     0.162 HD
HETATM   23  O   UNL     1      31.313  52.145  42.507  1.00  0.00    -0.273 OA
BRANCH  21  24
HETATM   24  C   UNL     1      33.980  51.318  42.837  1.00  0.00     0.154 C 
BRANCH  24  25
HETATM   25  C   UNL     1      35.468  51.611  43.010  1.00  0.00     0.139 C 
HETATM   26  O   UNL     1      35.968  52.330  41.860  1.00  0.00    -0.384 OA
HETATM   27  C   UNL     1      36.867  53.351  42.320  1.00  0.00     0.168 C 
HETATM   28  C   UNL     1      37.050  53.149  43.810  1.00  0.00     0.029 C 
HETATM   29  C   UNL     1      35.748  52.504  44.208  1.00  0.00     0.035 C 
ENDBRANCH  24  25
ENDBRANCH  21  24
ENDBRANCH  16  20
ENDBRANCH   2  14
BRANCH   1  30
HETATM   30  C   UNL     1      30.079  48.857  40.788  1.00  0.00    -0.023 A 
HETATM   31  C   UNL     1      31.021  48.076  40.107  1.00  0.00     0.012 A 
HETATM   32  C   UNL     1      32.140  47.579  40.775  1.00  0.00     0.001 A 
HETATM   33  C   UNL     1      32.328  47.862  42.127  1.00  0.00     0.000 A 
HETATM   34  C   UNL     1      31.399  48.645  42.812  1.00  0.00     0.001 A 
HETATM   35  C   UNL     1      30.279  49.144  42.145  1.00  0.00     0.012 A 
ENDBRANCH   1  30
TORSDOF 5
ENDMDL
MODEL 3
REMARK VINA RESULT:      -8.2     13.234     15.814
REMARK  5 active torsions:
REMARK  status: ('A' for Active; 'I' for Inactive)
REMARK    1  A    between atoms: C_4  and  C_5 
REMARK    2  A    between atoms: C_6  and  N_7 
REMARK    3  A    between atoms: C_9  and  C_10 
REMARK       I    between atoms: C_10  and  N_11 
REMARK    4  A    between atoms: N_11  and  C_12 
REMARK    5  A    between atoms: C_12  and  C_13 
ROOT
HETATM    1  C   UNL     1      32.436  50.845  39.964  1.00  0.00     0.019 A 
HETATM    2  C   UNL     1      32.343  49.595  40.494  1.00  0.00     0.111 A 
HETATM    3  C   UNL     1      33.600  48.941  41.060  1.00  0.00     0.273 A 
HETATM    4  O   UNL     1      33.603  47.801  41.527  1.00  0.00    -0.266 OA
HETATM    5  N   UNL     1      34.761  49.657  41.037  1.00  0.00    -0.321 N 
HETATM    6  C   UNL     1      34.867  50.946  40.528  1.00  0.00     0.046 A 
HETATM    7  C   UNL     1      33.737  51.568  39.988  1.00  0.00     0.006 A 
HETATM    8  C   UNL     1      36.103  51.596  40.576  1.00  0.00     0.032 A 
HETATM    9  C   UNL     1      36.220  52.896  40.087  1.00  0.00     0.026 A 
HETATM   10  C   UNL     1      35.101  53.532  39.553  1.00  0.00     0.035 A 
HETATM   11 CL   UNL     1      35.241  55.141  38.958  1.00  0.00    -0.084 Cl
HETATM   12  C   UNL     1      33.870  52.878  39.501  1.00  0.00     0.038 A 
HETATM   13  H   UNL     1      35.565  49.185  41.425  1.00  0.00     0.169 HD
ENDROOT
BRANCH   2  14
HETATM   14  N   UNL     1      31.142  48.848  40.557  1.00  0.00    -0.375 N 
HETATM   15  C   UNL     1      30.487  48.636  41.863  1.00  0.00     0.137 C 
HETATM   16  C   UNL     1      28.978  48.422  41.690  1.00  0.00     0.096 C 
HETATM   17  C   UNL     1      28.721  47.271  40.703  1.00  0.00     0.017 C 
HETATM   18  C   UNL     1      29.508  47.436  39.400  1.00  0.00     0.021 C 
HETATM   19  C   UNL     1      30.992  47.687  39.665  1.00  0.00     0.123 C 
BRANCH  16  20
HETATM   20  C   UNL     1      28.236  49.702  41.295  1.00  0.00     0.223 C 
HETATM   21  N   UNL     1      27.436  49.584  40.179  1.00  0.00    -0.358 N 
HETATM   22  H   UNL     1      27.540  48.785  39.567  1.00  0.00     0.162 HD
HETATM   23  O   UNL     1      28.397  50.778  41.866  1.00  0.00    -0.273 OA
BRANCH  21  24
HETATM   24  C   UNL     1      26.654  50.693  39.662  1.00  0.00     0.154 C 
BRANCH  24  25
HETATM   25  C   UNL     1      25.866  50.304  38.414  1.00  0.00     0.139 C 
HETATM   26  O   UNL     1      26.743  49.677  37.451  1.00  0.00    -0.384 OA
HETATM   27  C   UNL     1      26.046  48.568  36.860  1.00  0.00     0.168 C 
HETATM   28  C   UNL     1      24.621  48.612  37.369  1.00  0.00     0.029 C 
HETATM   29  C   UNL     1      24.779  49.284  38.707  1.00  0.00     0.035 C 
ENDBRANCH  24  25
ENDBRANCH  21  24
ENDBRANCH  16  20
ENDBRANCH   2  14
BRANCH   1  30
HETATM   30  C   UNL     1      31.200  51.460  39.415  1.00  0.00    -0.023 A 
HETATM   31  C   UNL     1      30.527  52.456  40.133  1.00  0.00     0.012 A 
HETATM   32  C   UNL     1      29.380  53.051  39.607  1.00  0.00     0.001 A 
HETATM   33  C   UNL     1      28.900  52.658  38.359  1.00  0.00     0.000 A 
HETATM   34  C   UNL     1      29.567  51.672  37.633  1.00  0.00     0.001 A 
HETATM   35  C   UNL     1      30.716  51.076  38.156  1.00  0.00     0.012 A 
ENDBRANCH   1  30
TORSDOF 5
ENDMDL
MODEL 4
REMARK VINA RESULT:      -8.0      2.971      5.592
REMARK  5 active torsions:
REMARK  status: ('A' for Active; 'I' for Inactive)
REMARK    1  A    between atoms: C_4  and  C_5 
REMARK    2  A    between atoms: C_6  and  N_7 
REMARK    3  A    between atoms: C_9  and  C_10 
REMARK       I    between atoms: C_10  and  N_11 
REMARK    4  A    between atoms: N_11  and  C_12 
REMARK    5  A    between atoms: C_12  and  C_13 
ROOT
HETATM    1  C   UNL     1      27.662  43.252  51.884  1.00  0.00     0.019 A 
HETATM    2  C   UNL     1      27.664  42.044  51.259  1.00  0.00     0.111 A 
HETATM    3  C   UNL     1      28.582  40.944  51.786  1.00  0.00     0.273 A 
HETATM    4  O   UNL     1      28.664  39.836  51.255  1.00  0.00    -0.266 OA
HETATM    5  N   UNL     1      29.340  41.216  52.887  1.00  0.00    -0.321 N 
HETATM    6  C   UNL     1      29.327  42.434  53.557  1.00  0.00     0.046 A 
HETATM    7  C   UNL     1      28.508  43.467  53.089  1.00  0.00     0.006 A 
HETATM    8  C   UNL     1      30.128  42.595  54.690  1.00  0.00     0.032 A 
HETATM    9  C   UNL     1      30.110  43.805  55.382  1.00  0.00     0.026 A 
HETATM   10  C   UNL     1      29.294  44.841  54.934  1.00  0.00     0.035 A 
HETATM   11 CL   UNL     1      29.263  46.332  55.794  1.00  0.00    -0.084 Cl
HETATM   12  C   UNL     1      28.500  44.679  53.799  1.00  0.00     0.038 A 
HETATM   13  H   UNL     1      29.929  40.458  53.202  1.00  0.00     0.169 HD
ENDROOT
BRANCH   2  14
HETATM   14  N   UNL     1      26.861  41.731  50.135  1.00  0.00    -0.375 N 
HETATM   15  C   UNL     1      25.706  40.826  50.297  1.00  0.00     0.137 C 
HETATM   16  C   UNL     1      24.634  41.111  49.238  1.00  0.00     0.096 C 
HETATM   17  C   UNL     1      25.254  41.038  47.832  1.00  0.00     0.017 C 
HETATM   18  C   UNL     1      26.526  41.880  47.713  1.00  0.00     0.021 C 
HETATM   19  C   UNL     1      27.520  41.564  48.829  1.00  0.00     0.123 C 
BRANCH  16  20
HETATM   20  C   UNL     1      23.895  42.430  49.479  1.00  0.00     0.223 C 
HETATM   21  N   UNL     1      23.801  43.249  48.375  1.00  0.00    -0.358 N 
HETATM   22  H   UNL     1      24.383  43.073  47.566  1.00  0.00     0.162 HD
HETATM   23  O   UNL     1      23.489  42.783  50.584  1.00  0.00    -0.273 OA
BRANCH  21  24
HETATM   24  C   UNL     1      23.130  44.536  48.415  1.00  0.00     0.154 C 
BRANCH  24  25
HETATM   25  C   UNL     1      21.720  44.464  47.835  1.00  0.00     0.139 C 
HETATM   26  O   UNL     1      20.743  44.577  48.895  1.00  0.00    -0.384 OA
HETATM   27  C   UNL     1      19.672  45.417  48.435  1.00  0.00     0.168 C 
HETATM   28  C   UNL     1      19.926  45.706  46.971  1.00  0.00     0.029 C 
HETATM   29  C   UNL     1      21.427  45.610  46.881  1.00  0.00     0.035 C 
ENDBRANCH  24  25
ENDBRANCH  21  24
ENDBRANCH  16  20
ENDBRANCH   2  14
BRANCH   1  30
HETATM   30  C   UNL     1      26.764  44.308  51.350  1.00  0.00    -0.023 A 
HETATM   31  C   UNL     1      25.614  44.681  52.057  1.00  0.00     0.012 A 
HETATM   32  C   UNL     1      24.782  45.689  51.568  1.00  0.00     0.001 A 
HETATM   33  C   UNL     1      25.097  46.335  50.374  1.00  0.00     0.000 A 
HETATM   34  C   UNL     1      26.244  45.976  49.667  1.00  0.00     0.001 A 
HETATM   35  C   UNL     1      27.078  44.968  50.154  1.00  0.00     0.012 A 
ENDBRANCH   1  30
TORSDOF 5
ENDMDL
MODEL 5
REMARK VINA RESULT:      -7.9      3.594      6.923
REMARK  5 active torsions:
REMARK  status: ('A' for Active; 'I' for Inactive)
REMARK    1  A    between atoms: C_4  and  C_5 
REMARK    2  A    between atoms: C_6  and  N_7 
REMARK    3  A    between atoms: C_9  and  C_10 
REMARK       I    between atoms: C_10  and  N_11 
REMARK    4  A    between atoms: N_11  and  C_12 
REMARK    5  A    between atoms: C_12  and  C_13 
ROOT
HETATM    1  C   UNL     1      26.816  41.834  51.017  1.00  0.00     0.019 A 
HETATM    2  C   UNL     1      27.325  42.305  52.187  1.00  0.00     0.111 A 
HETATM    3  C   UNL     1      28.499  41.569  52.827  1.00  0.00     0.273 A 
HETATM    4  O   UNL     1      28.993  41.914  53.901  1.00  0.00    -0.266 OA
HETATM    5  N   UNL     1      29.006  40.483  52.176  1.00  0.00    -0.321 N 
HETATM    6  C   UNL     1      28.518  40.007  50.964  1.00  0.00     0.046 A 
HETATM    7  C   UNL     1      27.434  40.650  50.359  1.00  0.00     0.006 A 
HETATM    8  C   UNL     1      29.131  38.899  50.373  1.00  0.00     0.032 A 
HETATM    9  C   UNL     1      28.664  38.423  49.148  1.00  0.00     0.026 A 
HETATM   10  C   UNL     1      27.590  39.058  48.529  1.00  0.00     0.035 A 
HETATM   11 CL   UNL     1      27.019  38.478  47.012  1.00  0.00    -0.084 Cl
HETATM   12  C   UNL     1      26.977  40.161  49.125  1.00  0.00     0.038 A 
HETATM   13  H   UNL     1      29.784  40.030  52.634  1.00  0.00     0.169 HD
ENDROOT
BRANCH   2  14
HETATM   14  N   UNL     1      26.834  43.448  52.862  1.00  0.00    -0.375 N 
HETATM   15  C   UNL     1      27.600  44.709  52.807  1.00  0.00     0.137 C 
HETATM   16  C   UNL     1      26.676  45.920  52.990  1.00  0.00     0.096 C 
HETATM   17  C   UNL     1      25.869  45.771  54.291  1.00  0.00     0.017 C 
HETATM   18  C   UNL     1      25.183  44.407  54.397  1.00  0.00     0.021 C 
HETATM   19  C   UNL     1      26.164  43.261  54.160  1.00  0.00     0.123 C 
BRANCH  16  20
HETATM   20  C   UNL     1      25.778  46.173  51.776  1.00  0.00     0.223 C 
HETATM   21  N   UNL     1      26.344  46.955  50.793  1.00  0.00    -0.358 N 
HETATM   22  H   UNL     1      27.178  47.492  50.994  1.00  0.00     0.162 HD
HETATM   23  O   UNL     1      24.614  45.786  51.707  1.00  0.00    -0.273 OA
BRANCH  21  24
HETATM   24  C   UNL     1      25.641  47.294  49.568  1.00  0.00     0.154 C 
BRANCH  24  25
HETATM   25  C   UNL     1      24.556  48.341  49.802  1.00  0.00     0.139 C 
HETATM   26  O   UNL     1      24.893  49.566  49.112  1.00  0.00    -0.384 OA
HETATM   27  C   UNL     1      23.696  50.096  48.521  1.00  0.00     0.168 C 
HETATM   28  C   UNL     1      22.542  49.242  49.002  1.00  0.00     0.029 C 
HETATM   29  C   UNL     1      23.207  47.913  49.247  1.00  0.00     0.035 C 
ENDBRANCH  24  25
ENDBRANCH  21  24
ENDBRANCH  16  20
ENDBRANCH   2  14
BRANCH   1  30
HETATM   30  C   UNL     1      25.671  42.565  50.414  1.00  0.00    -0.023 A 
HETATM   31  C   UNL     1      25.879  43.451  49.350  1.00  0.00     0.012 A 
HETATM   32  C   UNL     1      24.801  44.119  48.768  1.00  0.00     0.001 A 
HETATM   33  C   UNL     1      23.508  43.903  49.241  1.00  0.00     0.000 A 
HETATM   34  C   UNL     1      23.290  43.016  50.295  1.00  0.00     0.001 A 
HETATM   35  C   UNL     1      24.366  42.345  50.878  1.00  0.00     0.012 A 
ENDBRANCH   1  30
TORSDOF 5
ENDMDL
MODEL 6
REMARK VINA RESULT:      -7.8      2.948      4.816
REMARK  5 active torsions:
REMARK  status: ('A' for Active; 'I' for Inactive)
REMARK    1  A    between atoms: C_4  and  C_5 
REMARK    2  A    between atoms: C_6  and  N_7 
REMARK    3  A    between atoms: C_9  and  C_10 
REMARK       I    between atoms: C_10  and  N_11 
REMARK    4  A    between atoms: N_11  and  C_12 
REMARK    5  A    between atoms: C_12  and  C_13 
ROOT
HETATM    1  C   UNL     1      26.751  43.505  51.636  1.00  0.00     0.019 A 
HETATM    2  C   UNL     1      26.175  42.435  51.025  1.00  0.00     0.111 A 
HETATM    3  C   UNL     1      26.594  41.031  51.452  1.00  0.00     0.273 A 
HETATM    4  O   UNL     1      26.143  40.014  50.924  1.00  0.00    -0.266 OA
HETATM    5  N   UNL     1      27.511  40.913  52.456  1.00  0.00    -0.321 N 
HETATM    6  C   UNL     1      28.085  41.996  53.112  1.00  0.00     0.046 A 
HETATM    7  C   UNL     1      27.734  43.295  52.734  1.00  0.00     0.006 A 
HETATM    8  C   UNL     1      28.997  41.759  54.144  1.00  0.00     0.032 A 
HETATM    9  C   UNL     1      29.566  42.835  54.824  1.00  0.00     0.026 A 
HETATM   10  C   UNL     1      29.220  44.135  54.464  1.00  0.00     0.035 A 
HETATM   11 CL   UNL     1      29.915  45.464  55.309  1.00  0.00    -0.084 Cl
HETATM   12  C   UNL     1      28.314  44.369  53.429  1.00  0.00     0.038 A 
HETATM   13  H   UNL     1      27.755  39.966  52.707  1.00  0.00     0.169 HD
ENDROOT
BRANCH   2  14
HETATM   14  N   UNL     1      25.199  42.535  50.004  1.00  0.00    -0.375 N 
HETATM   15  C   UNL     1      25.625  42.803  48.616  1.00  0.00     0.137 C 
HETATM   16  C   UNL     1      24.607  42.246  47.614  1.00  0.00     0.096 C 
HETATM   17  C   UNL     1      23.207  42.804  47.924  1.00  0.00     0.017 C 
HETATM   18  C   UNL     1      22.828  42.636  49.397  1.00  0.00     0.021 C 
HETATM   19  C   UNL     1      23.914  43.177  50.325  1.00  0.00     0.123 C 
BRANCH  16  20
HETATM   20  C   UNL     1      24.619  40.717  47.540  1.00  0.00     0.223 C 
HETATM   21  N   UNL     1      25.856  40.140  47.729  1.00  0.00    -0.358 N 
HETATM   22  H   UNL     1      26.691  40.709  47.678  1.00  0.00     0.162 HD
HETATM   23  O   UNL     1      23.629  40.048  47.251  1.00  0.00    -0.273 OA
BRANCH  21  24
HETATM   24  C   UNL     1      26.056  38.702  47.699  1.00  0.00     0.154 C 
BRANCH  24  25
HETATM   25  C   UNL     1      27.505  38.320  47.992  1.00  0.00     0.139 C 
HETATM   26  O   UNL     1      28.287  39.507  48.250  1.00  0.00    -0.384 OA
HETATM   27  C   UNL     1      29.180  39.233  49.341  1.00  0.00     0.168 C 
HETATM   28  C   UNL     1      29.050  37.760  49.667  1.00  0.00     0.029 C 
HETATM   29  C   UNL     1      27.638  37.460  49.238  1.00  0.00     0.035 C 
ENDBRANCH  24  25
ENDBRANCH  21  24
ENDBRANCH  16  20
ENDBRANCH   2  14
BRANCH   1  30
HETATM   30  C   UNL     1      26.330  44.862  51.201  1.00  0.00    -0.023 A 
HETATM   31  C   UNL     1      25.395  45.587  51.950  1.00  0.00     0.012 A 
HETATM   32  C   UNL     1      25.018  46.871  51.555  1.00  0.00     0.001 A 
HETATM   33  C   UNL     1      25.575  47.441  50.412  1.00  0.00     0.000 A 
HETATM   34  C   UNL     1      26.513  46.731  49.663  1.00  0.00     0.001 A 
HETATM   35  C   UNL     1      26.893  45.446  50.057  1.00  0.00     0.012 A 
ENDBRANCH   1  30
TORSDOF 5
ENDMDL
MODEL 7
REMARK VINA RESULT:      -7.8     12.489     15.107
REMARK  5 active torsions:
REMARK  status: ('A' for Active; 'I' for Inactive)
REMARK    1  A    between atoms: C_4  and  C_5 
REMARK    2  A    between atoms: C_6  and  N_7 
REMARK    3  A    between atoms: C_9  and  C_10 
REMARK       I    between atoms: C_10  and  N_11 
REMARK    4  A    between atoms: N_11  and  C_12 
REMARK    5  A    between atoms: C_12  and  C_13 
ROOT
HETATM    1  C   UNL     1      28.179  48.148  40.042  1.00  0.00     0.019 A 
HETATM    2  C   UNL     1      27.730  49.271  39.420  1.00  0.00     0.111 A 
HETATM    3  C   UNL     1      26.351  49.249  38.766  1.00  0.00     0.273 A 
HETATM    4  O   UNL     1      25.890  50.215  38.157  1.00  0.00    -0.266 OA
HETATM    5  N   UNL     1      25.614  48.105  38.864  1.00  0.00    -0.321 N 
HETATM    6  C   UNL     1      26.045  46.959  39.523  1.00  0.00     0.046 A 
HETATM    7  C   UNL     1      27.309  46.942  40.119  1.00  0.00     0.006 A 
HETATM    8  C   UNL     1      25.196  45.850  39.581  1.00  0.00     0.032 A 
HETATM    9  C   UNL     1      25.607  44.701  40.256  1.00  0.00     0.026 A 
HETATM   10  C   UNL     1      26.861  44.671  40.862  1.00  0.00     0.035 A 
HETATM   11 CL   UNL     1      27.365  43.257  41.703  1.00  0.00    -0.084 Cl
HETATM   12  C   UNL     1      27.708  45.778  40.796  1.00  0.00     0.038 A 
HETATM   13  H   UNL     1      24.708  48.137  38.419  1.00  0.00     0.169 HD
ENDROOT
BRANCH   2  14
HETATM   14  N   UNL     1      28.465  50.478  39.336  1.00  0.00    -0.375 N 
HETATM   15  C   UNL     1      27.917  51.706  39.944  1.00  0.00     0.137 C 
HETATM   16  C   UNL     1      29.042  52.673  40.334  1.00  0.00     0.096 C 
HETATM   17  C   UNL     1      29.932  52.962  39.113  1.00  0.00     0.017 C 
HETATM   18  C   UNL     1      30.389  51.680  38.412  1.00  0.00     0.021 C 
HETATM   19  C   UNL     1      29.213  50.757  38.099  1.00  0.00     0.123 C 
BRANCH  16  20
HETATM   20  C   UNL     1      29.851  52.190  41.541  1.00  0.00     0.223 C 
HETATM   21  N   UNL     1      31.217  52.306  41.403  1.00  0.00    -0.358 N 
HETATM   22  H   UNL     1      31.619  52.472  40.490  1.00  0.00     0.162 HD
HETATM   23  O   UNL     1      29.341  51.661  42.526  1.00  0.00    -0.273 OA
BRANCH  21  24
HETATM   24  C   UNL     1      32.141  51.904  42.449  1.00  0.00     0.154 C 
BRANCH  24  25
HETATM   25  C   UNL     1      33.579  51.828  41.944  1.00  0.00     0.139 C 
HETATM   26  O   UNL     1      34.339  50.900  42.750  1.00  0.00    -0.384 OA
HETATM   27  C   UNL     1      35.187  50.134  41.880  1.00  0.00     0.168 C 
HETATM   28  C   UNL     1      35.058  50.726  40.493  1.00  0.00     0.029 C 
HETATM   29  C   UNL     1      33.668  51.305  40.520  1.00  0.00     0.035 C 
ENDBRANCH  24  25
ENDBRANCH  21  24
ENDBRANCH  16  20
ENDBRANCH   2  14
BRANCH   1  30
HETATM   30  C   UNL     1      29.525  48.192  40.668  1.00  0.00    -0.023 A 
HETATM   31  C   UNL     1      29.668  48.551  42.014  1.00  0.00     0.012 A 
HETATM   32  C   UNL     1      30.930  48.569  42.609  1.00  0.00     0.001 A 
HETATM   33  C   UNL     1      32.057  48.224  41.865  1.00  0.00     0.000 A 
HETATM   34  C   UNL     1      31.924  47.858  40.527  1.00  0.00     0.001 A 
HETATM   35  C   UNL     1      30.663  47.838  39.929  1.00  0.00     0.012 A 
ENDBRANCH   1  30
TORSDOF 5
ENDMDL
MODEL 8
REMARK VINA RESULT:      -7.6     13.550     16.868
REMARK  5 active torsions:
REMARK  status: ('A' for Active; 'I' for Inactive)
REMARK    1  A    between atoms: C_4  and  C_5 
REMARK    2  A    between atoms: C_6  and  N_7 
REMARK    3  A    between atoms: C_9  and  C_10 
REMARK       I    between atoms: C_10  and  N_11 
REMARK    4  A    between atoms: N_11  and  C_12 
REMARK    5  A    between atoms: C_12  and  C_13 
ROOT
HETATM    1  C   UNL     1      30.129  49.305  40.121  1.00  0.00     0.019 A 
HETATM    2  C   UNL     1      31.273  48.887  40.727  1.00  0.00     0.111 A 
HETATM    3  C   UNL     1      31.718  47.439  40.538  1.00  0.00     0.273 A 
HETATM    4  O   UNL     1      32.723  46.977  41.080  1.00  0.00    -0.266 OA
HETATM    5  N   UNL     1      30.959  46.634  39.739  1.00  0.00    -0.321 N 
HETATM    6  C   UNL     1      29.805  47.055  39.088  1.00  0.00     0.046 A 
HETATM    7  C   UNL     1      29.363  48.371  39.252  1.00  0.00     0.006 A 
HETATM    8  C   UNL     1      29.118  46.151  38.273  1.00  0.00     0.032 A 
HETATM    9  C   UNL     1      27.970  46.564  37.598  1.00  0.00     0.026 A 
HETATM   10  C   UNL     1      27.521  47.874  37.746  1.00  0.00     0.035 A 
HETATM   11 CL   UNL     1      26.110  48.389  36.905  1.00  0.00    -0.084 Cl
HETATM   12  C   UNL     1      28.207  48.773  38.564  1.00  0.00     0.038 A 
HETATM   13  H   UNL     1      31.294  45.687  39.641  1.00  0.00     0.169 HD
ENDROOT
BRANCH   2  14
HETATM   14  N   UNL     1      32.092  49.714  41.533  1.00  0.00    -0.375 N 
HETATM   15  C   UNL     1      33.548  49.748  41.294  1.00  0.00     0.137 C 
HETATM   16  C   UNL     1      34.146  51.087  41.747  1.00  0.00     0.096 C 
HETATM   17  C   UNL     1      33.779  51.354  43.217  1.00  0.00     0.017 C 
HETATM   18  C   UNL     1      32.280  51.188  43.481  1.00  0.00     0.021 C 
HETATM   19  C   UNL     1      31.759  49.849  42.961  1.00  0.00     0.123 C 
BRANCH  16  20
HETATM   20  C   UNL     1      33.760  52.252  40.832  1.00  0.00     0.223 C 
HETATM   21  N   UNL     1      34.784  52.729  40.043  1.00  0.00    -0.358 N 
HETATM   22  H   UNL     1      35.741  52.472  40.249  1.00  0.00     0.162 HD
HETATM   23  O   UNL     1      32.653  52.785  40.850  1.00  0.00    -0.273 OA
BRANCH  21  24
HETATM   24  C   UNL     1      34.600  53.826  39.110  1.00  0.00     0.154 C 
BRANCH  24  25
HETATM   25  C   UNL     1      35.747  54.831  39.175  1.00  0.00     0.139 C 
HETATM   26  O   UNL     1      36.261  54.908  40.524  1.00  0.00    -0.384 OA
HETATM   27  C   UNL     1      37.694  54.986  40.458  1.00  0.00     0.168 C 
HETATM   28  C   UNL     1      38.069  55.121  38.997  1.00  0.00     0.029 C 
HETATM   29  C   UNL     1      36.926  54.424  38.307  1.00  0.00     0.035 C 
ENDBRANCH  24  25
ENDBRANCH  21  24
ENDBRANCH  16  20
ENDBRANCH   2  14
BRANCH   1  30
HETATM   30  C   UNL     1      29.714  50.718  40.322  1.00  0.00    -0.023 A 
HETATM   31  C   UNL     1      30.014  51.687  39.358  1.00  0.00     0.012 A 
HETATM   32  C   UNL     1      29.604  53.009  39.535  1.00  0.00     0.001 A 
HETATM   33  C   UNL     1      28.886  53.370  40.674  1.00  0.00     0.000 A 
HETATM   34  C   UNL     1      28.575  52.410  41.636  1.00  0.00     0.001 A 
HETATM   35  C   UNL     1      28.984  51.087  41.461  1.00  0.00     0.012 A 
ENDBRANCH   1  30
TORSDOF 5
ENDMDL
MODEL 9
REMARK VINA RESULT:      -7.6      9.042     12.063
REMARK  5 active torsions:
REMARK  status: ('A' for Active; 'I' for Inactive)
REMARK    1  A    between atoms: C_4  and  C_5 
REMARK    2  A    between atoms: C_6  and  N_7 
REMARK    3  A    between atoms: C_9  and  C_10 
REMARK       I    between atoms: C_10  and  N_11 
REMARK    4  A    between atoms: N_11  and  C_12 
REMARK    5  A    between atoms: C_12  and  C_13 
ROOT
HETATM    1  C   UNL     1      20.660  48.089  48.694  1.00  0.00     0.019 A 
HETATM    2  C   UNL     1      20.904  49.366  49.094  1.00  0.00     0.111 A 
HETATM    3  C   UNL     1      22.287  49.717  49.636  1.00  0.00     0.273 A 
HETATM    4  O   UNL     1      22.573  50.842  50.047  1.00  0.00    -0.266 OA
HETATM    5  N   UNL     1      23.231  48.732  49.665  1.00  0.00    -0.321 N 
HETATM    6  C   UNL     1      23.008  47.430  49.231  1.00  0.00     0.046 A 
HETATM    7  C   UNL     1      21.747  47.074  48.744  1.00  0.00     0.006 A 
HETATM    8  C   UNL     1      24.056  46.508  49.285  1.00  0.00     0.032 A 
HETATM    9  C   UNL     1      23.853  45.204  48.835  1.00  0.00     0.026 A 
HETATM   10  C   UNL     1      22.605  44.836  48.339  1.00  0.00     0.035 A 
HETATM   11 CL   UNL     1      22.355  43.229  47.774  1.00  0.00    -0.084 Cl
HETATM   12  C   UNL     1      21.558  45.758  48.292  1.00  0.00     0.038 A 
HETATM   13  H   UNL     1      24.132  49.010  50.028  1.00  0.00     0.169 HD
ENDROOT
BRANCH   2  14
HETATM   14  N   UNL     1      19.948  50.409  49.042  1.00  0.00    -0.375 N 
HETATM   15  C   UNL     1      20.141  51.525  48.094  1.00  0.00     0.137 C 
HETATM   16  C   UNL     1      18.797  52.154  47.707  1.00  0.00     0.096 C 
HETATM   17  C   UNL     1      18.032  52.576  48.973  1.00  0.00     0.017 C 
HETATM   18  C   UNL     1      17.950  51.449  50.005  1.00  0.00     0.021 C 
HETATM   19  C   UNL     1      19.324  50.852  50.300  1.00  0.00     0.123 C 
BRANCH  16  20
HETATM   20  C   UNL     1      17.958  51.253  46.795  1.00  0.00     0.223 C 
HETATM   21  N   UNL     1      18.320  51.280  45.466  1.00  0.00    -0.358 N 
HETATM   22  H   UNL     1      18.925  52.015  45.123  1.00  0.00     0.162 HD
HETATM   23  O   UNL     1      16.983  50.618  47.189  1.00  0.00    -0.273 OA
BRANCH  21  24
HETATM   24  C   UNL     1      17.640  50.486  44.459  1.00  0.00     0.154 C 
BRANCH  24  25
HETATM   25  C   UNL     1      17.169  51.335  43.282  1.00  0.00     0.139 C 
HETATM   26  O   UNL     1      16.699  52.618  43.754  1.00  0.00    -0.384 OA
HETATM   27  C   UNL     1      17.156  53.630  42.844  1.00  0.00     0.168 C 
HETATM   28  C   UNL     1      17.804  52.922  41.673  1.00  0.00     0.029 C 
HETATM   29  C   UNL     1      18.290  51.642  42.302  1.00  0.00     0.035 C 
ENDBRANCH  24  25
ENDBRANCH  21  24
ENDBRANCH  16  20
ENDBRANCH   2  14
BRANCH   1  30
HETATM   30  C   UNL     1      19.305  47.771  48.174  1.00  0.00    -0.023 A 
HETATM   31  C   UNL     1      19.075  47.703  46.794  1.00  0.00     0.012 A 
HETATM   32  C   UNL     1      17.809  47.381  46.305  1.00  0.00     0.001 A 
HETATM   33  C   UNL     1      16.765  47.120  47.191  1.00  0.00     0.000 A 
HETATM   34  C   UNL     1      16.985  47.178  48.567  1.00  0.00     0.001 A 
HETATM   35  C   UNL     1      18.252  47.499  49.058  1.00  0.00     0.012 A 
ENDBRANCH   1  30
TORSDOF 5
ENDMDL
MODEL 10
REMARK VINA RESULT:      -7.5     10.898     14.830
REMARK  5 active torsions:
REMARK  status: ('A' for Active; 'I' for Inactive)
REMARK    1  A    between atoms: C_4  and  C_5 
REMARK    2  A    between atoms: C_6  and  N_7 
REMARK    3  A    between atoms: C_9  and  C_10 
REMARK       I    between atoms: C_10  and  N_11 
REMARK    4  A    between atoms: N_11  and  C_12 
REMARK    5  A    between atoms: C_12  and  C_13 
ROOT
HETATM    1  C   UNL     1      16.448  50.839  46.022  1.00  0.00     0.019 A 
HETATM    2  C   UNL     1      16.724  49.523  45.813  1.00  0.00     0.111 A 
HETATM    3  C   UNL     1      16.363  48.900  44.467  1.00  0.00     0.273 A 
HETATM    4  O   UNL     1      16.551  47.710  44.215  1.00  0.00    -0.266 OA
HETATM    5  N   UNL     1      15.804  49.706  43.518  1.00  0.00    -0.321 N 
HETATM    6  C   UNL     1      15.545  51.059  43.704  1.00  0.00     0.046 A 
HETATM    7  C   UNL     1      15.851  51.656  44.931  1.00  0.00     0.006 A 
HETATM    8  C   UNL     1      14.991  51.795  42.653  1.00  0.00     0.032 A 
HETATM    9  C   UNL     1      14.744  53.157  42.819  1.00  0.00     0.026 A 
HETATM   10  C   UNL     1      15.050  53.768  44.032  1.00  0.00     0.035 A 
HETATM   11 CL   UNL     1      14.755  55.451  44.235  1.00  0.00    -0.084 Cl
HETATM   12  C   UNL     1      15.598  53.029  45.082  1.00  0.00     0.038 A 
HETATM   13  H   UNL     1      15.585  49.252  42.643  1.00  0.00     0.169 HD
ENDROOT
BRANCH   2  14
HETATM   14  N   UNL     1      17.332  48.679  46.773  1.00  0.00    -0.375 N 
HETATM   15  C   UNL     1      18.667  48.110  46.498  1.00  0.00     0.137 C 
HETATM   16  C   UNL     1      19.413  47.809  47.804  1.00  0.00     0.096 C 
HETATM   17  C   UNL     1      18.555  46.902  48.701  1.00  0.00     0.017 C 
HETATM   18  C   UNL     1      17.130  47.436  48.874  1.00  0.00     0.021 C 
HETATM   19  C   UNL     1      16.477  47.749  47.530  1.00  0.00     0.123 C 
BRANCH  16  20
HETATM   20  C   UNL     1      19.876  49.075  48.531  1.00  0.00     0.223 C 
HETATM   21  N   UNL     1      20.954  49.710  47.954  1.00  0.00    -0.358 N 
HETATM   22  H   UNL     1      21.510  49.229  47.259  1.00  0.00     0.162 HD
HETATM   23  O   UNL     1      19.389  49.458  49.592  1.00  0.00    -0.273 OA
BRANCH  21  24
HETATM   24  C   UNL     1      21.524  50.927  48.502  1.00  0.00     0.154 C 
BRANCH  24  25
HETATM   25  C   UNL     1      22.983  50.743  48.910  1.00  0.00     0.139 C 
HETATM   26  O   UNL     1      23.139  49.509  49.647  1.00  0.00    -0.384 OA
HETATM   27  C   UNL     1      24.355  48.876  49.219  1.00  0.00     0.168 C 
HETATM   28  C   UNL     1      25.059  49.841  48.289  1.00  0.00     0.029 C 
HETATM   29  C   UNL     1      23.911  50.626  47.711  1.00  0.00     0.035 C 
ENDBRANCH  24  25
ENDBRANCH  21  24
ENDBRANCH  16  20
ENDBRANCH   2  14
BRANCH   1  30
HETATM   30  C   UNL     1      16.806  51.422  47.341  1.00  0.00    -0.023 A 
HETATM   31  C   UNL     1      15.930  51.303  48.427  1.00  0.00     0.012 A 
HETATM   32  C   UNL     1      16.276  51.829  49.672  1.00  0.00     0.001 A 
HETATM   33  C   UNL     1      17.500  52.474  49.842  1.00  0.00     0.000 A 
HETATM   34  C   UNL     1      18.382  52.591  48.768  1.00  0.00     0.001 A 
HETATM   35  C   UNL     1      18.039  52.064  47.522  1.00  0.00     0.012 A 
ENDBRANCH   1  30
TORSDOF 5
ENDMDL
