MODEL 1
REMARK VINA RESULT:      -9.8      0.000      0.000
REMARK  6 active torsions:
REMARK  status: ('A' for Active; 'I' for Inactive)
REMARK    1  A    between atoms: C_5  and  C_6 
REMARK    2  A    between atoms: C_12  and  C_13 
REMARK       I    between atoms: C_13  and  N_14 
REMARK    3  A    between atoms: N_14  and  C_15 
REMARK    4  A    between atoms: C_18  and  C_19 
REMARK    5  A    between atoms: C_19  and  O_20 
REMARK    6  A    between atoms: C_25  and  C_26 
ROOT
HETATM    1  C   UNL     1      24.103  45.376  50.828  1.00  0.00     0.118 C 
HETATM    2  N   UNL     1      25.073  44.463  51.471  1.00  0.00    -0.365 N 
HETATM    3  C   UNL     1      25.746  43.565  50.688  1.00  0.00     0.138 A 
HETATM    4  N   UNL     1      25.360  43.329  49.387  1.00  0.00    -0.240 N 
HETATM    5  N   UNL     1      26.170  42.490  48.729  1.00  0.00    -0.181 NA
HETATM    6  C   UNL     1      27.043  42.106  49.664  1.00  0.00     0.160 A 
HETATM    7  C   UNL     1      26.833  42.738  50.915  1.00  0.00     0.096 A 
HETATM    8  C   UNL     1      24.204  43.933  48.747  1.00  0.00     0.221 C 
HETATM    9  C   UNL     1      23.286  44.565  49.812  1.00  0.00     0.066 C 
HETATM   10  H   UNL     1      24.715  44.110  52.362  1.00  0.00     0.161 HD
ENDROOT
BRANCH   7  11
HETATM   11  C   UNL     1      27.634  42.526  52.113  1.00  0.00     0.261 C 
HETATM   12  N   UNL     1      28.352  43.636  52.515  1.00  0.00    -0.323 N 
HETATM   13  H   UNL     1      28.328  44.422  51.875  1.00  0.00     0.169 HD
HETATM   14  O   UNL     1      27.616  41.438  52.678  1.00  0.00    -0.267 OA
BRANCH  12  15
HETATM   15  C   UNL     1      29.060  43.812  53.720  1.00  0.00     0.035 A 
HETATM   16  C   UNL     1      28.770  44.802  54.657  1.00  0.00     0.030 A 
HETATM   17  C   UNL     1      29.560  44.958  55.806  1.00  0.00     0.012 A 
HETATM   18  C   UNL     1      30.661  44.128  56.049  1.00  0.00    -0.030 A 
HETATM   19  C   UNL     1      30.939  43.129  55.102  1.00  0.00     0.012 A 
HETATM   20  C   UNL     1      30.143  42.963  53.961  1.00  0.00     0.030 A 
BRANCH  18  21
HETATM   21  C   UNL     1      31.591  44.324  57.233  1.00  0.00     0.147 C 
HETATM   22  C   UNL     1      30.982  45.010  58.454  1.00  0.00     0.044 C 
BRANCH  21  23
HETATM   23  O   UNL     1      32.092  43.052  57.650  1.00  0.00    -0.391 OA
HETATM   24  H   UNL     1      32.795  43.219  58.300  1.00  0.00     0.210 HD
ENDBRANCH  21  23
ENDBRANCH  18  21
ENDBRANCH  12  15
ENDBRANCH   7  11
BRANCH   1  25
HETATM   25  C   UNL     1      24.748  46.613  50.209  1.00  0.00    -0.035 A 
HETATM   26  C   UNL     1      26.134  46.836  50.206  1.00  0.00     0.010 A 
HETATM   27  C   UNL     1      26.688  47.951  49.565  1.00  0.00     0.007 A 
HETATM   28  C   UNL     1      25.869  48.884  48.927  1.00  0.00    -0.062 A 
HETATM   29  C   UNL     1      26.456  50.056  48.197  1.00  0.00     0.048 C 
HETATM   30  C   UNL     1      24.485  48.693  48.951  1.00  0.00     0.007 A 
HETATM   31  C   UNL     1      23.933  47.580  49.592  1.00  0.00     0.010 A 
ENDBRANCH   1  25
BRANCH   8  32
HETATM   32  C   UNL     1      23.408  42.926  47.943  1.00  0.00     0.409 C 
HETATM   33  F   UNL     1      23.270  41.746  48.591  1.00  0.00    -0.169 F 
HETATM   34  F   UNL     1      22.148  43.402  47.745  1.00  0.00    -0.169 F 
HETATM   35  F   UNL     1      23.911  42.683  46.716  1.00  0.00    -0.169 F 
ENDBRANCH   8  32
TORSDOF 6
ENDMDL
MODEL 2
REMARK VINA RESULT:      -9.4      1.290      1.864
REMARK  6 active torsions:
REMARK  status: ('A' for Active; 'I' for Inactive)
REMARK    1  A    between atoms: C_5  and  C_6 
REMARK    2  A    between atoms: C_12  and  C_13 
REMARK       I    between atoms: C_13  and  N_14 
REMARK    3  A    between atoms: N_14  and  C_15 
REMARK    4  A    between atoms: C_18  and  C_19 
REMARK    5  A    between atoms: C_19  and  O_20 
REMARK    6  A    between atoms: C_25  and  C_26 
ROOT
HETATM    1  C   UNL     1      23.531  43.225  50.400  1.00  0.00     0.118 C 
HETATM    2  N   UNL     1      24.719  42.765  51.150  1.00  0.00    -0.365 N 
HETATM    3  C   UNL     1      25.827  42.373  50.447  1.00  0.00     0.138 A 
HETATM    4  N   UNL     1      25.766  42.163  49.087  1.00  0.00    -0.240 N 
HETATM    5  N   UNL     1      26.949  41.868  48.534  1.00  0.00    -0.181 NA
HETATM    6  C   UNL     1      27.770  41.794  49.584  1.00  0.00     0.160 A 
HETATM    7  C   UNL     1      27.133  42.095  50.814  1.00  0.00     0.096 A 
HETATM    8  C   UNL     1      24.556  42.267  48.289  1.00  0.00     0.221 C 
HETATM    9  C   UNL     1      23.320  42.277  49.211  1.00  0.00     0.066 C 
HETATM   10  H   UNL     1      24.452  42.175  51.942  1.00  0.00     0.161 HD
ENDROOT
BRANCH   7  11
HETATM   11  C   UNL     1      27.777  42.106  52.119  1.00  0.00     0.261 C 
HETATM   12  N   UNL     1      28.459  43.274  52.402  1.00  0.00    -0.323 N 
HETATM   13  H   UNL     1      28.527  43.932  51.633  1.00  0.00     0.169 HD
HETATM   14  O   UNL     1      27.672  41.138  52.864  1.00  0.00    -0.267 OA
BRANCH  12  15
HETATM   15  C   UNL     1      29.018  43.668  53.633  1.00  0.00     0.035 A 
HETATM   16  C   UNL     1      28.535  44.721  54.407  1.00  0.00     0.030 A 
HETATM   17  C   UNL     1      29.182  45.098  55.593  1.00  0.00     0.012 A 
HETATM   18  C   UNL     1      30.330  44.430  56.038  1.00  0.00    -0.030 A 
HETATM   19  C   UNL     1      30.804  43.366  55.254  1.00  0.00     0.012 A 
HETATM   20  C   UNL     1      30.151  42.980  54.076  1.00  0.00     0.030 A 
BRANCH  18  21
HETATM   21  C   UNL     1      31.108  44.867  57.266  1.00  0.00     0.147 C 
HETATM   22  C   UNL     1      30.288  45.504  58.386  1.00  0.00     0.044 C 
BRANCH  21  23
HETATM   23  O   UNL     1      31.791  43.736  57.813  1.00  0.00    -0.391 OA
HETATM   24  H   UNL     1      31.205  42.968  57.705  1.00  0.00     0.210 HD
ENDBRANCH  21  23
ENDBRANCH  18  21
ENDBRANCH  12  15
ENDBRANCH   7  11
BRANCH   1  25
HETATM   25  C   UNL     1      23.607  44.690  49.976  1.00  0.00    -0.035 A 
HETATM   26  C   UNL     1      22.825  45.231  48.943  1.00  0.00     0.010 A 
HETATM   27  C   UNL     1      22.876  46.595  48.634  1.00  0.00     0.007 A 
HETATM   28  C   UNL     1      23.725  47.452  49.335  1.00  0.00    -0.062 A 
HETATM   29  C   UNL     1      23.752  48.924  49.044  1.00  0.00     0.048 C 
HETATM   30  C   UNL     1      24.534  46.922  50.344  1.00  0.00     0.007 A 
HETATM   31  C   UNL     1      24.484  45.559  50.651  1.00  0.00     0.010 A 
ENDBRANCH   1  25
BRANCH   8  32
HETATM   32  C   UNL     1      24.426  41.127  47.301  1.00  0.00     0.409 C 
HETATM   33  F   UNL     1      24.775  39.937  47.843  1.00  0.00    -0.169 F 
HETATM   34  F   UNL     1      23.124  41.005  46.920  1.00  0.00    -0.169 F 
HETATM   35  F   UNL     1      25.131  41.303  46.166  1.00  0.00    -0.169 F 
ENDBRANCH   8  32
TORSDOF 6
ENDMDL
MODEL 3
REMARK VINA RESULT:      -9.2      3.904      7.958
REMARK  6 active torsions:
REMARK  status: ('A' for Active; 'I' for Inactive)
REMARK    1  A    between atoms: C_5  and  C_6 
REMARK    2  A    between atoms: C_12  and  C_13 
REMARK       I    between atoms: C_13  and  N_14 
REMARK    3  A    between atoms: N_14  and  C_15 
REMARK    4  A    between atoms: C_18  and  C_19 
REMARK    5  A    between atoms: C_19  and  O_20 
REMARK    6  A    between atoms: C_25  and  C_26 
ROOT
HETATM    1  C   UNL     1      26.277  43.923  54.077  1.00  0.00     0.118 C 
HETATM    2  N   UNL     1      26.144  42.987  52.941  1.00  0.00    -0.365 N 
HETATM    3  C   UNL     1      26.435  43.439  51.682  1.00  0.00     0.138 A 
HETATM    4  N   UNL     1      26.597  44.784  51.431  1.00  0.00    -0.240 N 
HETATM    5  N   UNL     1      26.961  45.057  50.172  1.00  0.00    -0.181 NA
HETATM    6  C   UNL     1      26.940  43.861  49.578  1.00  0.00     0.160 A 
HETATM    7  C   UNL     1      26.614  42.804  50.464  1.00  0.00     0.096 A 
HETATM    8  C   UNL     1      26.421  45.835  52.419  1.00  0.00     0.221 C 
HETATM    9  C   UNL     1      25.686  45.275  53.653  1.00  0.00     0.066 C 
HETATM   10  H   UNL     1      25.306  42.408  53.033  1.00  0.00     0.161 HD
ENDROOT
BRANCH   7  11
HETATM   11  C   UNL     1      26.526  41.396  50.104  1.00  0.00     0.261 C 
HETATM   12  N   UNL     1      26.958  41.114  48.822  1.00  0.00    -0.323 N 
HETATM   13  H   UNL     1      27.176  41.923  48.251  1.00  0.00     0.169 HD
HETATM   14  O   UNL     1      26.111  40.579  50.918  1.00  0.00    -0.267 OA
BRANCH  12  15
HETATM   15  C   UNL     1      27.176  39.847  48.247  1.00  0.00     0.035 A 
HETATM   16  C   UNL     1      28.408  39.195  48.240  1.00  0.00     0.030 A 
HETATM   17  C   UNL     1      28.565  37.962  47.591  1.00  0.00     0.012 A 
HETATM   18  C   UNL     1      27.494  37.346  46.932  1.00  0.00    -0.030 A 
HETATM   19  C   UNL     1      26.256  38.008  46.952  1.00  0.00     0.012 A 
HETATM   20  C   UNL     1      26.094  39.234  47.611  1.00  0.00     0.030 A 
BRANCH  18  21
HETATM   21  C   UNL     1      27.647  36.057  46.144  1.00  0.00     0.147 C 
HETATM   22  C   UNL     1      28.994  35.853  45.453  1.00  0.00     0.044 C 
BRANCH  21  23
HETATM   23  O   UNL     1      27.430  34.947  47.017  1.00  0.00    -0.391 OA
HETATM   24  H   UNL     1      26.476  34.911  47.204  1.00  0.00     0.210 HD
ENDBRANCH  21  23
ENDBRANCH  18  21
ENDBRANCH  12  15
ENDBRANCH   7  11
BRANCH   1  25
HETATM   25  C   UNL     1      27.705  44.046  54.604  1.00  0.00    -0.035 A 
HETATM   26  C   UNL     1      28.157  45.150  55.344  1.00  0.00     0.010 A 
HETATM   27  C   UNL     1      29.455  45.190  55.866  1.00  0.00     0.007 A 
HETATM   28  C   UNL     1      30.343  44.135  55.646  1.00  0.00    -0.062 A 
HETATM   29  C   UNL     1      31.720  44.147  56.242  1.00  0.00     0.048 C 
HETATM   30  C   UNL     1      29.918  43.045  54.883  1.00  0.00     0.007 A 
HETATM   31  C   UNL     1      28.621  43.007  54.360  1.00  0.00     0.010 A 
ENDBRANCH   1  25
BRANCH   8  32
HETATM   32  C   UNL     1      25.640  47.009  51.868  1.00  0.00     0.409 C 
HETATM   33  F   UNL     1      24.608  46.617  51.086  1.00  0.00    -0.169 F 
HETATM   34  F   UNL     1      25.091  47.710  52.899  1.00  0.00    -0.169 F 
HETATM   35  F   UNL     1      26.390  47.890  51.177  1.00  0.00    -0.169 F 
ENDBRANCH   8  32
TORSDOF 6
ENDMDL
MODEL 4
REMARK VINA RESULT:      -8.3      5.146      9.713
REMARK  6 active torsions:
REMARK  status: ('A' for Active; 'I' for Inactive)
REMARK    1  A    between atoms: C_5  and  C_6 
REMARK    2  A    between atoms: C_12  and  C_13 
REMARK       I    between atoms: C_13  and  N_14 
REMARK    3  A    between atoms: N_14  and  C_15 
REMARK    4  A    between atoms: C_18  and  C_19 
REMARK    5  A    between atoms: C_19  and  O_20 
REMARK    6  A    between atoms: C_25  and  C_26 
ROOT
HETATM    1  C   UNL     1      23.144  43.371  49.952  1.00  0.00     0.118 C 
HETATM    2  N   UNL     1      22.683  44.748  49.677  1.00  0.00    -0.365 N 
HETATM    3  C   UNL     1      23.610  45.755  49.638  1.00  0.00     0.138 A 
HETATM    4  N   UNL     1      24.895  45.554  50.092  1.00  0.00    -0.240 N 
HETATM    5  N   UNL     1      25.702  46.606  49.908  1.00  0.00    -0.181 NA
HETATM    6  C   UNL     1      24.886  47.537  49.409  1.00  0.00     0.160 A 
HETATM    7  C   UNL     1      23.560  47.074  49.218  1.00  0.00     0.096 A 
HETATM    8  C   UNL     1      25.373  44.322  50.697  1.00  0.00     0.221 C 
HETATM    9  C   UNL     1      24.177  43.432  51.087  1.00  0.00     0.066 C 
HETATM   10  H   UNL     1      21.811  44.953  50.171  1.00  0.00     0.161 HD
ENDROOT
BRANCH   7  11
HETATM   11  C   UNL     1      22.459  47.860  48.680  1.00  0.00     0.261 C 
HETATM   12  N   UNL     1      21.750  48.564  49.635  1.00  0.00    -0.323 N 
HETATM   13  H   UNL     1      22.003  48.364  50.597  1.00  0.00     0.169 HD
HETATM   14  O   UNL     1      22.242  47.868  47.474  1.00  0.00    -0.267 OA
BRANCH  12  15
HETATM   15  C   UNL     1      20.766  49.549  49.423  1.00  0.00     0.035 A 
HETATM   16  C   UNL     1      21.032  50.819  48.915  1.00  0.00     0.030 A 
HETATM   17  C   UNL     1      20.010  51.772  48.791  1.00  0.00     0.012 A 
HETATM   18  C   UNL     1      18.694  51.480  49.171  1.00  0.00    -0.030 A 
HETATM   19  C   UNL     1      18.437  50.195  49.674  1.00  0.00     0.012 A 
HETATM   20  C   UNL     1      19.454  49.238  49.786  1.00  0.00     0.030 A 
BRANCH  18  21
HETATM   21  C   UNL     1      17.582  52.513  49.135  1.00  0.00     0.147 C 
HETATM   22  C   UNL     1      16.389  52.181  48.240  1.00  0.00     0.044 C 
BRANCH  21  23
HETATM   23  O   UNL     1      17.090  52.716  50.462  1.00  0.00    -0.391 OA
HETATM   24  H   UNL     1      16.485  51.981  50.659  1.00  0.00     0.210 HD
ENDBRANCH  21  23
ENDBRANCH  18  21
ENDBRANCH  12  15
ENDBRANCH   7  11
BRANCH   1  25
HETATM   25  C   UNL     1      23.673  42.646  48.717  1.00  0.00    -0.035 A 
HETATM   26  C   UNL     1      24.540  41.545  48.787  1.00  0.00     0.010 A 
HETATM   27  C   UNL     1      24.945  40.867  47.631  1.00  0.00     0.007 A 
HETATM   28  C   UNL     1      24.510  41.284  46.373  1.00  0.00    -0.062 A 
HETATM   29  C   UNL     1      24.900  40.535  45.132  1.00  0.00     0.048 C 
HETATM   30  C   UNL     1      23.674  42.399  46.285  1.00  0.00     0.007 A 
HETATM   31  C   UNL     1      23.271  43.077  47.439  1.00  0.00     0.010 A 
ENDBRANCH   1  25
BRANCH   8  32
HETATM   32  C   UNL     1      26.218  44.583  51.927  1.00  0.00     0.409 C 
HETATM   33  F   UNL     1      27.507  44.851  51.615  1.00  0.00    -0.169 F 
HETATM   34  F   UNL     1      25.746  45.684  52.573  1.00  0.00    -0.169 F 
HETATM   35  F   UNL     1      26.195  43.582  52.829  1.00  0.00    -0.169 F 
ENDBRANCH   8  32
TORSDOF 6
ENDMDL
MODEL 5
REMARK VINA RESULT:      -8.0      5.260      9.950
REMARK  6 active torsions:
REMARK  status: ('A' for Active; 'I' for Inactive)
REMARK    1  A    between atoms: C_5  and  C_6 
REMARK    2  A    between atoms: C_12  and  C_13 
REMARK       I    between atoms: C_13  and  N_14 
REMARK    3  A    between atoms: N_14  and  C_15 
REMARK    4  A    between atoms: C_18  and  C_19 
REMARK    5  A    between atoms: C_19  and  O_20 
REMARK    6  A    between atoms: C_25  and  C_26 
ROOT
HETATM    1  C   UNL     1      24.533  43.870  51.688  1.00  0.00     0.118 C 
HETATM    2  N   UNL     1      23.794  44.860  50.876  1.00  0.00    -0.365 N 
HETATM    3  C   UNL     1      24.374  46.078  50.641  1.00  0.00     0.138 A 
HETATM    4  N   UNL     1      25.490  46.479  51.341  1.00  0.00    -0.240 N 
HETATM    5  N   UNL     1      25.986  47.655  50.936  1.00  0.00    -0.181 NA
HETATM    6  C   UNL     1      25.108  48.060  50.015  1.00  0.00     0.160 A 
HETATM    7  C   UNL     1      24.070  47.122  49.784  1.00  0.00     0.096 A 
HETATM    8  C   UNL     1      26.113  45.716  52.409  1.00  0.00     0.221 C 
HETATM    9  C   UNL     1      25.158  44.603  52.884  1.00  0.00     0.066 C 
HETATM   10  H   UNL     1      22.800  44.869  51.117  1.00  0.00     0.161 HD
ENDROOT
BRANCH   7  11
HETATM   11  C   UNL     1      22.981  47.285  48.831  1.00  0.00     0.261 C 
HETATM   12  N   UNL     1      21.952  48.089  49.284  1.00  0.00    -0.323 N 
HETATM   13  H   UNL     1      22.020  48.374  50.255  1.00  0.00     0.169 HD
HETATM   14  O   UNL     1      23.039  46.744  47.733  1.00  0.00    -0.267 OA
BRANCH  12  15
HETATM   15  C   UNL     1      20.863  48.590  48.545  1.00  0.00     0.035 A 
HETATM   16  C   UNL     1      20.881  49.798  47.850  1.00  0.00     0.030 A 
HETATM   17  C   UNL     1      19.736  50.264  47.188  1.00  0.00     0.012 A 
HETATM   18  C   UNL     1      18.541  49.534  47.202  1.00  0.00    -0.030 A 
HETATM   19  C   UNL     1      18.536  48.315  47.898  1.00  0.00     0.012 A 
HETATM   20  C   UNL     1      19.683  47.842  48.548  1.00  0.00     0.030 A 
BRANCH  18  21
HETATM   21  C   UNL     1      17.259  50.049  46.573  1.00  0.00     0.147 C 
HETATM   22  C   UNL     1      16.118  50.360  47.541  1.00  0.00     0.044 C 
BRANCH  21  23
HETATM   23  O   UNL     1      17.545  51.241  45.836  1.00  0.00    -0.391 OA
HETATM   24  H   UNL     1      18.490  51.219  45.611  1.00  0.00     0.210 HD
ENDBRANCH  21  23
ENDBRANCH  18  21
ENDBRANCH  12  15
ENDBRANCH   7  11
BRANCH   1  25
HETATM   25  C   UNL     1      25.559  43.069  50.890  1.00  0.00    -0.035 A 
HETATM   26  C   UNL     1      26.726  42.535  51.459  1.00  0.00     0.010 A 
HETATM   27  C   UNL     1      27.605  41.749  50.706  1.00  0.00     0.007 A 
HETATM   28  C   UNL     1      27.352  41.491  49.358  1.00  0.00    -0.062 A 
HETATM   29  C   UNL     1      28.262  40.609  48.554  1.00  0.00     0.048 C 
HETATM   30  C   UNL     1      26.212  42.044  48.769  1.00  0.00     0.007 A 
HETATM   31  C   UNL     1      25.335  42.831  49.522  1.00  0.00     0.010 A 
ENDBRANCH   1  25
BRANCH   8  32
HETATM   32  C   UNL     1      26.484  46.588  53.591  1.00  0.00     0.409 C 
HETATM   33  F   UNL     1      25.466  47.395  53.971  1.00  0.00    -0.169 F 
HETATM   34  F   UNL     1      26.765  45.798  54.664  1.00  0.00    -0.169 F 
HETATM   35  F   UNL     1      27.579  47.346  53.390  1.00  0.00    -0.169 F 
ENDBRANCH   8  32
TORSDOF 6
ENDMDL
MODEL 6
REMARK VINA RESULT:      -8.0     17.552     19.985
REMARK  6 active torsions:
REMARK  status: ('A' for Active; 'I' for Inactive)
REMARK    1  A    between atoms: C_5  and  C_6 
REMARK    2  A    between atoms: C_12  and  C_13 
REMARK       I    between atoms: C_13  and  N_14 
REMARK    3  A    between atoms: N_14  and  C_15 
REMARK    4  A    between atoms: C_18  and  C_19 
REMARK    5  A    between atoms: C_19  and  O_20 
REMARK    6  A    between atoms: C_25  and  C_26 
ROOT
HETATM    1  C   UNL     1      40.331  45.296  63.767  1.00  0.00     0.118 C 
HETATM    2  N   UNL     1      39.179  46.087  64.250  1.00  0.00    -0.365 N 
HETATM    3  C   UNL     1      38.191  45.446  64.948  1.00  0.00     0.138 A 
HETATM    4  N   UNL     1      38.127  44.071  64.986  1.00  0.00    -0.240 N 
HETATM    5  N   UNL     1      37.157  43.598  65.779  1.00  0.00    -0.181 NA
HETATM    6  C   UNL     1      36.524  44.702  66.184  1.00  0.00     0.160 A 
HETATM    7  C   UNL     1      37.117  45.895  65.698  1.00  0.00     0.096 A 
HETATM    8  C   UNL     1      39.024  43.183  64.266  1.00  0.00     0.221 C 
HETATM    9  C   UNL     1      39.797  43.976  63.194  1.00  0.00     0.066 C 
HETATM   10  H   UNL     1      38.873  46.764  63.548  1.00  0.00     0.161 HD
ENDROOT
BRANCH   7  11
HETATM   11  C   UNL     1      36.653  47.245  65.983  1.00  0.00     0.261 C 
HETATM   12  N   UNL     1      37.586  48.038  66.624  1.00  0.00    -0.323 N 
HETATM   13  H   UNL     1      38.431  47.561  66.919  1.00  0.00     0.169 HD
HETATM   14  O   UNL     1      35.528  47.592  65.644  1.00  0.00    -0.267 OA
BRANCH  12  15
HETATM   15  C   UNL     1      37.517  49.425  66.863  1.00  0.00     0.035 A 
HETATM   16  C   UNL     1      37.882  50.395  65.932  1.00  0.00     0.030 A 
HETATM   17  C   UNL     1      37.848  51.758  66.264  1.00  0.00     0.012 A 
HETATM   18  C   UNL     1      37.447  52.187  67.535  1.00  0.00    -0.030 A 
HETATM   19  C   UNL     1      37.075  51.200  68.462  1.00  0.00     0.012 A 
HETATM   20  C   UNL     1      37.096  49.840  68.128  1.00  0.00     0.030 A 
BRANCH  18  21
HETATM   21  C   UNL     1      37.483  53.644  67.959  1.00  0.00     0.147 C 
HETATM   22  C   UNL     1      37.503  54.669  66.826  1.00  0.00     0.044 C 
BRANCH  21  23
HETATM   23  O   UNL     1      36.346  53.921  68.779  1.00  0.00    -0.391 OA
HETATM   24  H   UNL     1      36.327  54.881  68.929  1.00  0.00     0.210 HD
ENDBRANCH  21  23
ENDBRANCH  18  21
ENDBRANCH  12  15
ENDBRANCH   7  11
BRANCH   1  25
HETATM   25  C   UNL     1      41.411  45.082  64.825  1.00  0.00    -0.035 A 
HETATM   26  C   UNL     1      41.331  45.614  66.121  1.00  0.00     0.010 A 
HETATM   27  C   UNL     1      42.312  45.335  67.081  1.00  0.00     0.007 A 
HETATM   28  C   UNL     1      43.409  44.533  66.765  1.00  0.00    -0.062 A 
HETATM   29  C   UNL     1      44.439  44.188  67.799  1.00  0.00     0.048 C 
HETATM   30  C   UNL     1      43.519  44.024  65.468  1.00  0.00     0.007 A 
HETATM   31  C   UNL     1      42.541  44.304  64.510  1.00  0.00     0.010 A 
ENDBRANCH   1  25
BRANCH   8  32
HETATM   32  C   UNL     1      38.283  42.042  63.600  1.00  0.00     0.409 C 
HETATM   33  F   UNL     1      37.153  42.457  62.982  1.00  0.00    -0.169 F 
HETATM   34  F   UNL     1      39.070  41.499  62.630  1.00  0.00    -0.169 F 
HETATM   35  F   UNL     1      37.969  41.032  64.434  1.00  0.00    -0.169 F 
ENDBRANCH   8  32
TORSDOF 6
ENDMDL
MODEL 7
REMARK VINA RESULT:      -7.7      4.610      6.939
REMARK  6 active torsions:
REMARK  status: ('A' for Active; 'I' for Inactive)
REMARK    1  A    between atoms: C_5  and  C_6 
REMARK    2  A    between atoms: C_12  and  C_13 
REMARK       I    between atoms: C_13  and  N_14 
REMARK    3  A    between atoms: N_14  and  C_15 
REMARK    4  A    between atoms: C_18  and  C_19 
REMARK    5  A    between atoms: C_19  and  O_20 
REMARK    6  A    between atoms: C_25  and  C_26 
ROOT
HETATM    1  C   UNL     1      26.407  47.366  49.855  1.00  0.00     0.118 C 
HETATM    2  N   UNL     1      26.377  45.921  49.544  1.00  0.00    -0.365 N 
HETATM    3  C   UNL     1      25.682  45.085  50.376  1.00  0.00     0.138 A 
HETATM    4  N   UNL     1      25.237  45.518  51.606  1.00  0.00    -0.240 N 
HETATM    5  N   UNL     1      24.502  44.612  52.262  1.00  0.00    -0.181 NA
HETATM    6  C   UNL     1      24.558  43.538  51.472  1.00  0.00     0.160 A 
HETATM    7  C   UNL     1      25.284  43.763  50.275  1.00  0.00     0.096 A 
HETATM    8  C   UNL     1      25.500  46.835  52.162  1.00  0.00     0.221 C 
HETATM    9  C   UNL     1      26.626  47.524  51.367  1.00  0.00     0.066 C 
HETATM   10  H   UNL     1      27.292  45.590  49.229  1.00  0.00     0.161 HD
ENDROOT
BRANCH   7  11
HETATM   11  C   UNL     1      25.502  42.781  49.222  1.00  0.00     0.261 C 
HETATM   12  N   UNL     1      26.641  42.017  49.390  1.00  0.00    -0.323 N 
HETATM   13  H   UNL     1      27.244  42.301  50.154  1.00  0.00     0.169 HD
HETATM   14  O   UNL     1      24.699  42.680  48.302  1.00  0.00    -0.267 OA
BRANCH  12  15
HETATM   15  C   UNL     1      27.026  40.875  48.662  1.00  0.00     0.035 A 
HETATM   16  C   UNL     1      27.682  40.918  47.433  1.00  0.00     0.030 A 
HETATM   17  C   UNL     1      27.977  39.739  46.733  1.00  0.00     0.012 A 
HETATM   18  C   UNL     1      27.626  38.483  47.245  1.00  0.00    -0.030 A 
HETATM   19  C   UNL     1      26.972  38.451  48.487  1.00  0.00     0.012 A 
HETATM   20  C   UNL     1      26.688  39.628  49.193  1.00  0.00     0.030 A 
BRANCH  18  21
HETATM   21  C   UNL     1      27.848  37.193  46.476  1.00  0.00     0.147 C 
HETATM   22  C   UNL     1      29.218  37.033  45.820  1.00  0.00     0.044 C 
BRANCH  21  23
HETATM   23  O   UNL     1      27.653  36.084  47.357  1.00  0.00    -0.391 OA
HETATM   24  H   UNL     1      27.153  36.412  48.123  1.00  0.00     0.210 HD
ENDBRANCH  21  23
ENDBRANCH  18  21
ENDBRANCH  12  15
ENDBRANCH   7  11
BRANCH   1  25
HETATM   25  C   UNL     1      25.178  48.123  49.359  1.00  0.00    -0.035 A 
HETATM   26  C   UNL     1      23.870  47.627  49.481  1.00  0.00     0.010 A 
HETATM   27  C   UNL     1      22.766  48.386  49.075  1.00  0.00     0.007 A 
HETATM   28  C   UNL     1      22.940  49.653  48.517  1.00  0.00    -0.062 A 
HETATM   29  C   UNL     1      21.762  50.494  48.124  1.00  0.00     0.048 C 
HETATM   30  C   UNL     1      24.238  50.147  48.359  1.00  0.00     0.007 A 
HETATM   31  C   UNL     1      25.340  49.387  48.763  1.00  0.00     0.010 A 
ENDBRANCH   1  25
BRANCH   8  32
HETATM   32  C   UNL     1      25.894  46.767  53.622  1.00  0.00     0.409 C 
HETATM   33  F   UNL     1      27.219  46.544  53.786  1.00  0.00    -0.169 F 
HETATM   34  F   UNL     1      25.634  47.965  54.216  1.00  0.00    -0.169 F 
HETATM   35  F   UNL     1      25.214  45.845  54.332  1.00  0.00    -0.169 F 
ENDBRANCH   8  32
TORSDOF 6
ENDMDL
MODEL 8
REMARK VINA RESULT:      -7.7     16.730     19.753
REMARK  6 active torsions:
REMARK  status: ('A' for Active; 'I' for Inactive)
REMARK    1  A    between atoms: C_5  and  C_6 
REMARK    2  A    between atoms: C_12  and  C_13 
REMARK       I    between atoms: C_13  and  N_14 
REMARK    3  A    between atoms: N_14  and  C_15 
REMARK    4  A    between atoms: C_18  and  C_19 
REMARK    5  A    between atoms: C_19  and  O_20 
REMARK    6  A    between atoms: C_25  and  C_26 
ROOT
HETATM    1  C   UNL     1      39.472  45.762  66.842  1.00  0.00     0.118 C 
HETATM    2  N   UNL     1      39.038  44.426  66.381  1.00  0.00    -0.365 N 
HETATM    3  C   UNL     1      38.448  44.317  65.150  1.00  0.00     0.138 A 
HETATM    4  N   UNL     1      38.031  45.435  64.462  1.00  0.00    -0.240 N 
HETATM    5  N   UNL     1      37.554  45.167  63.240  1.00  0.00    -0.181 NA
HETATM    6  C   UNL     1      37.579  43.834  63.184  1.00  0.00     0.160 A 
HETATM    7  C   UNL     1      38.124  43.236  64.348  1.00  0.00     0.096 A 
HETATM    8  C   UNL     1      38.108  46.794  64.971  1.00  0.00     0.221 C 
HETATM    9  C   UNL     1      38.368  46.770  66.490  1.00  0.00     0.066 C 
HETATM   10  H   UNL     1      38.607  43.894  67.140  1.00  0.00     0.161 HD
ENDROOT
BRANCH   7  11
HETATM   11  C   UNL     1      38.288  41.806  64.565  1.00  0.00     0.261 C 
HETATM   12  N   UNL     1      39.588  41.360  64.426  1.00  0.00    -0.323 N 
HETATM   13  H   UNL     1      40.247  42.049  64.080  1.00  0.00     0.169 HD
HETATM   14  O   UNL     1      37.319  41.115  64.861  1.00  0.00    -0.267 OA
BRANCH  12  15
HETATM   15  C   UNL     1      40.101  40.089  64.752  1.00  0.00     0.035 A 
HETATM   16  C   UNL     1      40.501  39.145  63.808  1.00  0.00     0.030 A 
HETATM   17  C   UNL     1      40.943  37.874  64.206  1.00  0.00     0.012 A 
HETATM   18  C   UNL     1      40.999  37.514  65.558  1.00  0.00    -0.030 A 
HETATM   19  C   UNL     1      40.601  38.477  66.500  1.00  0.00     0.012 A 
HETATM   20  C   UNL     1      40.171  39.750  66.105  1.00  0.00     0.030 A 
BRANCH  18  21
HETATM   21  C   UNL     1      41.385  36.121  66.021  1.00  0.00     0.147 C 
HETATM   22  C   UNL     1      40.230  35.152  66.263  1.00  0.00     0.044 C 
BRANCH  21  23
HETATM   23  O   UNL     1      42.255  35.531  65.051  1.00  0.00    -0.391 OA
HETATM   24  H   UNL     1      42.456  36.216  64.392  1.00  0.00     0.210 HD
ENDBRANCH  21  23
ENDBRANCH  18  21
ENDBRANCH  12  15
ENDBRANCH   7  11
BRANCH   1  25
HETATM   25  C   UNL     1      40.839  46.179  66.305  1.00  0.00    -0.035 A 
HETATM   26  C   UNL     1      41.503  47.345  66.719  1.00  0.00     0.010 A 
HETATM   27  C   UNL     1      42.786  47.653  66.253  1.00  0.00     0.007 A 
HETATM   28  C   UNL     1      43.433  46.814  65.344  1.00  0.00    -0.062 A 
HETATM   29  C   UNL     1      44.828  47.110  64.875  1.00  0.00     0.048 C 
HETATM   30  C   UNL     1      42.771  45.667  64.897  1.00  0.00     0.007 A 
HETATM   31  C   UNL     1      41.489  45.361  65.362  1.00  0.00     0.010 A 
ENDBRANCH   1  25
BRANCH   8  32
HETATM   32  C   UNL     1      36.840  47.576  64.698  1.00  0.00     0.409 C 
HETATM   33  F   UNL     1      35.727  46.877  65.020  1.00  0.00    -0.169 F 
HETATM   34  F   UNL     1      36.825  48.695  65.474  1.00  0.00    -0.169 F 
HETATM   35  F   UNL     1      36.724  48.004  63.426  1.00  0.00    -0.169 F 
ENDBRANCH   8  32
TORSDOF 6
ENDMDL
MODEL 9
REMARK VINA RESULT:      -7.7     14.574     17.672
REMARK  6 active torsions:
REMARK  status: ('A' for Active; 'I' for Inactive)
REMARK    1  A    between atoms: C_5  and  C_6 
REMARK    2  A    between atoms: C_12  and  C_13 
REMARK       I    between atoms: C_13  and  N_14 
REMARK    3  A    between atoms: N_14  and  C_15 
REMARK    4  A    between atoms: C_18  and  C_19 
REMARK    5  A    between atoms: C_19  and  O_20 
REMARK    6  A    between atoms: C_25  and  C_26 
ROOT
HETATM    1  C   UNL     1      39.023  54.237  46.990  1.00  0.00     0.118 C 
HETATM    2  N   UNL     1      38.112  53.565  46.040  1.00  0.00    -0.365 N 
HETATM    3  C   UNL     1      38.125  53.958  44.729  1.00  0.00     0.138 A 
HETATM    4  N   UNL     1      38.771  55.112  44.341  1.00  0.00    -0.240 N 
HETATM    5  N   UNL     1      38.767  55.312  43.017  1.00  0.00    -0.181 NA
HETATM    6  C   UNL     1      38.017  54.309  42.556  1.00  0.00     0.160 A 
HETATM    7  C   UNL     1      37.578  53.425  43.574  1.00  0.00     0.096 A 
HETATM    8  C   UNL     1      39.427  56.036  45.251  1.00  0.00     0.221 C 
HETATM    9  C   UNL     1      38.989  55.744  46.700  1.00  0.00     0.066 C 
HETATM   10  H   UNL     1      37.191  53.407  46.457  1.00  0.00     0.161 HD
ENDROOT
BRANCH   7  11
HETATM   11  C   UNL     1      36.759  52.240  43.368  1.00  0.00     0.261 C 
HETATM   12  N   UNL     1      35.401  52.466  43.486  1.00  0.00    -0.323 N 
HETATM   13  H   UNL     1      35.142  53.392  43.810  1.00  0.00     0.169 HD
HETATM   14  O   UNL     1      37.288  51.167  43.101  1.00  0.00    -0.267 OA
BRANCH  12  15
HETATM   15  C   UNL     1      34.350  51.585  43.164  1.00  0.00     0.035 A 
HETATM   16  C   UNL     1      34.388  50.684  42.101  1.00  0.00     0.030 A 
HETATM   17  C   UNL     1      33.278  49.881  41.800  1.00  0.00     0.012 A 
HETATM   18  C   UNL     1      32.100  49.956  42.554  1.00  0.00    -0.030 A 
HETATM   19  C   UNL     1      32.077  50.862  43.627  1.00  0.00     0.012 A 
HETATM   20  C   UNL     1      33.189  51.655  43.937  1.00  0.00     0.030 A 
BRANCH  18  21
HETATM   21  C   UNL     1      30.850  49.170  42.204  1.00  0.00     0.147 C 
HETATM   22  C   UNL     1      29.649  49.993  41.742  1.00  0.00     0.044 C 
BRANCH  21  23
HETATM   23  O   UNL     1      31.162  48.232  41.170  1.00  0.00    -0.391 OA
HETATM   24  H   UNL     1      30.819  48.599  40.338  1.00  0.00     0.210 HD
ENDBRANCH  21  23
ENDBRANCH  18  21
ENDBRANCH  12  15
ENDBRANCH   7  11
BRANCH   1  25
HETATM   25  C   UNL     1      40.441  53.670  46.982  1.00  0.00    -0.035 A 
HETATM   26  C   UNL     1      40.833  52.598  46.165  1.00  0.00     0.010 A 
HETATM   27  C   UNL     1      42.160  52.155  46.139  1.00  0.00     0.007 A 
HETATM   28  C   UNL     1      43.128  52.760  46.942  1.00  0.00    -0.062 A 
HETATM   29  C   UNL     1      44.563  52.324  46.885  1.00  0.00     0.048 C 
HETATM   30  C   UNL     1      42.746  53.806  47.785  1.00  0.00     0.007 A 
HETATM   31  C   UNL     1      41.419  54.247  47.812  1.00  0.00     0.010 A 
ENDBRANCH   1  25
BRANCH   8  32
HETATM   32  C   UNL     1      39.113  57.480  44.920  1.00  0.00     0.409 C 
HETATM   33  F   UNL     1      37.833  57.645  44.512  1.00  0.00    -0.169 F 
HETATM   34  F   UNL     1      39.258  58.241  46.039  1.00  0.00    -0.169 F 
HETATM   35  F   UNL     1      39.930  58.020  43.994  1.00  0.00    -0.169 F 
ENDBRANCH   8  32
TORSDOF 6
ENDMDL
MODEL 10
REMARK VINA RESULT:      -7.7     13.525     16.861
REMARK  6 active torsions:
REMARK  status: ('A' for Active; 'I' for Inactive)
REMARK    1  A    between atoms: C_5  and  C_6 
REMARK    2  A    between atoms: C_12  and  C_13 
REMARK       I    between atoms: C_13  and  N_14 
REMARK    3  A    between atoms: N_14  and  C_15 
REMARK    4  A    between atoms: C_18  and  C_19 
REMARK    5  A    between atoms: C_19  and  O_20 
REMARK    6  A    between atoms: C_25  and  C_26 
ROOT
HETATM    1  C   UNL     1      38.179  54.602  43.456  1.00  0.00     0.118 C 
HETATM    2  N   UNL     1      36.871  53.955  43.217  1.00  0.00    -0.365 N 
HETATM    3  C   UNL     1      36.849  52.629  42.876  1.00  0.00     0.138 A 
HETATM    4  N   UNL     1      38.003  51.971  42.512  1.00  0.00    -0.240 N 
HETATM    5  N   UNL     1      37.829  50.662  42.291  1.00  0.00    -0.181 NA
HETATM    6  C   UNL     1      36.511  50.498  42.427  1.00  0.00     0.160 A 
HETATM    7  C   UNL     1      35.835  51.690  42.789  1.00  0.00     0.096 A 
HETATM    8  C   UNL     1      39.308  52.598  42.390  1.00  0.00     0.221 C 
HETATM    9  C   UNL     1      39.151  54.132  42.364  1.00  0.00     0.066 C 
HETATM   10  H   UNL     1      36.243  54.569  42.694  1.00  0.00     0.161 HD
ENDROOT
BRANCH   7  11
HETATM   11  C   UNL     1      34.402  51.813  43.017  1.00  0.00     0.261 C 
HETATM   12  N   UNL     1      33.629  51.544  41.904  1.00  0.00    -0.323 N 
HETATM   13  H   UNL     1      34.144  51.406  41.042  1.00  0.00     0.169 HD
HETATM   14  O   UNL     1      33.981  52.116  44.128  1.00  0.00    -0.267 OA
BRANCH  12  15
HETATM   15  C   UNL     1      32.230  51.392  41.845  1.00  0.00     0.035 A 
HETATM   16  C   UNL     1      31.558  50.220  42.189  1.00  0.00     0.030 A 
HETATM   17  C   UNL     1      30.166  50.120  42.043  1.00  0.00     0.012 A 
HETATM   18  C   UNL     1      29.409  51.190  41.551  1.00  0.00    -0.030 A 
HETATM   19  C   UNL     1      30.095  52.368  41.215  1.00  0.00     0.012 A 
HETATM   20  C   UNL     1      31.483  52.473  41.372  1.00  0.00     0.030 A 
BRANCH  18  21
HETATM   21  C   UNL     1      27.916  51.089  41.296  1.00  0.00     0.147 C 
HETATM   22  C   UNL     1      27.499  50.870  39.842  1.00  0.00     0.044 C 
BRANCH  21  23
HETATM   23  O   UNL     1      27.381  50.013  42.071  1.00  0.00    -0.391 OA
HETATM   24  H   UNL     1      28.084  49.348  42.163  1.00  0.00     0.210 HD
ENDBRANCH  21  23
ENDBRANCH  18  21
ENDBRANCH  12  15
ENDBRANCH   7  11
BRANCH   1  25
HETATM   25  C   UNL     1      38.724  54.375  44.864  1.00  0.00    -0.035 A 
HETATM   26  C   UNL     1      40.096  54.281  45.149  1.00  0.00     0.010 A 
HETATM   27  C   UNL     1      40.555  54.143  46.464  1.00  0.00     0.007 A 
HETATM   28  C   UNL     1      39.654  54.074  47.528  1.00  0.00    -0.062 A 
HETATM   29  C   UNL     1      40.137  53.974  48.945  1.00  0.00     0.048 C 
HETATM   30  C   UNL     1      38.285  54.133  47.257  1.00  0.00     0.007 A 
HETATM   31  C   UNL     1      37.827  54.270  45.943  1.00  0.00     0.010 A 
ENDBRANCH   1  25
BRANCH   8  32
HETATM   32  C   UNL     1      40.038  52.155  41.140  1.00  0.00     0.409 C 
HETATM   33  F   UNL     1      39.210  52.042  40.075  1.00  0.00    -0.169 F 
HETATM   34  F   UNL     1      40.967  53.093  40.803  1.00  0.00    -0.169 F 
HETATM   35  F   UNL     1      40.713  50.997  41.281  1.00  0.00    -0.169 F 
ENDBRANCH   8  32
TORSDOF 6
ENDMDL
