MODEL 1
REMARK VINA RESULT:     -10.1      0.000      0.000
REMARK  7 active torsions:
REMARK  status: ('A' for Active; 'I' for Inactive)
REMARK    1  A    between atoms: C_2  and  C_3 
REMARK    2  A    between atoms: C_4  and  O_5 
REMARK    3  A    between atoms: N_10  and  N_11 
REMARK       I    between atoms: N_11  and  C_12 
REMARK    4  A    between atoms: C_12  and  C_13 
REMARK    5  A    between atoms: C_16  and  C_17 
REMARK    6  A    between atoms: C_17  and  S_18 
REMARK    7  A    between atoms: S_18  and  C_19 
ROOT
HETATM    1  C   UNL     1      25.957  45.476  51.339  1.00  0.00     0.033 A 
HETATM    2  C   UNL     1      26.002  46.864  51.174  1.00  0.00     0.017 A 
HETATM    3  C   UNL     1      25.043  47.511  50.391  1.00  0.00     0.009 A 
HETATM    4  C   UNL     1      24.031  46.777  49.755  1.00  0.00    -0.048 A 
HETATM    5  C   UNL     1      24.022  45.380  49.884  1.00  0.00     0.009 A 
HETATM    6  C   UNL     1      24.978  44.731  50.670  1.00  0.00     0.017 A 
ENDROOT
BRANCH   1   7
HETATM    7  C   UNL     1      26.959  44.839  52.238  1.00  0.00     0.271 C 
HETATM    8  N   UNL     1      26.953  45.298  53.548  1.00  0.00    -0.243 N 
HETATM    9  H   UNL     1      26.357  46.069  53.813  1.00  0.00     0.192 HD
HETATM   10  O   UNL     1      27.747  44.014  51.785  1.00  0.00    -0.266 OA
BRANCH   8  11
HETATM   11  N   UNL     1      27.879  44.825  54.423  1.00  0.00    -0.176 NA
HETATM   12  C   UNL     1      28.632  45.660  55.079  1.00  0.00     0.064 C 
HETATM   13  C   UNL     1      28.560  47.165  54.924  1.00  0.00     0.073 C 
BRANCH  12  14
HETATM   14  C   UNL     1      29.644  45.083  56.019  1.00  0.00     0.023 A 
HETATM   15  C   UNL     1      30.405  43.967  55.639  1.00  0.00     0.077 A 
HETATM   16  C   UNL     1      31.382  43.451  56.488  1.00  0.00     0.037 A 
HETATM   17  C   UNL     1      31.590  44.027  57.741  1.00  0.00     0.003 A 
HETATM   18  C   UNL     1      30.817  45.114  58.145  1.00  0.00     0.001 A 
HETATM   19  C   UNL     1      29.844  45.641  57.289  1.00  0.00     0.016 A 
BRANCH  15  20
HETATM   20  O   UNL     1      30.254  43.327  54.438  1.00  0.00    -0.360 OA
HETATM   21  H   UNL     1      30.177  44.013  53.734  1.00  0.00     0.217 HD
ENDBRANCH  15  20
ENDBRANCH  12  14
ENDBRANCH   8  11
ENDBRANCH   1   7
BRANCH   4  22
HETATM   22  C   UNL     1      22.968  47.478  48.945  1.00  0.00     0.121 C 
BRANCH  22  23
HETATM   23  S   UNL     1      23.448  49.173  48.503  1.00  0.00    -0.087 SA
BRANCH  23  24
HETATM   24  C   UNL     1      21.940  49.971  48.744  1.00  0.00     0.167 A 
HETATM   25  N   UNL     1      21.553  51.111  48.227  1.00  0.00    -0.223 NA
HETATM   26  C   UNL     1      20.287  51.308  48.727  1.00  0.00     0.086 A 
HETATM   27  C   UNL     1      19.907  50.257  49.558  1.00  0.00     0.063 A 
HETATM   28  C   UNL     1      19.395  52.368  48.513  1.00  0.00     0.034 A 
HETATM   29  N   UNL     1      20.991  49.415  49.550  1.00  0.00    -0.333 N 
HETATM   30  C   UNL     1      18.668  50.196  50.198  1.00  0.00     0.032 A 
HETATM   31  H   UNL     1      21.084  48.541  50.043  1.00  0.00     0.168 HD
HETATM   32  C   UNL     1      17.792  51.263  49.971  1.00  0.00     0.002 A 
HETATM   33  C   UNL     1      18.146  52.333  49.145  1.00  0.00     0.002 A 
ENDBRANCH  23  24
ENDBRANCH  22  23
ENDBRANCH   4  22
TORSDOF 7
ENDMDL
MODEL 2
REMARK VINA RESULT:      -9.9      1.773      2.387
REMARK  7 active torsions:
REMARK  status: ('A' for Active; 'I' for Inactive)
REMARK    1  A    between atoms: C_2  and  C_3 
REMARK    2  A    between atoms: C_4  and  O_5 
REMARK    3  A    between atoms: N_10  and  N_11 
REMARK       I    between atoms: N_11  and  C_12 
REMARK    4  A    between atoms: C_12  and  C_13 
REMARK    5  A    between atoms: C_16  and  C_17 
REMARK    6  A    between atoms: C_17  and  S_18 
REMARK    7  A    between atoms: S_18  and  C_19 
ROOT
HETATM    1  C   UNL     1      25.201  46.132  51.557  1.00  0.00     0.033 A 
HETATM    2  C   UNL     1      24.608  44.891  51.309  1.00  0.00     0.017 A 
HETATM    3  C   UNL     1      23.780  44.717  50.197  1.00  0.00     0.009 A 
HETATM    4  C   UNL     1      23.527  45.786  49.324  1.00  0.00    -0.048 A 
HETATM    5  C   UNL     1      24.086  47.041  49.607  1.00  0.00     0.009 A 
HETATM    6  C   UNL     1      24.917  47.216  50.717  1.00  0.00     0.017 A 
ENDROOT
BRANCH   1   7
HETATM    7  C   UNL     1      26.130  46.252  52.715  1.00  0.00     0.271 C 
HETATM    8  N   UNL     1      26.952  45.154  52.928  1.00  0.00    -0.243 N 
HETATM    9  H   UNL     1      26.838  44.318  52.370  1.00  0.00     0.192 HD
HETATM   10  O   UNL     1      26.090  47.249  53.430  1.00  0.00    -0.266 OA
BRANCH   8  11
HETATM   11  N   UNL     1      27.783  45.143  54.003  1.00  0.00    -0.176 NA
HETATM   12  C   UNL     1      28.797  44.326  54.027  1.00  0.00     0.064 C 
HETATM   13  C   UNL     1      29.121  43.347  52.917  1.00  0.00     0.073 C 
BRANCH  12  14
HETATM   14  C   UNL     1      29.670  44.347  55.242  1.00  0.00     0.023 A 
HETATM   15  C   UNL     1      29.564  45.393  56.171  1.00  0.00     0.077 A 
HETATM   16  C   UNL     1      30.339  45.398  57.328  1.00  0.00     0.037 A 
HETATM   17  C   UNL     1      31.253  44.370  57.558  1.00  0.00     0.003 A 
HETATM   18  C   UNL     1      31.393  43.343  56.626  1.00  0.00     0.001 A 
HETATM   19  C   UNL     1      30.607  43.330  55.470  1.00  0.00     0.016 A 
BRANCH  15  20
HETATM   20  O   UNL     1      28.709  46.452  56.016  1.00  0.00    -0.360 OA
HETATM   21  H   UNL     1      29.131  47.098  55.402  1.00  0.00     0.217 HD
ENDBRANCH  15  20
ENDBRANCH  12  14
ENDBRANCH   8  11
ENDBRANCH   1   7
BRANCH   4  22
HETATM   22  C   UNL     1      22.669  45.589  48.098  1.00  0.00     0.121 C 
BRANCH  22  23
HETATM   23  S   UNL     1      20.897  45.584  48.494  1.00  0.00    -0.087 SA
BRANCH  23  24
HETATM   24  C   UNL     1      20.624  47.282  48.610  1.00  0.00     0.167 A 
HETATM   25  N   UNL     1      21.085  48.217  47.815  1.00  0.00    -0.223 NA
HETATM   26  C   UNL     1      20.590  49.390  48.334  1.00  0.00     0.086 A 
HETATM   27  C   UNL     1      19.810  49.149  49.462  1.00  0.00     0.063 A 
HETATM   28  C   UNL     1      20.764  50.708  47.891  1.00  0.00     0.034 A 
HETATM   29  N   UNL     1      19.854  47.786  49.615  1.00  0.00    -0.333 N 
HETATM   30  C   UNL     1      19.179  50.162  50.188  1.00  0.00     0.032 A 
HETATM   31  H   UNL     1      19.402  47.241  50.333  1.00  0.00     0.168 HD
HETATM   32  C   UNL     1      19.366  51.471  49.729  1.00  0.00     0.002 A 
HETATM   33  C   UNL     1      20.145  51.743  48.601  1.00  0.00     0.002 A 
ENDBRANCH  23  24
ENDBRANCH  22  23
ENDBRANCH   4  22
TORSDOF 7
ENDMDL
MODEL 3
REMARK VINA RESULT:      -9.8      3.033     11.321
REMARK  7 active torsions:
REMARK  status: ('A' for Active; 'I' for Inactive)
REMARK    1  A    between atoms: C_2  and  C_3 
REMARK    2  A    between atoms: C_4  and  O_5 
REMARK    3  A    between atoms: N_10  and  N_11 
REMARK       I    between atoms: N_11  and  C_12 
REMARK    4  A    between atoms: C_12  and  C_13 
REMARK    5  A    between atoms: C_16  and  C_17 
REMARK    6  A    between atoms: C_17  and  S_18 
REMARK    7  A    between atoms: S_18  and  C_19 
ROOT
HETATM    1  C   UNL     1      23.785  46.325  49.299  1.00  0.00     0.033 A 
HETATM    2  C   UNL     1      23.934  45.009  48.849  1.00  0.00     0.017 A 
HETATM    3  C   UNL     1      25.067  44.270  49.199  1.00  0.00     0.009 A 
HETATM    4  C   UNL     1      26.070  44.841  49.996  1.00  0.00    -0.048 A 
HETATM    5  C   UNL     1      25.938  46.177  50.402  1.00  0.00     0.009 A 
HETATM    6  C   UNL     1      24.804  46.918  50.056  1.00  0.00     0.017 A 
ENDROOT
BRANCH   1   7
HETATM    7  C   UNL     1      22.530  47.051  48.959  1.00  0.00     0.271 C 
HETATM    8  N   UNL     1      22.377  48.285  49.574  1.00  0.00    -0.243 N 
HETATM    9  H   UNL     1      23.047  48.597  50.263  1.00  0.00     0.192 HD
HETATM   10  O   UNL     1      21.699  46.522  48.226  1.00  0.00    -0.266 OA
BRANCH   8  11
HETATM   11  N   UNL     1      21.230  48.988  49.379  1.00  0.00    -0.176 NA
HETATM   12  C   UNL     1      21.223  50.276  49.568  1.00  0.00     0.064 C 
HETATM   13  C   UNL     1      22.431  51.072  50.017  1.00  0.00     0.073 C 
BRANCH  12  14
HETATM   14  C   UNL     1      19.929  50.997  49.352  1.00  0.00     0.023 A 
HETATM   15  C   UNL     1      18.798  50.662  50.111  1.00  0.00     0.077 A 
HETATM   16  C   UNL     1      17.602  51.358  49.949  1.00  0.00     0.037 A 
HETATM   17  C   UNL     1      17.513  52.380  49.006  1.00  0.00     0.003 A 
HETATM   18  C   UNL     1      18.619  52.700  48.220  1.00  0.00     0.001 A 
HETATM   19  C   UNL     1      19.824  52.010  48.389  1.00  0.00     0.016 A 
BRANCH  15  20
HETATM   20  O   UNL     1      18.788  49.660  51.045  1.00  0.00    -0.360 OA
HETATM   21  H   UNL     1      17.972  49.124  50.909  1.00  0.00     0.217 HD
ENDBRANCH  15  20
ENDBRANCH  12  14
ENDBRANCH   8  11
ENDBRANCH   1   7
BRANCH   4  22
HETATM   22  C   UNL     1      27.273  44.029  50.412  1.00  0.00     0.121 C 
BRANCH  22  23
HETATM   23  S   UNL     1      26.867  42.805  51.690  1.00  0.00    -0.087 SA
BRANCH  23  24
HETATM   24  C   UNL     1      27.947  43.317  52.932  1.00  0.00     0.167 A 
HETATM   25  N   UNL     1      29.000  42.680  53.380  1.00  0.00    -0.223 NA
HETATM   26  C   UNL     1      29.510  43.498  54.361  1.00  0.00     0.086 A 
HETATM   27  C   UNL     1      28.745  44.654  54.497  1.00  0.00     0.063 A 
HETATM   28  C   UNL     1      30.632  43.319  55.182  1.00  0.00     0.034 A 
HETATM   29  N   UNL     1      27.747  44.506  53.567  1.00  0.00    -0.333 N 
HETATM   30  C   UNL     1      29.038  45.663  55.417  1.00  0.00     0.032 A 
HETATM   31  H   UNL     1      26.997  45.152  53.374  1.00  0.00     0.168 HD
HETATM   32  C   UNL     1      30.162  45.465  56.227  1.00  0.00     0.002 A 
HETATM   33  C   UNL     1      30.948  44.314  56.115  1.00  0.00     0.002 A 
ENDBRANCH  23  24
ENDBRANCH  22  23
ENDBRANCH   4  22
TORSDOF 7
ENDMDL
MODEL 4
REMARK VINA RESULT:      -9.7      3.102     11.126
REMARK  7 active torsions:
REMARK  status: ('A' for Active; 'I' for Inactive)
REMARK    1  A    between atoms: C_2  and  C_3 
REMARK    2  A    between atoms: C_4  and  O_5 
REMARK    3  A    between atoms: N_10  and  N_11 
REMARK       I    between atoms: N_11  and  C_12 
REMARK    4  A    between atoms: C_12  and  C_13 
REMARK    5  A    between atoms: C_16  and  C_17 
REMARK    6  A    between atoms: C_17  and  S_18 
REMARK    7  A    between atoms: S_18  and  C_19 
ROOT
HETATM    1  C   UNL     1      24.783  46.976  49.532  1.00  0.00     0.033 A 
HETATM    2  C   UNL     1      24.105  45.772  49.316  1.00  0.00     0.017 A 
HETATM    3  C   UNL     1      24.794  44.558  49.371  1.00  0.00     0.009 A 
HETATM    4  C   UNL     1      26.172  44.533  49.635  1.00  0.00    -0.048 A 
HETATM    5  C   UNL     1      26.854  45.747  49.801  1.00  0.00     0.009 A 
HETATM    6  C   UNL     1      26.166  46.963  49.749  1.00  0.00     0.017 A 
ENDROOT
BRANCH   1   7
HETATM    7  C   UNL     1      23.995  48.240  49.531  1.00  0.00     0.271 C 
HETATM    8  N   UNL     1      22.617  48.076  49.543  1.00  0.00    -0.243 N 
HETATM    9  H   UNL     1      22.214  47.152  49.471  1.00  0.00     0.192 HD
HETATM   10  O   UNL     1      24.575  49.320  49.465  1.00  0.00    -0.266 OA
BRANCH   8  11
HETATM   11  N   UNL     1      21.816  49.172  49.472  1.00  0.00    -0.176 NA
HETATM   12  C   UNL     1      20.555  49.031  49.179  1.00  0.00     0.064 C 
HETATM   13  C   UNL     1      19.898  47.697  48.889  1.00  0.00     0.073 C 
BRANCH  12  14
HETATM   14  C   UNL     1      19.724  50.273  49.101  1.00  0.00     0.023 A 
HETATM   15  C   UNL     1      18.744  50.531  50.072  1.00  0.00     0.077 A 
HETATM   16  C   UNL     1      17.997  51.706  50.033  1.00  0.00     0.037 A 
HETATM   17  C   UNL     1      18.199  52.626  49.006  1.00  0.00     0.003 A 
HETATM   18  C   UNL     1      19.145  52.366  48.015  1.00  0.00     0.001 A 
HETATM   19  C   UNL     1      19.904  51.193  48.058  1.00  0.00     0.016 A 
BRANCH  15  20
HETATM   20  O   UNL     1      18.465  49.674  51.103  1.00  0.00    -0.360 OA
HETATM   21  H   UNL     1      18.510  48.752  50.756  1.00  0.00     0.217 HD
ENDBRANCH  15  20
ENDBRANCH  12  14
ENDBRANCH   8  11
ENDBRANCH   1   7
BRANCH   4  22
HETATM   22  C   UNL     1      26.909  43.219  49.740  1.00  0.00     0.121 C 
BRANCH  22  23
HETATM   23  S   UNL     1      26.347  42.229  51.154  1.00  0.00    -0.087 SA
BRANCH  23  24
HETATM   24  C   UNL     1      27.310  42.933  52.398  1.00  0.00     0.167 A 
HETATM   25  N   UNL     1      27.043  44.010  53.095  1.00  0.00    -0.223 NA
HETATM   26  C   UNL     1      28.115  44.149  53.945  1.00  0.00     0.086 A 
HETATM   27  C   UNL     1      29.042  43.126  53.754  1.00  0.00     0.063 A 
HETATM   28  C   UNL     1      28.368  45.129  54.915  1.00  0.00     0.034 A 
HETATM   29  N   UNL     1      28.497  42.363  52.752  1.00  0.00    -0.333 N 
HETATM   30  C   UNL     1      30.225  43.018  54.487  1.00  0.00     0.032 A 
HETATM   31  H   UNL     1      28.888  41.529  52.343  1.00  0.00     0.168 HD
HETATM   32  C   UNL     1      30.459  44.006  55.450  1.00  0.00     0.002 A 
HETATM   33  C   UNL     1      29.549  45.046  55.663  1.00  0.00     0.002 A 
ENDBRANCH  23  24
ENDBRANCH  22  23
ENDBRANCH   4  22
TORSDOF 7
ENDMDL
MODEL 5
REMARK VINA RESULT:      -9.2      3.156     11.736
REMARK  7 active torsions:
REMARK  status: ('A' for Active; 'I' for Inactive)
REMARK    1  A    between atoms: C_2  and  C_3 
REMARK    2  A    between atoms: C_4  and  O_5 
REMARK    3  A    between atoms: N_10  and  N_11 
REMARK       I    between atoms: N_11  and  C_12 
REMARK    4  A    between atoms: C_12  and  C_13 
REMARK    5  A    between atoms: C_16  and  C_17 
REMARK    6  A    between atoms: C_17  and  S_18 
REMARK    7  A    between atoms: S_18  and  C_19 
ROOT
HETATM    1  C   UNL     1      23.345  47.210  49.141  1.00  0.00     0.033 A 
HETATM    2  C   UNL     1      23.367  45.830  48.914  1.00  0.00     0.017 A 
HETATM    3  C   UNL     1      24.378  45.041  49.470  1.00  0.00     0.009 A 
HETATM    4  C   UNL     1      25.386  45.625  50.251  1.00  0.00    -0.048 A 
HETATM    5  C   UNL     1      25.387  47.016  50.432  1.00  0.00     0.009 A 
HETATM    6  C   UNL     1      24.374  47.806  49.881  1.00  0.00     0.017 A 
ENDROOT
BRANCH   1   7
HETATM    7  C   UNL     1      22.211  47.999  48.586  1.00  0.00     0.271 C 
HETATM    8  N   UNL     1      21.251  48.382  49.511  1.00  0.00    -0.243 N 
HETATM    9  H   UNL     1      21.307  48.058  50.467  1.00  0.00     0.192 HD
HETATM   10  O   UNL     1      22.151  48.215  47.379  1.00  0.00    -0.266 OA
BRANCH   8  11
HETATM   11  N   UNL     1      20.143  49.045  49.086  1.00  0.00    -0.176 NA
HETATM   12  C   UNL     1      19.957  50.285  49.439  1.00  0.00     0.064 C 
HETATM   13  C   UNL     1      20.906  51.062  50.327  1.00  0.00     0.073 C 
BRANCH  12  14
HETATM   14  C   UNL     1      18.713  50.960  48.953  1.00  0.00     0.023 A 
HETATM   15  C   UNL     1      18.438  51.032  47.579  1.00  0.00     0.077 A 
HETATM   16  C   UNL     1      17.261  51.617  47.119  1.00  0.00     0.037 A 
HETATM   17  C   UNL     1      16.355  52.165  48.026  1.00  0.00     0.003 A 
HETATM   18  C   UNL     1      16.632  52.132  49.392  1.00  0.00     0.001 A 
HETATM   19  C   UNL     1      17.808  51.534  49.856  1.00  0.00     0.016 A 
BRANCH  15  20
HETATM   20  O   UNL     1      19.280  50.538  46.617  1.00  0.00    -0.360 OA
HETATM   21  H   UNL     1      19.315  51.191  45.879  1.00  0.00     0.217 HD
ENDBRANCH  15  20
ENDBRANCH  12  14
ENDBRANCH   8  11
ENDBRANCH   1   7
BRANCH   4  22
HETATM   22  C   UNL     1      26.454  44.769  50.889  1.00  0.00     0.121 C 
BRANCH  22  23
HETATM   23  S   UNL     1      25.849  43.907  52.368  1.00  0.00    -0.087 SA
BRANCH  23  24
HETATM   24  C   UNL     1      27.177  44.193  53.430  1.00  0.00     0.167 A 
HETATM   25  N   UNL     1      27.405  45.266  54.146  1.00  0.00    -0.223 NA
HETATM   26  C   UNL     1      28.579  45.000  54.809  1.00  0.00     0.086 A 
HETATM   27  C   UNL     1      29.062  43.734  54.484  1.00  0.00     0.063 A 
HETATM   28  C   UNL     1      29.298  45.796  55.711  1.00  0.00     0.034 A 
HETATM   29  N   UNL     1      28.140  43.242  53.595  1.00  0.00    -0.333 N 
HETATM   30  C   UNL     1      30.238  43.203  55.017  1.00  0.00     0.032 A 
HETATM   31  H   UNL     1      28.156  42.343  53.139  1.00  0.00     0.168 HD
HETATM   32  C   UNL     1      30.941  44.013  55.916  1.00  0.00     0.002 A 
HETATM   33  C   UNL     1      30.483  45.288  56.258  1.00  0.00     0.002 A 
ENDBRANCH  23  24
ENDBRANCH  22  23
ENDBRANCH   4  22
TORSDOF 7
ENDMDL
MODEL 6
REMARK VINA RESULT:      -9.1      1.803      2.287
REMARK  7 active torsions:
REMARK  status: ('A' for Active; 'I' for Inactive)
REMARK    1  A    between atoms: C_2  and  C_3 
REMARK    2  A    between atoms: C_4  and  O_5 
REMARK    3  A    between atoms: N_10  and  N_11 
REMARK       I    between atoms: N_11  and  C_12 
REMARK    4  A    between atoms: C_12  and  C_13 
REMARK    5  A    between atoms: C_16  and  C_17 
REMARK    6  A    between atoms: C_17  and  S_18 
REMARK    7  A    between atoms: S_18  and  C_19 
ROOT
HETATM    1  C   UNL     1      25.199  45.050  49.659  1.00  0.00     0.033 A 
HETATM    2  C   UNL     1      24.679  46.339  49.812  1.00  0.00     0.017 A 
HETATM    3  C   UNL     1      23.498  46.704  49.159  1.00  0.00     0.009 A 
HETATM    4  C   UNL     1      22.828  45.785  48.337  1.00  0.00    -0.048 A 
HETATM    5  C   UNL     1      23.382  44.510  48.149  1.00  0.00     0.009 A 
HETATM    6  C   UNL     1      24.560  44.142  48.804  1.00  0.00     0.017 A 
ENDROOT
BRANCH   1   7
HETATM    7  C   UNL     1      26.420  44.685  50.428  1.00  0.00     0.271 C 
HETATM    8  N   UNL     1      26.309  44.810  51.806  1.00  0.00    -0.243 N 
HETATM    9  H   UNL     1      25.474  45.205  52.215  1.00  0.00     0.192 HD
HETATM   10  O   UNL     1      27.443  44.360  49.832  1.00  0.00    -0.266 OA
BRANCH   8  11
HETATM   11  N   UNL     1      27.396  44.568  52.586  1.00  0.00    -0.176 NA
HETATM   12  C   UNL     1      27.415  44.994  53.816  1.00  0.00     0.064 C 
HETATM   13  C   UNL     1      26.287  45.777  54.458  1.00  0.00     0.073 C 
BRANCH  12  14
HETATM   14  C   UNL     1      28.643  44.711  54.624  1.00  0.00     0.023 A 
HETATM   15  C   UNL     1      29.275  43.462  54.534  1.00  0.00     0.077 A 
HETATM   16  C   UNL     1      30.444  43.205  55.247  1.00  0.00     0.037 A 
HETATM   17  C   UNL     1      30.980  44.184  56.082  1.00  0.00     0.003 A 
HETATM   18  C   UNL     1      30.342  45.417  56.208  1.00  0.00     0.001 A 
HETATM   19  C   UNL     1      29.175  45.682  55.484  1.00  0.00     0.016 A 
BRANCH  15  20
HETATM   20  O   UNL     1      28.808  42.437  53.756  1.00  0.00    -0.360 OA
HETATM   21  H   UNL     1      27.828  42.398  53.858  1.00  0.00     0.217 HD
ENDBRANCH  15  20
ENDBRANCH  12  14
ENDBRANCH   8  11
ENDBRANCH   1   7
BRANCH   4  22
HETATM   22  C   UNL     1      21.529  46.162  47.666  1.00  0.00     0.121 C 
BRANCH  22  23
HETATM   23  S   UNL     1      20.090  45.829  48.722  1.00  0.00    -0.087 SA
BRANCH  23  24
HETATM   24  C   UNL     1      19.535  47.443  48.969  1.00  0.00     0.167 A 
HETATM   25  N   UNL     1      18.358  47.933  48.667  1.00  0.00    -0.223 NA
HETATM   26  C   UNL     1      18.420  49.250  49.056  1.00  0.00     0.086 A 
HETATM   27  C   UNL     1      19.662  49.552  49.610  1.00  0.00     0.063 A 
HETATM   28  C   UNL     1      17.447  50.256  48.969  1.00  0.00     0.034 A 
HETATM   29  N   UNL     1      20.357  48.371  49.537  1.00  0.00    -0.333 N 
HETATM   30  C   UNL     1      19.999  50.818  50.093  1.00  0.00     0.032 A 
HETATM   31  H   UNL     1      21.302  48.202  49.846  1.00  0.00     0.168 HD
HETATM   32  C   UNL     1      19.014  51.807  49.997  1.00  0.00     0.002 A 
HETATM   33  C   UNL     1      17.759  51.535  49.444  1.00  0.00     0.002 A 
ENDBRANCH  23  24
ENDBRANCH  22  23
ENDBRANCH   4  22
TORSDOF 7
ENDMDL
MODEL 7
REMARK VINA RESULT:      -9.1      3.692     10.930
REMARK  7 active torsions:
REMARK  status: ('A' for Active; 'I' for Inactive)
REMARK    1  A    between atoms: C_2  and  C_3 
REMARK    2  A    between atoms: C_4  and  O_5 
REMARK    3  A    between atoms: N_10  and  N_11 
REMARK       I    between atoms: N_11  and  C_12 
REMARK    4  A    between atoms: C_12  and  C_13 
REMARK    5  A    between atoms: C_16  and  C_17 
REMARK    6  A    between atoms: C_17  and  S_18 
REMARK    7  A    between atoms: S_18  and  C_19 
ROOT
HETATM    1  C   UNL     1      23.282  44.326  48.960  1.00  0.00     0.033 A 
HETATM    2  C   UNL     1      24.548  44.803  49.316  1.00  0.00     0.017 A 
HETATM    3  C   UNL     1      25.652  43.946  49.300  1.00  0.00     0.009 A 
HETATM    4  C   UNL     1      25.502  42.599  48.938  1.00  0.00    -0.048 A 
HETATM    5  C   UNL     1      24.221  42.116  48.631  1.00  0.00     0.009 A 
HETATM    6  C   UNL     1      23.116  42.973  48.642  1.00  0.00     0.017 A 
ENDROOT
BRANCH   1   7
HETATM    7  C   UNL     1      22.149  45.292  48.925  1.00  0.00     0.271 C 
HETATM    8  N   UNL     1      22.515  46.630  48.920  1.00  0.00    -0.243 N 
HETATM    9  H   UNL     1      23.485  46.893  49.021  1.00  0.00     0.192 HD
HETATM   10  O   UNL     1      20.994  44.878  48.957  1.00  0.00    -0.266 OA
BRANCH   8  11
HETATM   11  N   UNL     1      21.547  47.584  48.960  1.00  0.00    -0.176 NA
HETATM   12  C   UNL     1      21.881  48.837  49.083  1.00  0.00     0.064 C 
HETATM   13  C   UNL     1      23.311  49.324  49.202  1.00  0.00     0.073 C 
BRANCH  12  14
HETATM   14  C   UNL     1      20.774  49.843  49.136  1.00  0.00     0.023 A 
HETATM   15  C   UNL     1      19.630  49.595  49.909  1.00  0.00     0.077 A 
HETATM   16  C   UNL     1      18.615  50.544  50.001  1.00  0.00     0.037 A 
HETATM   17  C   UNL     1      18.718  51.744  49.298  1.00  0.00     0.003 A 
HETATM   18  C   UNL     1      19.834  51.989  48.499  1.00  0.00     0.001 A 
HETATM   19  C   UNL     1      20.859  51.041  48.414  1.00  0.00     0.016 A 
BRANCH  15  20
HETATM   20  O   UNL     1      19.436  48.437  50.615  1.00  0.00    -0.360 OA
HETATM   21  H   UNL     1      18.466  48.264  50.656  1.00  0.00     0.217 HD
ENDBRANCH  15  20
ENDBRANCH  12  14
ENDBRANCH   8  11
ENDBRANCH   1   7
BRANCH   4  22
HETATM   22  C   UNL     1      26.700  41.682  48.877  1.00  0.00     0.121 C 
BRANCH  22  23
HETATM   23  S   UNL     1      26.711  40.478  50.235  1.00  0.00    -0.087 SA
BRANCH  23  24
HETATM   24  C   UNL     1      27.466  41.430  51.458  1.00  0.00     0.167 A 
HETATM   25  N   UNL     1      26.895  42.300  52.253  1.00  0.00    -0.223 NA
HETATM   26  C   UNL     1      27.919  42.785  53.032  1.00  0.00     0.086 A 
HETATM   27  C   UNL     1      29.130  42.185  52.697  1.00  0.00     0.063 A 
HETATM   28  C   UNL     1      27.889  43.745  54.053  1.00  0.00     0.034 A 
HETATM   29  N   UNL     1      28.807  41.321  51.682  1.00  0.00    -0.333 N 
HETATM   30  C   UNL     1      30.336  42.487  53.333  1.00  0.00     0.032 A 
HETATM   31  H   UNL     1      29.434  40.709  51.183  1.00  0.00     0.168 HD
HETATM   32  C   UNL     1      30.285  43.447  54.350  1.00  0.00     0.002 A 
HETATM   33  C   UNL     1      29.085  44.068  54.706  1.00  0.00     0.002 A 
ENDBRANCH  23  24
ENDBRANCH  22  23
ENDBRANCH   4  22
TORSDOF 7
ENDMDL
MODEL 8
REMARK VINA RESULT:      -9.0      1.559      2.155
REMARK  7 active torsions:
REMARK  status: ('A' for Active; 'I' for Inactive)
REMARK    1  A    between atoms: C_2  and  C_3 
REMARK    2  A    between atoms: C_4  and  O_5 
REMARK    3  A    between atoms: N_10  and  N_11 
REMARK       I    between atoms: N_11  and  C_12 
REMARK    4  A    between atoms: C_12  and  C_13 
REMARK    5  A    between atoms: C_16  and  C_17 
REMARK    6  A    between atoms: C_17  and  S_18 
REMARK    7  A    between atoms: S_18  and  C_19 
ROOT
HETATM    1  C   UNL     1      25.518  45.681  51.224  1.00  0.00     0.033 A 
HETATM    2  C   UNL     1      24.681  44.854  50.467  1.00  0.00     0.017 A 
HETATM    3  C   UNL     1      23.743  45.412  49.595  1.00  0.00     0.009 A 
HETATM    4  C   UNL     1      23.623  46.805  49.475  1.00  0.00    -0.048 A 
HETATM    5  C   UNL     1      24.431  47.628  50.274  1.00  0.00     0.009 A 
HETATM    6  C   UNL     1      25.373  47.072  51.145  1.00  0.00     0.017 A 
ENDROOT
BRANCH   1   7
HETATM    7  C   UNL     1      26.548  45.042  52.088  1.00  0.00     0.271 C 
HETATM    8  N   UNL     1      26.553  45.462  53.411  1.00  0.00    -0.243 N 
HETATM    9  H   UNL     1      25.943  46.212  53.708  1.00  0.00     0.192 HD
HETATM   10  O   UNL     1      27.348  44.249  51.599  1.00  0.00    -0.266 OA
BRANCH   8  11
HETATM   11  N   UNL     1      27.504  44.987  54.257  1.00  0.00    -0.176 NA
HETATM   12  C   UNL     1      28.273  45.820  54.897  1.00  0.00     0.064 C 
HETATM   13  C   UNL     1      28.194  47.326  54.753  1.00  0.00     0.073 C 
BRANCH  12  14
HETATM   14  C   UNL     1      29.312  45.239  55.805  1.00  0.00     0.023 A 
HETATM   15  C   UNL     1      30.065  44.128  55.398  1.00  0.00     0.077 A 
HETATM   16  C   UNL     1      31.065  43.609  56.217  1.00  0.00     0.037 A 
HETATM   17  C   UNL     1      31.307  44.177  57.467  1.00  0.00     0.003 A 
HETATM   18  C   UNL     1      30.542  45.260  57.898  1.00  0.00     0.001 A 
HETATM   19  C   UNL     1      29.546  45.790  57.073  1.00  0.00     0.016 A 
BRANCH  15  20
HETATM   20  O   UNL     1      29.883  43.494  54.198  1.00  0.00    -0.360 OA
HETATM   21  H   UNL     1      30.752  43.464  53.733  1.00  0.00     0.217 HD
ENDBRANCH  15  20
ENDBRANCH  12  14
ENDBRANCH   8  11
ENDBRANCH   1   7
BRANCH   4  22
HETATM   22  C   UNL     1      22.641  47.409  48.501  1.00  0.00     0.121 C 
BRANCH  22  23
HETATM   23  S   UNL     1      22.082  49.056  49.023  1.00  0.00    -0.087 SA
BRANCH  23  24
HETATM   24  C   UNL     1      20.387  48.878  48.768  1.00  0.00     0.167 A 
HETATM   25  N   UNL     1      19.709  47.760  48.684  1.00  0.00    -0.223 NA
HETATM   26  C   UNL     1      18.409  48.155  48.475  1.00  0.00     0.086 A 
HETATM   27  C   UNL     1      18.308  49.544  48.439  1.00  0.00     0.063 A 
HETATM   28  C   UNL     1      17.254  47.380  48.307  1.00  0.00     0.034 A 
HETATM   29  N   UNL     1      19.595  49.979  48.628  1.00  0.00    -0.333 N 
HETATM   30  C   UNL     1      17.101  50.219  48.245  1.00  0.00     0.032 A 
HETATM   31  H   UNL     1      19.914  50.935  48.663  1.00  0.00     0.168 HD
HETATM   32  C   UNL     1      15.959  49.426  48.079  1.00  0.00     0.002 A 
HETATM   33  C   UNL     1      16.030  48.031  48.108  1.00  0.00     0.002 A 
ENDBRANCH  23  24
ENDBRANCH  22  23
ENDBRANCH   4  22
TORSDOF 7
ENDMDL
MODEL 9
REMARK VINA RESULT:      -8.6      3.200     12.050
REMARK  7 active torsions:
REMARK  status: ('A' for Active; 'I' for Inactive)
REMARK    1  A    between atoms: C_2  and  C_3 
REMARK    2  A    between atoms: C_4  and  O_5 
REMARK    3  A    between atoms: N_10  and  N_11 
REMARK       I    between atoms: N_11  and  C_12 
REMARK    4  A    between atoms: C_12  and  C_13 
REMARK    5  A    between atoms: C_16  and  C_17 
REMARK    6  A    between atoms: C_17  and  S_18 
REMARK    7  A    between atoms: S_18  and  C_19 
ROOT
HETATM    1  C   UNL     1      23.752  46.505  49.755  1.00  0.00     0.033 A 
HETATM    2  C   UNL     1      24.532  47.487  50.374  1.00  0.00     0.017 A 
HETATM    3  C   UNL     1      25.535  47.124  51.277  1.00  0.00     0.009 A 
HETATM    4  C   UNL     1      25.763  45.773  51.580  1.00  0.00    -0.048 A 
HETATM    5  C   UNL     1      24.944  44.797  50.994  1.00  0.00     0.009 A 
HETATM    6  C   UNL     1      23.943  45.158  50.087  1.00  0.00     0.017 A 
ENDROOT
BRANCH   1   7
HETATM    7  C   UNL     1      22.743  46.936  48.749  1.00  0.00     0.271 C 
HETATM    8  N   UNL     1      21.778  47.815  49.219  1.00  0.00    -0.243 N 
HETATM    9  H   UNL     1      21.745  48.055  50.200  1.00  0.00     0.192 HD
HETATM   10  O   UNL     1      22.776  46.469  47.614  1.00  0.00    -0.266 OA
BRANCH   8  11
HETATM   11  N   UNL     1      20.774  48.207  48.391  1.00  0.00    -0.176 NA
HETATM   12  C   UNL     1      20.208  49.367  48.568  1.00  0.00     0.064 C 
HETATM   13  C   UNL     1      20.588  50.334  49.670  1.00  0.00     0.073 C 
BRANCH  12  14
HETATM   14  C   UNL     1      19.099  49.741  47.635  1.00  0.00     0.023 A 
HETATM   15  C   UNL     1      17.795  49.276  47.865  1.00  0.00     0.077 A 
HETATM   16  C   UNL     1      16.748  49.656  47.030  1.00  0.00     0.037 A 
HETATM   17  C   UNL     1      16.995  50.483  45.935  1.00  0.00     0.003 A 
HETATM   18  C   UNL     1      18.292  50.923  45.674  1.00  0.00     0.001 A 
HETATM   19  C   UNL     1      19.343  50.552  46.519  1.00  0.00     0.016 A 
BRANCH  15  20
HETATM   20  O   UNL     1      17.465  48.446  48.903  1.00  0.00    -0.360 OA
HETATM   21  H   UNL     1      18.300  48.080  49.279  1.00  0.00     0.217 HD
ENDBRANCH  15  20
ENDBRANCH  12  14
ENDBRANCH   8  11
ENDBRANCH   1   7
BRANCH   4  22
HETATM   22  C   UNL     1      26.875  45.376  52.522  1.00  0.00     0.121 C 
BRANCH  22  23
HETATM   23  S   UNL     1      26.920  46.417  54.008  1.00  0.00    -0.087 SA
BRANCH  23  24
HETATM   24  C   UNL     1      28.205  45.647  54.860  1.00  0.00     0.167 A 
HETATM   25  N   UNL     1      28.876  44.584  54.492  1.00  0.00    -0.223 NA
HETATM   26  C   UNL     1      29.780  44.374  55.508  1.00  0.00     0.086 A 
HETATM   27  C   UNL     1      29.648  45.341  56.502  1.00  0.00     0.063 A 
HETATM   28  C   UNL     1      30.751  43.374  55.649  1.00  0.00     0.034 A 
HETATM   29  N   UNL     1      28.627  46.142  56.058  1.00  0.00    -0.333 N 
HETATM   30  C   UNL     1      30.443  45.372  57.650  1.00  0.00     0.032 A 
HETATM   31  H   UNL     1      28.248  46.954  56.520  1.00  0.00     0.168 HD
HETATM   32  C   UNL     1      31.407  44.364  57.772  1.00  0.00     0.002 A 
HETATM   33  C   UNL     1      31.561  43.380  56.791  1.00  0.00     0.002 A 
ENDBRANCH  23  24
ENDBRANCH  22  23
ENDBRANCH   4  22
TORSDOF 7
ENDMDL
MODEL 10
REMARK VINA RESULT:      -8.5      3.246     11.711
REMARK  7 active torsions:
REMARK  status: ('A' for Active; 'I' for Inactive)
REMARK    1  A    between atoms: C_2  and  C_3 
REMARK    2  A    between atoms: C_4  and  O_5 
REMARK    3  A    between atoms: N_10  and  N_11 
REMARK       I    between atoms: N_11  and  C_12 
REMARK    4  A    between atoms: C_12  and  C_13 
REMARK    5  A    between atoms: C_16  and  C_17 
REMARK    6  A    between atoms: C_17  and  S_18 
REMARK    7  A    between atoms: S_18  and  C_19 
ROOT
HETATM    1  C   UNL     1      24.931  46.964  50.264  1.00  0.00     0.033 A 
HETATM    2  C   UNL     1      25.549  46.150  49.310  1.00  0.00     0.017 A 
HETATM    3  C   UNL     1      26.488  45.193  49.704  1.00  0.00     0.009 A 
HETATM    4  C   UNL     1      26.828  45.045  51.057  1.00  0.00    -0.048 A 
HETATM    5  C   UNL     1      26.242  45.899  52.003  1.00  0.00     0.009 A 
HETATM    6  C   UNL     1      25.299  46.855  51.611  1.00  0.00     0.017 A 
ENDROOT
BRANCH   1   7
HETATM    7  C   UNL     1      23.887  47.922  49.806  1.00  0.00     0.271 C 
HETATM    8  N   UNL     1      22.646  47.360  49.541  1.00  0.00    -0.243 N 
HETATM    9  H   UNL     1      22.522  46.358  49.585  1.00  0.00     0.192 HD
HETATM   10  O   UNL     1      24.175  49.103  49.636  1.00  0.00    -0.266 OA
BRANCH   8  11
HETATM   11  N   UNL     1      21.651  48.145  49.050  1.00  0.00    -0.176 NA
HETATM   12  C   UNL     1      21.136  47.879  47.884  1.00  0.00     0.064 C 
HETATM   13  C   UNL     1      21.587  46.734  47.001  1.00  0.00     0.073 C 
BRANCH  12  14
HETATM   14  C   UNL     1      20.053  48.785  47.387  1.00  0.00     0.023 A 
HETATM   15  C   UNL     1      20.167  50.175  47.542  1.00  0.00     0.077 A 
HETATM   16  C   UNL     1      19.187  51.028  47.042  1.00  0.00     0.037 A 
HETATM   17  C   UNL     1      18.064  50.502  46.406  1.00  0.00     0.003 A 
HETATM   18  C   UNL     1      17.921  49.121  46.276  1.00  0.00     0.001 A 
HETATM   19  C   UNL     1      18.910  48.263  46.766  1.00  0.00     0.016 A 
BRANCH  15  20
HETATM   20  O   UNL     1      21.224  50.777  48.172  1.00  0.00    -0.360 OA
HETATM   21  H   UNL     1      22.056  50.426  47.775  1.00  0.00     0.217 HD
ENDBRANCH  15  20
ENDBRANCH  12  14
ENDBRANCH   8  11
ENDBRANCH   1   7
BRANCH   4  22
HETATM   22  C   UNL     1      27.809  43.982  51.489  1.00  0.00     0.121 C 
BRANCH  22  23
HETATM   23  S   UNL     1      27.180  42.991  52.875  1.00  0.00    -0.087 SA
BRANCH  23  24
HETATM   24  C   UNL     1      28.339  43.414  54.079  1.00  0.00     0.167 A 
HETATM   25  N   UNL     1      29.357  42.698  54.489  1.00  0.00    -0.223 NA
HETATM   26  C   UNL     1      29.961  43.470  55.452  1.00  0.00     0.086 A 
HETATM   27  C   UNL     1      29.290  44.680  55.617  1.00  0.00     0.063 A 
HETATM   28  C   UNL     1      31.094  43.204  56.232  1.00  0.00     0.034 A 
HETATM   29  N   UNL     1      28.252  44.613  54.723  1.00  0.00    -0.333 N 
HETATM   30  C   UNL     1      29.690  45.660  56.529  1.00  0.00     0.032 A 
HETATM   31  H   UNL     1      27.546  45.314  54.558  1.00  0.00     0.168 HD
HETATM   32  C   UNL     1      30.824  45.374  57.298  1.00  0.00     0.002 A 
HETATM   33  C   UNL     1      31.516  44.168  57.156  1.00  0.00     0.002 A 
ENDBRANCH  23  24
ENDBRANCH  22  23
ENDBRANCH   4  22
TORSDOF 7
ENDMDL
