MODEL 1
REMARK VINA RESULT:      -9.1      0.000      0.000
REMARK  9 active torsions:
REMARK  status: ('A' for Active; 'I' for Inactive)
REMARK    1  A    between atoms: C_2  and  O_3 
REMARK    2  A    between atoms: O_3  and  C_4 
REMARK    3  A    between atoms: C_7  and  N_8 
REMARK       I    between atoms: N_8  and  C_9 
REMARK    4  A    between atoms: C_9  and  C_10 
REMARK    5  A    between atoms: C_11  and  N_12 
REMARK       I    between atoms: N_12  and  C_13 
REMARK    6  A    between atoms: C_13  and  C_14 
REMARK    7  A    between atoms: C_14  and  N_15 
REMARK    8  A    between atoms: N_15  and  C_18 
REMARK    9  A    between atoms: C_18  and  C_19 
ROOT
HETATM    1  C   UNL     1      26.812  41.775  49.573  1.00  0.00     0.073 A 
HETATM    2  C   UNL     1      25.563  42.025  48.987  1.00  0.00     0.093 A 
HETATM    3  S   UNL     1      24.978  40.722  48.047  1.00  0.00    -0.075 SA
HETATM    4  C   UNL     1      26.363  39.848  48.350  1.00  0.00    -0.008 A 
HETATM    5  C   UNL     1      27.272  40.490  49.147  1.00  0.00    -0.026 A 
HETATM    6  C   UNL     1      28.485  39.639  49.320  1.00  0.00     0.041 C 
HETATM    7  C   UNL     1      28.303  38.551  48.218  1.00  0.00     0.010 C 
HETATM    8  C   UNL     1      26.784  38.504  47.890  1.00  0.00     0.047 C 
ENDROOT
BRANCH   2   9
HETATM    9  N   UNL     1      24.840  43.206  49.107  1.00  0.00    -0.319 N 
HETATM   10  C   UNL     1      23.849  43.485  50.019  1.00  0.00     0.248 C 
HETATM   11  O   UNL     1      23.454  42.804  50.965  1.00  0.00    -0.271 OA
HETATM   12  H   UNL     1      25.138  43.922  48.439  1.00  0.00     0.169 HD
BRANCH  10  13
HETATM   13  C   UNL     1      23.185  44.847  49.815  1.00  0.00     0.335 C 
BRANCH  13  14
HETATM   14  N   UNL     1      24.244  45.848  49.408  1.00  0.00    -0.059 N 
HETATM   15  H   UNL     1      25.086  45.276  49.215  1.00  0.00     0.278 HD
HETATM   16  H   UNL     1      24.004  46.223  48.482  1.00  0.00     0.278 HD
BRANCH  14  17
HETATM   17  C   UNL     1      24.605  46.947  50.350  1.00  0.00     0.215 C 
HETATM   18  C   UNL     1      25.232  46.356  51.612  1.00  0.00     0.045 C 
BRANCH  17  19
HETATM   19  C   UNL     1      25.385  48.045  49.658  1.00  0.00    -0.028 A 
HETATM   20  C   UNL     1      26.779  48.177  49.767  1.00  0.00     0.009 A 
HETATM   21  C   UNL     1      27.453  49.195  49.085  1.00  0.00     0.001 A 
HETATM   22  C   UNL     1      26.750  50.090  48.287  1.00  0.00     0.000 A 
HETATM   23  C   UNL     1      25.368  49.974  48.165  1.00  0.00     0.001 A 
HETATM   24  C   UNL     1      24.692  48.959  48.842  1.00  0.00     0.009 A 
ENDBRANCH  17  19
ENDBRANCH  14  17
ENDBRANCH  13  14
ENDBRANCH  10  13
ENDBRANCH   2   9
BRANCH   1  25
HETATM   25  C   UNL     1      27.447  42.761  50.468  1.00  0.00     0.259 C 
HETATM   26  N   UNL     1      27.859  42.255  51.683  1.00  0.00    -0.323 N 
HETATM   27  H   UNL     1      27.670  41.281  51.856  1.00  0.00     0.169 HD
HETATM   28  O   UNL     1      27.513  43.940  50.121  1.00  0.00    -0.267 OA
BRANCH  26  29
HETATM   29  C   UNL     1      28.409  42.951  52.778  1.00  0.00     0.035 A 
HETATM   30  C   UNL     1      27.744  43.943  53.500  1.00  0.00     0.032 A 
HETATM   31  C   UNL     1      28.351  44.544  54.613  1.00  0.00     0.039 A 
HETATM   32  C   UNL     1      29.627  44.156  55.014  1.00  0.00     0.068 A 
HETATM   33  C   UNL     1      30.310  43.196  54.271  1.00  0.00     0.039 A 
HETATM   34  C   UNL     1      29.706  42.595  53.165  1.00  0.00     0.032 A 
BRANCH  32  35
HETATM   35  O   UNL     1      30.314  44.645  56.090  1.00  0.00    -0.352 OA
BRANCH  35  36
HETATM   36  C   UNL     1      29.770  45.799  56.728  1.00  0.00     0.171 C 
HETATM   37  C   UNL     1      30.211  45.781  58.180  1.00  0.00     0.034 C 
ENDBRANCH  35  36
ENDBRANCH  32  35
ENDBRANCH  26  29
ENDBRANCH   1  25
TORSDOF 9
ENDMDL
MODEL 2
REMARK VINA RESULT:      -9.0      2.703      6.446
REMARK  9 active torsions:
REMARK  status: ('A' for Active; 'I' for Inactive)
REMARK    1  A    between atoms: C_2  and  O_3 
REMARK    2  A    between atoms: O_3  and  C_4 
REMARK    3  A    between atoms: C_7  and  N_8 
REMARK       I    between atoms: N_8  and  C_9 
REMARK    4  A    between atoms: C_9  and  C_10 
REMARK    5  A    between atoms: C_11  and  N_12 
REMARK       I    between atoms: N_12  and  C_13 
REMARK    6  A    between atoms: C_13  and  C_14 
REMARK    7  A    between atoms: C_14  and  N_15 
REMARK    8  A    between atoms: N_15  and  C_18 
REMARK    9  A    between atoms: C_18  and  C_19 
ROOT
HETATM    1  C   UNL     1      29.156  44.228  54.338  1.00  0.00     0.073 A 
HETATM    2  C   UNL     1      28.243  45.277  54.520  1.00  0.00     0.093 A 
HETATM    3  S   UNL     1      28.507  46.168  55.955  1.00  0.00    -0.075 SA
HETATM    4  C   UNL     1      29.771  45.167  56.375  1.00  0.00    -0.008 A 
HETATM    5  C   UNL     1      30.025  44.171  55.472  1.00  0.00    -0.026 A 
HETATM    6  C   UNL     1      31.143  43.315  55.964  1.00  0.00     0.041 C 
HETATM    7  C   UNL     1      31.275  43.743  57.457  1.00  0.00     0.010 C 
HETATM    8  C   UNL     1      30.652  45.164  57.566  1.00  0.00     0.047 C 
ENDROOT
BRANCH   2   9
HETATM    9  N   UNL     1      27.196  45.589  53.662  1.00  0.00    -0.319 N 
HETATM   10  C   UNL     1      25.960  44.988  53.605  1.00  0.00     0.248 C 
HETATM   11  O   UNL     1      25.486  44.124  54.342  1.00  0.00    -0.271 OA
HETATM   12  H   UNL     1      27.411  46.378  53.046  1.00  0.00     0.169 HD
BRANCH  10  13
HETATM   13  C   UNL     1      25.071  45.507  52.475  1.00  0.00     0.335 C 
BRANCH  13  14
HETATM   14  N   UNL     1      25.725  46.723  51.860  1.00  0.00    -0.059 N 
HETATM   15  H   UNL     1      24.983  47.447  51.857  1.00  0.00     0.278 HD
HETATM   16  H   UNL     1      26.411  47.100  52.525  1.00  0.00     0.278 HD
BRANCH  14  17
HETATM   17  C   UNL     1      26.312  46.620  50.492  1.00  0.00     0.215 C 
HETATM   18  C   UNL     1      25.868  45.310  49.841  1.00  0.00     0.045 C 
BRANCH  17  19
HETATM   19  C   UNL     1      26.090  47.884  49.689  1.00  0.00    -0.028 A 
HETATM   20  C   UNL     1      27.142  48.699  49.241  1.00  0.00     0.009 A 
HETATM   21  C   UNL     1      26.882  49.842  48.479  1.00  0.00     0.001 A 
HETATM   22  C   UNL     1      25.575  50.186  48.152  1.00  0.00     0.000 A 
HETATM   23  C   UNL     1      24.519  49.389  48.585  1.00  0.00     0.001 A 
HETATM   24  C   UNL     1      24.774  48.246  49.344  1.00  0.00     0.009 A 
ENDBRANCH  17  19
ENDBRANCH  14  17
ENDBRANCH  13  14
ENDBRANCH  10  13
ENDBRANCH   2   9
BRANCH   1  25
HETATM   25  C   UNL     1      29.122  43.387  53.126  1.00  0.00     0.259 C 
HETATM   26  N   UNL     1      27.969  42.646  52.972  1.00  0.00    -0.323 N 
HETATM   27  H   UNL     1      27.278  42.724  53.701  1.00  0.00     0.169 HD
HETATM   28  O   UNL     1      30.105  43.350  52.387  1.00  0.00    -0.267 OA
BRANCH  26  29
HETATM   29  C   UNL     1      27.672  41.688  51.981  1.00  0.00     0.035 A 
HETATM   30  C   UNL     1      26.531  41.709  51.178  1.00  0.00     0.032 A 
HETATM   31  C   UNL     1      26.345  40.743  50.178  1.00  0.00     0.039 A 
HETATM   32  C   UNL     1      27.300  39.749  49.972  1.00  0.00     0.068 A 
HETATM   33  C   UNL     1      28.419  39.702  50.800  1.00  0.00     0.039 A 
HETATM   34  C   UNL     1      28.607  40.664  51.794  1.00  0.00     0.032 A 
BRANCH  32  35
HETATM   35  O   UNL     1      27.248  38.771  49.020  1.00  0.00    -0.352 OA
BRANCH  35  36
HETATM   36  C   UNL     1      27.273  37.422  49.483  1.00  0.00     0.171 C 
HETATM   37  C   UNL     1      26.523  36.568  48.476  1.00  0.00     0.034 C 
ENDBRANCH  35  36
ENDBRANCH  32  35
ENDBRANCH  26  29
ENDBRANCH   1  25
TORSDOF 9
ENDMDL
MODEL 3
REMARK VINA RESULT:      -8.9      1.980      7.150
REMARK  9 active torsions:
REMARK  status: ('A' for Active; 'I' for Inactive)
REMARK    1  A    between atoms: C_2  and  O_3 
REMARK    2  A    between atoms: O_3  and  C_4 
REMARK    3  A    between atoms: C_7  and  N_8 
REMARK       I    between atoms: N_8  and  C_9 
REMARK    4  A    between atoms: C_9  and  C_10 
REMARK    5  A    between atoms: C_11  and  N_12 
REMARK       I    between atoms: N_12  and  C_13 
REMARK    6  A    between atoms: C_13  and  C_14 
REMARK    7  A    between atoms: C_14  and  N_15 
REMARK    8  A    between atoms: N_15  and  C_18 
REMARK    9  A    between atoms: C_18  and  C_19 
ROOT
HETATM    1  C   UNL     1      25.484  41.268  49.511  1.00  0.00     0.073 A 
HETATM    2  C   UNL     1      26.350  40.582  50.374  1.00  0.00     0.093 A 
HETATM    3  S   UNL     1      27.006  39.158  49.689  1.00  0.00    -0.075 SA
HETATM    4  C   UNL     1      26.131  39.397  48.292  1.00  0.00    -0.008 A 
HETATM    5  C   UNL     1      25.351  40.520  48.300  1.00  0.00    -0.026 A 
HETATM    6  C   UNL     1      24.584  40.614  47.023  1.00  0.00     0.041 C 
HETATM    7  C   UNL     1      24.761  39.192  46.410  1.00  0.00     0.010 C 
HETATM    8  C   UNL     1      26.042  38.589  47.053  1.00  0.00     0.047 C 
ENDROOT
BRANCH   2   9
HETATM    9  N   UNL     1      26.659  40.963  51.674  1.00  0.00    -0.319 N 
HETATM   10  C   UNL     1      27.823  41.549  52.113  1.00  0.00     0.248 C 
HETATM   11  O   UNL     1      28.788  41.941  51.457  1.00  0.00    -0.271 OA
HETATM   12  H   UNL     1      25.892  40.792  52.329  1.00  0.00     0.169 HD
BRANCH  10  13
HETATM   13  C   UNL     1      27.881  41.751  53.628  1.00  0.00     0.335 C 
BRANCH  13  14
HETATM   14  N   UNL     1      29.210  42.378  53.984  1.00  0.00    -0.059 N 
HETATM   15  H   UNL     1      29.528  41.861  54.825  1.00  0.00     0.278 HD
HETATM   16  H   UNL     1      29.902  42.110  53.274  1.00  0.00     0.278 HD
BRANCH  14  17
HETATM   17  C   UNL     1      29.272  43.843  54.260  1.00  0.00     0.215 C 
HETATM   18  C   UNL     1      27.877  44.451  54.117  1.00  0.00     0.045 C 
BRANCH  17  19
HETATM   19  C   UNL     1      30.011  44.142  55.547  1.00  0.00    -0.028 A 
HETATM   20  C   UNL     1      29.786  45.300  56.307  1.00  0.00     0.009 A 
HETATM   21  C   UNL     1      30.478  45.514  57.503  1.00  0.00     0.001 A 
HETATM   22  C   UNL     1      31.400  44.577  57.957  1.00  0.00     0.000 A 
HETATM   23  C   UNL     1      31.636  43.421  57.219  1.00  0.00     0.001 A 
HETATM   24  C   UNL     1      30.946  43.203  56.026  1.00  0.00     0.009 A 
ENDBRANCH  17  19
ENDBRANCH  14  17
ENDBRANCH  13  14
ENDBRANCH  10  13
ENDBRANCH   2   9
BRANCH   1  25
HETATM   25  C   UNL     1      24.870  42.551  49.907  1.00  0.00     0.259 C 
HETATM   26  N   UNL     1      25.061  43.581  49.011  1.00  0.00    -0.323 N 
HETATM   27  H   UNL     1      25.615  43.377  48.195  1.00  0.00     0.169 HD
HETATM   28  O   UNL     1      24.301  42.639  50.994  1.00  0.00    -0.267 OA
BRANCH  26  29
HETATM   29  C   UNL     1      24.684  44.933  49.142  1.00  0.00     0.035 A 
HETATM   30  C   UNL     1      23.434  45.444  48.791  1.00  0.00     0.032 A 
HETATM   31  C   UNL     1      23.129  46.796  49.008  1.00  0.00     0.039 A 
HETATM   32  C   UNL     1      24.071  47.648  49.579  1.00  0.00     0.068 A 
HETATM   33  C   UNL     1      25.334  47.151  49.893  1.00  0.00     0.039 A 
HETATM   34  C   UNL     1      25.639  45.805  49.680  1.00  0.00     0.032 A 
BRANCH  32  35
HETATM   35  O   UNL     1      23.889  48.972  49.864  1.00  0.00    -0.352 OA
BRANCH  35  36
HETATM   36  C   UNL     1      22.912  49.666  49.090  1.00  0.00     0.171 C 
HETATM   37  C   UNL     1      23.633  50.390  47.968  1.00  0.00     0.034 C 
ENDBRANCH  35  36
ENDBRANCH  32  35
ENDBRANCH  26  29
ENDBRANCH   1  25
TORSDOF 9
ENDMDL
MODEL 4
REMARK VINA RESULT:      -8.9      2.241      6.500
REMARK  9 active torsions:
REMARK  status: ('A' for Active; 'I' for Inactive)
REMARK    1  A    between atoms: C_2  and  O_3 
REMARK    2  A    between atoms: O_3  and  C_4 
REMARK    3  A    between atoms: C_7  and  N_8 
REMARK       I    between atoms: N_8  and  C_9 
REMARK    4  A    between atoms: C_9  and  C_10 
REMARK    5  A    between atoms: C_11  and  N_12 
REMARK       I    between atoms: N_12  and  C_13 
REMARK    6  A    between atoms: C_13  and  C_14 
REMARK    7  A    between atoms: C_14  and  N_15 
REMARK    8  A    between atoms: N_15  and  C_18 
REMARK    9  A    between atoms: C_18  and  C_19 
ROOT
HETATM    1  C   UNL     1      24.040  46.945  49.586  1.00  0.00     0.073 A 
HETATM    2  C   UNL     1      23.679  45.761  48.928  1.00  0.00     0.093 A 
HETATM    3  S   UNL     1      22.377  45.958  47.837  1.00  0.00    -0.075 SA
HETATM    4  C   UNL     1      22.240  47.566  48.252  1.00  0.00    -0.008 A 
HETATM    5  C   UNL     1      23.144  47.986  49.188  1.00  0.00    -0.026 A 
HETATM    6  C   UNL     1      22.906  49.423  49.513  1.00  0.00     0.041 C 
HETATM    7  C   UNL     1      21.502  49.689  48.891  1.00  0.00     0.010 C 
HETATM    8  C   UNL     1      21.294  48.609  47.792  1.00  0.00     0.047 C 
ENDROOT
BRANCH   2   9
HETATM    9  N   UNL     1      24.272  44.520  49.123  1.00  0.00    -0.319 N 
HETATM   10  C   UNL     1      24.066  43.656  50.174  1.00  0.00     0.248 C 
HETATM   11  O   UNL     1      23.265  43.746  51.104  1.00  0.00    -0.271 OA
HETATM   12  H   UNL     1      24.899  44.256  48.359  1.00  0.00     0.169 HD
BRANCH  10  13
HETATM   13  C   UNL     1      24.954  42.412  50.136  1.00  0.00     0.335 C 
BRANCH  13  14
HETATM   14  N   UNL     1      25.723  42.324  51.435  1.00  0.00    -0.059 N 
HETATM   15  H   UNL     1      26.068  43.286  51.603  1.00  0.00     0.278 HD
HETATM   16  H   UNL     1      25.056  42.181  52.203  1.00  0.00     0.278 HD
BRANCH  14  17
HETATM   17  C   UNL     1      26.866  41.370  51.540  1.00  0.00     0.215 C 
HETATM   18  C   UNL     1      27.282  40.913  50.143  1.00  0.00     0.045 C 
BRANCH  17  19
HETATM   19  C   UNL     1      27.966  41.908  52.431  1.00  0.00    -0.028 A 
HETATM   20  C   UNL     1      28.076  41.579  53.791  1.00  0.00     0.009 A 
HETATM   21  C   UNL     1      29.128  42.083  54.563  1.00  0.00     0.001 A 
HETATM   22  C   UNL     1      30.082  42.917  53.990  1.00  0.00     0.000 A 
HETATM   23  C   UNL     1      29.990  43.253  52.642  1.00  0.00     0.001 A 
HETATM   24  C   UNL     1      28.944  42.750  51.868  1.00  0.00     0.009 A 
ENDBRANCH  17  19
ENDBRANCH  14  17
ENDBRANCH  13  14
ENDBRANCH  10  13
ENDBRANCH   2   9
BRANCH   1  25
HETATM   25  C   UNL     1      25.182  46.982  50.521  1.00  0.00     0.259 C 
HETATM   26  N   UNL     1      24.933  46.421  51.756  1.00  0.00    -0.323 N 
HETATM   27  H   UNL     1      24.003  46.066  51.914  1.00  0.00     0.169 HD
HETATM   28  O   UNL     1      26.223  47.542  50.182  1.00  0.00    -0.267 OA
BRANCH  26  29
HETATM   29  C   UNL     1      25.777  46.383  52.884  1.00  0.00     0.035 A 
HETATM   30  C   UNL     1      26.597  45.306  53.223  1.00  0.00     0.032 A 
HETATM   31  C   UNL     1      27.447  45.379  54.337  1.00  0.00     0.039 A 
HETATM   32  C   UNL     1      27.484  46.531  55.120  1.00  0.00     0.068 A 
HETATM   33  C   UNL     1      26.636  47.591  54.809  1.00  0.00     0.039 A 
HETATM   34  C   UNL     1      25.791  47.521  53.699  1.00  0.00     0.032 A 
BRANCH  32  35
HETATM   35  O   UNL     1      28.282  46.735  56.210  1.00  0.00    -0.352 OA
BRANCH  35  36
HETATM   36  C   UNL     1      29.440  45.909  56.322  1.00  0.00     0.171 C 
HETATM   37  C   UNL     1      29.850  45.875  57.783  1.00  0.00     0.034 C 
ENDBRANCH  35  36
ENDBRANCH  32  35
ENDBRANCH  26  29
ENDBRANCH   1  25
TORSDOF 9
ENDMDL
MODEL 5
REMARK VINA RESULT:      -8.8      2.267      7.381
REMARK  9 active torsions:
REMARK  status: ('A' for Active; 'I' for Inactive)
REMARK    1  A    between atoms: C_2  and  O_3 
REMARK    2  A    between atoms: O_3  and  C_4 
REMARK    3  A    between atoms: C_7  and  N_8 
REMARK       I    between atoms: N_8  and  C_9 
REMARK    4  A    between atoms: C_9  and  C_10 
REMARK    5  A    between atoms: C_11  and  N_12 
REMARK       I    between atoms: N_12  and  C_13 
REMARK    6  A    between atoms: C_13  and  C_14 
REMARK    7  A    between atoms: C_14  and  N_15 
REMARK    8  A    between atoms: N_15  and  C_18 
REMARK    9  A    between atoms: C_18  and  C_19 
ROOT
HETATM    1  C   UNL     1      25.940  42.188  50.633  1.00  0.00     0.073 A 
HETATM    2  C   UNL     1      26.695  42.311  51.808  1.00  0.00     0.093 A 
HETATM    3  S   UNL     1      28.025  41.237  51.877  1.00  0.00    -0.075 SA
HETATM    4  C   UNL     1      27.597  40.573  50.410  1.00  0.00    -0.008 A 
HETATM    5  C   UNL     1      26.481  41.127  49.844  1.00  0.00    -0.026 A 
HETATM    6  C   UNL     1      26.167  40.433  48.561  1.00  0.00     0.041 C 
HETATM    7  C   UNL     1      27.057  39.155  48.632  1.00  0.00     0.010 C 
HETATM    8  C   UNL     1      28.209  39.474  49.627  1.00  0.00     0.047 C 
ENDROOT
BRANCH   2   9
HETATM    9  N   UNL     1      26.421  43.184  52.854  1.00  0.00    -0.319 N 
HETATM   10  C   UNL     1      26.553  44.552  52.850  1.00  0.00     0.248 C 
HETATM   11  O   UNL     1      26.848  45.299  51.917  1.00  0.00    -0.271 OA
HETATM   12  H   UNL     1      26.058  42.706  53.683  1.00  0.00     0.169 HD
BRANCH  10  13
HETATM   13  C   UNL     1      26.262  45.206  54.201  1.00  0.00     0.335 C 
BRANCH  13  14
HETATM   14  N   UNL     1      27.393  44.884  55.151  1.00  0.00    -0.059 N 
HETATM   15  H   UNL     1      26.984  44.999  56.096  1.00  0.00     0.278 HD
HETATM   16  H   UNL     1      27.585  43.876  55.105  1.00  0.00     0.278 HD
BRANCH  14  17
HETATM   17  C   UNL     1      28.659  45.670  55.068  1.00  0.00     0.215 C 
HETATM   18  C   UNL     1      28.339  47.164  55.125  1.00  0.00     0.045 C 
BRANCH  17  19
HETATM   19  C   UNL     1      29.699  45.164  56.044  1.00  0.00    -0.028 A 
HETATM   20  C   UNL     1      29.942  45.771  57.287  1.00  0.00     0.009 A 
HETATM   21  C   UNL     1      30.897  45.246  58.162  1.00  0.00     0.001 A 
HETATM   22  C   UNL     1      31.620  44.110  57.813  1.00  0.00     0.000 A 
HETATM   23  C   UNL     1      31.393  43.493  56.586  1.00  0.00     0.001 A 
HETATM   24  C   UNL     1      30.439  44.013  55.711  1.00  0.00     0.009 A 
ENDBRANCH  17  19
ENDBRANCH  14  17
ENDBRANCH  13  14
ENDBRANCH  10  13
ENDBRANCH   2   9
BRANCH   1  25
HETATM   25  C   UNL     1      24.789  43.075  50.370  1.00  0.00     0.259 C 
HETATM   26  N   UNL     1      25.064  44.146  49.547  1.00  0.00    -0.323 N 
HETATM   27  H   UNL     1      26.015  44.240  49.227  1.00  0.00     0.169 HD
HETATM   28  O   UNL     1      23.714  42.851  50.925  1.00  0.00    -0.267 OA
BRANCH  26  29
HETATM   29  C   UNL     1      24.214  45.211  49.185  1.00  0.00     0.035 A 
HETATM   30  C   UNL     1      23.042  45.069  48.441  1.00  0.00     0.032 A 
HETATM   31  C   UNL     1      22.227  46.180  48.174  1.00  0.00     0.039 A 
HETATM   32  C   UNL     1      22.578  47.441  48.651  1.00  0.00     0.068 A 
HETATM   33  C   UNL     1      23.768  47.592  49.359  1.00  0.00     0.039 A 
HETATM   34  C   UNL     1      24.579  46.488  49.628  1.00  0.00     0.032 A 
BRANCH  32  35
HETATM   35  O   UNL     1      21.860  48.591  48.482  1.00  0.00    -0.352 OA
BRANCH  35  36
HETATM   36  C   UNL     1      22.164  49.673  49.361  1.00  0.00     0.171 C 
HETATM   37  C   UNL     1      22.450  50.899  48.513  1.00  0.00     0.034 C 
ENDBRANCH  35  36
ENDBRANCH  32  35
ENDBRANCH  26  29
ENDBRANCH   1  25
TORSDOF 9
ENDMDL
MODEL 6
REMARK VINA RESULT:      -8.6      3.378      6.794
REMARK  9 active torsions:
REMARK  status: ('A' for Active; 'I' for Inactive)
REMARK    1  A    between atoms: C_2  and  O_3 
REMARK    2  A    between atoms: O_3  and  C_4 
REMARK    3  A    between atoms: C_7  and  N_8 
REMARK       I    between atoms: N_8  and  C_9 
REMARK    4  A    between atoms: C_9  and  C_10 
REMARK    5  A    between atoms: C_11  and  N_12 
REMARK       I    between atoms: N_12  and  C_13 
REMARK    6  A    between atoms: C_13  and  C_14 
REMARK    7  A    between atoms: C_14  and  N_15 
REMARK    8  A    between atoms: N_15  and  C_18 
REMARK    9  A    between atoms: C_18  and  C_19 
ROOT
HETATM    1  C   UNL     1      26.832  45.033  52.511  1.00  0.00     0.073 A 
HETATM    2  C   UNL     1      25.877  46.052  52.391  1.00  0.00     0.093 A 
HETATM    3  S   UNL     1      25.964  47.216  53.641  1.00  0.00    -0.075 SA
HETATM    4  C   UNL     1      27.204  46.378  54.371  1.00  0.00    -0.008 A 
HETATM    5  C   UNL     1      27.578  45.238  53.713  1.00  0.00    -0.026 A 
HETATM    6  C   UNL     1      28.662  44.548  54.471  1.00  0.00     0.041 C 
HETATM    7  C   UNL     1      28.624  45.263  55.856  1.00  0.00     0.010 C 
HETATM    8  C   UNL     1      27.954  46.647  55.619  1.00  0.00     0.047 C 
ENDROOT
BRANCH   2   9
HETATM    9  N   UNL     1      24.917  46.142  51.390  1.00  0.00    -0.319 N 
HETATM   10  C   UNL     1      24.787  47.137  50.450  1.00  0.00     0.248 C 
HETATM   11  O   UNL     1      25.526  48.098  50.232  1.00  0.00    -0.271 OA
HETATM   12  H   UNL     1      24.281  45.340  51.380  1.00  0.00     0.169 HD
BRANCH  10  13
HETATM   13  C   UNL     1      23.559  46.984  49.552  1.00  0.00     0.335 C 
BRANCH  13  14
HETATM   14  N   UNL     1      22.763  48.269  49.595  1.00  0.00    -0.059 N 
HETATM   15  H   UNL     1      22.245  48.228  50.492  1.00  0.00     0.278 HD
HETATM   16  H   UNL     1      23.410  49.053  49.739  1.00  0.00     0.278 HD
BRANCH  14  17
HETATM   17  C   UNL     1      21.803  48.567  48.492  1.00  0.00     0.215 C 
HETATM   18  C   UNL     1      21.221  47.261  47.953  1.00  0.00     0.045 C 
BRANCH  17  19
HETATM   19  C   UNL     1      20.810  49.639  48.886  1.00  0.00    -0.028 A 
HETATM   20  C   UNL     1      19.809  49.437  49.849  1.00  0.00     0.009 A 
HETATM   21  C   UNL     1      18.933  50.471  50.195  1.00  0.00     0.001 A 
HETATM   22  C   UNL     1      19.045  51.717  49.588  1.00  0.00     0.000 A 
HETATM   23  C   UNL     1      20.032  51.938  48.632  1.00  0.00     0.001 A 
HETATM   24  C   UNL     1      20.909  50.910  48.286  1.00  0.00     0.009 A 
ENDBRANCH  17  19
ENDBRANCH  14  17
ENDBRANCH  13  14
ENDBRANCH  10  13
ENDBRANCH   2   9
BRANCH   1  25
HETATM   25  C   UNL     1      26.948  43.972  51.491  1.00  0.00     0.259 C 
HETATM   26  N   UNL     1      26.898  42.687  51.989  1.00  0.00    -0.323 N 
HETATM   27  H   UNL     1      26.813  42.591  52.989  1.00  0.00     0.169 HD
HETATM   28  O   UNL     1      27.138  44.281  50.315  1.00  0.00    -0.267 OA
BRANCH  26  29
HETATM   29  C   UNL     1      27.071  41.473  51.294  1.00  0.00     0.035 A 
HETATM   30  C   UNL     1      26.090  40.863  50.511  1.00  0.00     0.032 A 
HETATM   31  C   UNL     1      26.371  39.681  49.809  1.00  0.00     0.039 A 
HETATM   32  C   UNL     1      27.635  39.100  49.884  1.00  0.00     0.068 A 
HETATM   33  C   UNL     1      28.603  39.684  50.698  1.00  0.00     0.039 A 
HETATM   34  C   UNL     1      28.326  40.862  51.395  1.00  0.00     0.032 A 
BRANCH  32  35
HETATM   35  O   UNL     1      28.039  37.969  49.233  1.00  0.00    -0.352 OA
BRANCH  35  36
HETATM   36  C   UNL     1      27.377  37.664  48.007  1.00  0.00     0.171 C 
HETATM   37  C   UNL     1      28.405  37.731  46.892  1.00  0.00     0.034 C 
ENDBRANCH  35  36
ENDBRANCH  32  35
ENDBRANCH  26  29
ENDBRANCH   1  25
TORSDOF 9
ENDMDL
MODEL 7
REMARK VINA RESULT:      -8.5      3.572      7.232
REMARK  9 active torsions:
REMARK  status: ('A' for Active; 'I' for Inactive)
REMARK    1  A    between atoms: C_2  and  O_3 
REMARK    2  A    between atoms: O_3  and  C_4 
REMARK    3  A    between atoms: C_7  and  N_8 
REMARK       I    between atoms: N_8  and  C_9 
REMARK    4  A    between atoms: C_9  and  C_10 
REMARK    5  A    between atoms: C_11  and  N_12 
REMARK       I    between atoms: N_12  and  C_13 
REMARK    6  A    between atoms: C_13  and  C_14 
REMARK    7  A    between atoms: C_14  and  N_15 
REMARK    8  A    between atoms: N_15  and  C_18 
REMARK    9  A    between atoms: C_18  and  C_19 
ROOT
HETATM    1  C   UNL     1      26.396  45.216  51.544  1.00  0.00     0.073 A 
HETATM    2  C   UNL     1      25.501  46.271  51.771  1.00  0.00     0.093 A 
HETATM    3  S   UNL     1      25.701  47.017  53.297  1.00  0.00    -0.075 SA
HETATM    4  C   UNL     1      26.911  45.943  53.692  1.00  0.00    -0.008 A 
HETATM    5  C   UNL     1      27.193  45.026  52.716  1.00  0.00    -0.026 A 
HETATM    6  C   UNL     1      28.257  44.093  53.188  1.00  0.00     0.041 C 
HETATM    7  C   UNL     1      28.310  44.377  54.720  1.00  0.00     0.010 C 
HETATM    8  C   UNL     1      27.719  45.801  54.926  1.00  0.00     0.047 C 
ENDROOT
BRANCH   2   9
HETATM    9  N   UNL     1      24.516  46.695  50.888  1.00  0.00    -0.319 N 
HETATM   10  C   UNL     1      24.588  47.745  50.003  1.00  0.00     0.248 C 
HETATM   11  O   UNL     1      25.548  48.468  49.736  1.00  0.00    -0.271 OA
HETATM   12  H   UNL     1      23.677  46.109  50.921  1.00  0.00     0.169 HD
BRANCH  10  13
HETATM   13  C   UNL     1      23.287  48.006  49.243  1.00  0.00     0.335 C 
BRANCH  13  14
HETATM   14  N   UNL     1      22.569  49.166  49.895  1.00  0.00    -0.059 N 
HETATM   15  H   UNL     1      21.679  48.764  50.242  1.00  0.00     0.278 HD
HETATM   16  H   UNL     1      23.062  49.415  50.760  1.00  0.00     0.278 HD
BRANCH  14  17
HETATM   17  C   UNL     1      22.269  50.383  49.084  1.00  0.00     0.215 C 
HETATM   18  C   UNL     1      22.791  50.192  47.661  1.00  0.00     0.045 C 
BRANCH  17  19
HETATM   19  C   UNL     1      20.823  50.809  49.224  1.00  0.00    -0.028 A 
HETATM   20  C   UNL     1      19.924  50.186  50.104  1.00  0.00     0.009 A 
HETATM   21  C   UNL     1      18.605  50.636  50.213  1.00  0.00     0.001 A 
HETATM   22  C   UNL     1      18.166  51.712  49.449  1.00  0.00     0.000 A 
HETATM   23  C   UNL     1      19.043  52.344  48.572  1.00  0.00     0.001 A 
HETATM   24  C   UNL     1      20.360  51.899  48.462  1.00  0.00     0.009 A 
ENDBRANCH  17  19
ENDBRANCH  14  17
ENDBRANCH  13  14
ENDBRANCH  10  13
ENDBRANCH   2   9
BRANCH   1  25
HETATM   25  C   UNL     1      26.412  44.492  50.258  1.00  0.00     0.259 C 
HETATM   26  N   UNL     1      26.100  43.152  50.347  1.00  0.00    -0.323 N 
HETATM   27  H   UNL     1      25.918  42.789  51.269  1.00  0.00     0.169 HD
HETATM   28  O   UNL     1      26.749  45.085  49.234  1.00  0.00    -0.267 OA
BRANCH  26  29
HETATM   29  C   UNL     1      26.119  42.180  49.326  1.00  0.00     0.035 A 
HETATM   30  C   UNL     1      24.986  41.707  48.664  1.00  0.00     0.032 A 
HETATM   31  C   UNL     1      25.107  40.777  47.619  1.00  0.00     0.039 A 
HETATM   32  C   UNL     1      26.362  40.315  47.229  1.00  0.00     0.068 A 
HETATM   33  C   UNL     1      27.491  40.755  47.916  1.00  0.00     0.039 A 
HETATM   34  C   UNL     1      27.373  41.682  48.954  1.00  0.00     0.032 A 
BRANCH  32  35
HETATM   35  O   UNL     1      26.613  39.433  46.216  1.00  0.00    -0.352 OA
BRANCH  35  36
HETATM   36  C   UNL     1      27.980  39.104  45.976  1.00  0.00     0.171 C 
HETATM   37  C   UNL     1      28.265  39.338  44.503  1.00  0.00     0.034 C 
ENDBRANCH  35  36
ENDBRANCH  32  35
ENDBRANCH  26  29
ENDBRANCH   1  25
TORSDOF 9
ENDMDL
MODEL 8
REMARK VINA RESULT:      -8.3      2.693      6.831
REMARK  9 active torsions:
REMARK  status: ('A' for Active; 'I' for Inactive)
REMARK    1  A    between atoms: C_2  and  O_3 
REMARK    2  A    between atoms: O_3  and  C_4 
REMARK    3  A    between atoms: C_7  and  N_8 
REMARK       I    between atoms: N_8  and  C_9 
REMARK    4  A    between atoms: C_9  and  C_10 
REMARK    5  A    between atoms: C_11  and  N_12 
REMARK       I    between atoms: N_12  and  C_13 
REMARK    6  A    between atoms: C_13  and  C_14 
REMARK    7  A    between atoms: C_14  and  N_15 
REMARK    8  A    between atoms: N_15  and  C_18 
REMARK    9  A    between atoms: C_18  and  C_19 
ROOT
HETATM    1  C   UNL     1      23.755  44.410  48.938  1.00  0.00     0.073 A 
HETATM    2  C   UNL     1      23.682  45.634  49.619  1.00  0.00     0.093 A 
HETATM    3  S   UNL     1      22.751  46.813  48.800  1.00  0.00    -0.075 SA
HETATM    4  C   UNL     1      22.483  45.761  47.537  1.00  0.00    -0.008 A 
HETATM    5  C   UNL     1      23.063  44.532  47.693  1.00  0.00    -0.026 A 
HETATM    6  C   UNL     1      22.795  43.688  46.492  1.00  0.00     0.041 C 
HETATM    7  C   UNL     1      22.272  44.725  45.452  1.00  0.00     0.010 C 
HETATM    8  C   UNL     1      21.741  45.938  46.267  1.00  0.00     0.047 C 
ENDROOT
BRANCH   2   9
HETATM    9  N   UNL     1      24.303  45.921  50.827  1.00  0.00    -0.319 N 
HETATM   10  C   UNL     1      25.158  46.965  51.095  1.00  0.00     0.248 C 
HETATM   11  O   UNL     1      25.483  47.905  50.370  1.00  0.00    -0.271 OA
HETATM   12  H   UNL     1      24.040  45.270  51.572  1.00  0.00     0.169 HD
BRANCH  10  13
HETATM   13  C   UNL     1      25.748  46.936  52.506  1.00  0.00     0.335 C 
BRANCH  13  14
HETATM   14  N   UNL     1      26.379  45.582  52.741  1.00  0.00    -0.059 N 
HETATM   15  H   UNL     1      25.807  44.924  52.181  1.00  0.00     0.278 HD
HETATM   16  H   UNL     1      27.289  45.556  52.267  1.00  0.00     0.278 HD
BRANCH  14  17
HETATM   17  C   UNL     1      26.491  45.065  54.136  1.00  0.00     0.215 C 
HETATM   18  C   UNL     1      25.252  44.237  54.477  1.00  0.00     0.045 C 
BRANCH  17  19
HETATM   19  C   UNL     1      27.832  44.410  54.387  1.00  0.00    -0.028 A 
HETATM   20  C   UNL     1      28.215  43.199  53.787  1.00  0.00     0.009 A 
HETATM   21  C   UNL     1      29.478  42.651  54.032  1.00  0.00     0.001 A 
HETATM   22  C   UNL     1      30.374  43.302  54.874  1.00  0.00     0.000 A 
HETATM   23  C   UNL     1      30.014  44.504  55.476  1.00  0.00     0.001 A 
HETATM   24  C   UNL     1      28.755  45.055  55.232  1.00  0.00     0.009 A 
ENDBRANCH  17  19
ENDBRANCH  14  17
ENDBRANCH  13  14
ENDBRANCH  10  13
ENDBRANCH   2   9
BRANCH   1  25
HETATM   25  C   UNL     1      24.465  43.254  49.521  1.00  0.00     0.259 C 
HETATM   26  N   UNL     1      25.509  42.776  48.758  1.00  0.00    -0.323 N 
HETATM   27  H   UNL     1      25.673  43.234  47.875  1.00  0.00     0.169 HD
HETATM   28  O   UNL     1      24.063  42.767  50.577  1.00  0.00    -0.267 OA
BRANCH  26  29
HETATM   29  C   UNL     1      26.313  41.642  48.990  1.00  0.00     0.035 A 
HETATM   30  C   UNL     1      27.444  41.628  49.806  1.00  0.00     0.032 A 
HETATM   31  C   UNL     1      28.153  40.437  50.023  1.00  0.00     0.039 A 
HETATM   32  C   UNL     1      27.735  39.249  49.426  1.00  0.00     0.068 A 
HETATM   33  C   UNL     1      26.630  39.269  48.578  1.00  0.00     0.039 A 
HETATM   34  C   UNL     1      25.922  40.453  48.363  1.00  0.00     0.032 A 
BRANCH  32  35
HETATM   35  O   UNL     1      28.321  38.025  49.577  1.00  0.00    -0.352 OA
BRANCH  35  36
HETATM   36  C   UNL     1      29.728  38.011  49.815  1.00  0.00     0.171 C 
HETATM   37  C   UNL     1      29.961  37.455  51.208  1.00  0.00     0.034 C 
ENDBRANCH  35  36
ENDBRANCH  32  35
ENDBRANCH  26  29
ENDBRANCH   1  25
TORSDOF 9
ENDMDL
MODEL 9
REMARK VINA RESULT:      -8.2      1.873      2.557
REMARK  9 active torsions:
REMARK  status: ('A' for Active; 'I' for Inactive)
REMARK    1  A    between atoms: C_2  and  O_3 
REMARK    2  A    between atoms: O_3  and  C_4 
REMARK    3  A    between atoms: C_7  and  N_8 
REMARK       I    between atoms: N_8  and  C_9 
REMARK    4  A    between atoms: C_9  and  C_10 
REMARK    5  A    between atoms: C_11  and  N_12 
REMARK       I    between atoms: N_12  and  C_13 
REMARK    6  A    between atoms: C_13  and  C_14 
REMARK    7  A    between atoms: C_14  and  N_15 
REMARK    8  A    between atoms: N_15  and  C_18 
REMARK    9  A    between atoms: C_18  and  C_19 
ROOT
HETATM    1  C   UNL     1      26.867  42.439  50.085  1.00  0.00     0.073 A 
HETATM    2  C   UNL     1      25.768  42.910  49.353  1.00  0.00     0.093 A 
HETATM    3  S   UNL     1      24.999  41.696  48.425  1.00  0.00    -0.075 SA
HETATM    4  C   UNL     1      26.117  40.568  48.927  1.00  0.00    -0.008 A 
HETATM    5  C   UNL     1      27.067  41.056  49.783  1.00  0.00    -0.026 A 
HETATM    6  C   UNL     1      28.035  39.977  50.134  1.00  0.00     0.041 C 
HETATM    7  C   UNL     1      27.721  38.874  49.079  1.00  0.00     0.010 C 
HETATM    8  C   UNL     1      26.268  39.133  48.588  1.00  0.00     0.047 C 
ENDROOT
BRANCH   2   9
HETATM    9  N   UNL     1      25.321  44.225  49.329  1.00  0.00    -0.319 N 
HETATM   10  C   UNL     1      24.298  44.768  50.069  1.00  0.00     0.248 C 
HETATM   11  O   UNL     1      23.627  44.249  50.961  1.00  0.00    -0.271 OA
HETATM   12  H   UNL     1      25.866  44.816  48.695  1.00  0.00     0.169 HD
BRANCH  10  13
HETATM   13  C   UNL     1      23.995  46.228  49.729  1.00  0.00     0.335 C 
BRANCH  13  14
HETATM   14  N   UNL     1      22.594  46.315  49.165  1.00  0.00    -0.059 N 
HETATM   15  H   UNL     1      22.312  45.330  49.009  1.00  0.00     0.278 HD
HETATM   16  H   UNL     1      21.958  46.622  49.910  1.00  0.00     0.278 HD
BRANCH  14  17
HETATM   17  C   UNL     1      22.362  47.093  47.913  1.00  0.00     0.215 C 
HETATM   18  C   UNL     1      21.417  46.318  46.995  1.00  0.00     0.045 C 
BRANCH  17  19
HETATM   19  C   UNL     1      21.991  48.531  48.206  1.00  0.00    -0.028 A 
HETATM   20  C   UNL     1      20.749  48.906  48.743  1.00  0.00     0.009 A 
HETATM   21  C   UNL     1      20.468  50.247  49.020  1.00  0.00     0.001 A 
HETATM   22  C   UNL     1      21.419  51.230  48.768  1.00  0.00     0.000 A 
HETATM   23  C   UNL     1      22.656  50.879  48.238  1.00  0.00     0.001 A 
HETATM   24  C   UNL     1      22.942  49.541  47.962  1.00  0.00     0.009 A 
ENDBRANCH  17  19
ENDBRANCH  14  17
ENDBRANCH  13  14
ENDBRANCH  10  13
ENDBRANCH   2   9
BRANCH   1  25
HETATM   25  C   UNL     1      27.619  43.330  50.991  1.00  0.00     0.259 C 
HETATM   26  N   UNL     1      28.038  42.739  52.164  1.00  0.00    -0.323 N 
HETATM   27  H   UNL     1      27.775  41.776  52.306  1.00  0.00     0.169 HD
HETATM   28  O   UNL     1      27.769  44.514  50.689  1.00  0.00    -0.267 OA
BRANCH  26  29
HETATM   29  C   UNL     1      28.689  43.338  53.261  1.00  0.00     0.035 A 
HETATM   30  C   UNL     1      28.152  44.370  54.032  1.00  0.00     0.032 A 
HETATM   31  C   UNL     1      28.851  44.869  55.142  1.00  0.00     0.039 A 
HETATM   32  C   UNL     1      30.091  44.338  55.491  1.00  0.00     0.068 A 
HETATM   33  C   UNL     1      30.647  43.336  54.699  1.00  0.00     0.039 A 
HETATM   34  C   UNL     1      29.953  42.837  53.595  1.00  0.00     0.032 A 
BRANCH  32  35
HETATM   35  O   UNL     1      30.855  44.718  56.558  1.00  0.00    -0.352 OA
BRANCH  35  36
HETATM   36  C   UNL     1      30.442  45.889  57.259  1.00  0.00     0.171 C 
HETATM   37  C   UNL     1      29.980  45.467  58.642  1.00  0.00     0.034 C 
ENDBRANCH  35  36
ENDBRANCH  32  35
ENDBRANCH  26  29
ENDBRANCH   1  25
TORSDOF 9
ENDMDL
MODEL 10
REMARK VINA RESULT:      -8.1      2.649      7.377
REMARK  9 active torsions:
REMARK  status: ('A' for Active; 'I' for Inactive)
REMARK    1  A    between atoms: C_2  and  O_3 
REMARK    2  A    between atoms: O_3  and  C_4 
REMARK    3  A    between atoms: C_7  and  N_8 
REMARK       I    between atoms: N_8  and  C_9 
REMARK    4  A    between atoms: C_9  and  C_10 
REMARK    5  A    between atoms: C_11  and  N_12 
REMARK       I    between atoms: N_12  and  C_13 
REMARK    6  A    between atoms: C_13  and  C_14 
REMARK    7  A    between atoms: C_14  and  N_15 
REMARK    8  A    between atoms: N_15  and  C_18 
REMARK    9  A    between atoms: C_18  and  C_19 
ROOT
HETATM    1  C   UNL     1      24.400  44.589  49.932  1.00  0.00     0.073 A 
HETATM    2  C   UNL     1      25.002  45.662  50.606  1.00  0.00     0.093 A 
HETATM    3  S   UNL     1      24.382  47.188  50.146  1.00  0.00    -0.075 SA
HETATM    4  C   UNL     1      23.369  46.470  49.035  1.00  0.00    -0.008 A 
HETATM    5  C   UNL     1      23.463  45.106  48.985  1.00  0.00    -0.026 A 
HETATM    6  C   UNL     1      22.547  44.574  47.934  1.00  0.00     0.041 C 
HETATM    7  C   UNL     1      22.164  45.853  47.130  1.00  0.00     0.010 C 
HETATM    8  C   UNL     1      22.401  47.060  48.081  1.00  0.00     0.047 C 
ENDROOT
BRANCH   2   9
HETATM    9  N   UNL     1      26.020  45.553  51.544  1.00  0.00    -0.319 N 
HETATM   10  C   UNL     1      25.904  45.145  52.853  1.00  0.00     0.248 C 
HETATM   11  O   UNL     1      24.916  44.711  53.444  1.00  0.00    -0.271 OA
HETATM   12  H   UNL     1      26.940  45.786  51.159  1.00  0.00     0.169 HD
BRANCH  10  13
HETATM   13  C   UNL     1      27.208  45.235  53.647  1.00  0.00     0.335 C 
BRANCH  13  14
HETATM   14  N   UNL     1      27.508  43.878  54.244  1.00  0.00    -0.059 N 
HETATM   15  H   UNL     1      27.235  43.963  55.240  1.00  0.00     0.278 HD
HETATM   16  H   UNL     1      26.830  43.200  53.877  1.00  0.00     0.278 HD
BRANCH  14  17
HETATM   17  C   UNL     1      28.897  43.339  54.162  1.00  0.00     0.215 C 
HETATM   18  C   UNL     1      29.453  43.563  52.757  1.00  0.00     0.045 C 
BRANCH  17  19
HETATM   19  C   UNL     1      29.755  43.819  55.314  1.00  0.00    -0.028 A 
HETATM   20  C   UNL     1      29.653  45.111  55.855  1.00  0.00     0.009 A 
HETATM   21  C   UNL     1      30.451  45.495  56.937  1.00  0.00     0.001 A 
HETATM   22  C   UNL     1      31.358  44.599  57.493  1.00  0.00     0.000 A 
HETATM   23  C   UNL     1      31.472  43.314  56.971  1.00  0.00     0.001 A 
HETATM   24  C   UNL     1      30.676  42.926  55.893  1.00  0.00     0.009 A 
ENDBRANCH  17  19
ENDBRANCH  14  17
ENDBRANCH  13  14
ENDBRANCH  10  13
ENDBRANCH   2   9
BRANCH   1  25
HETATM   25  C   UNL     1      24.764  43.193  50.242  1.00  0.00     0.259 C 
HETATM   26  N   UNL     1      25.878  42.727  49.576  1.00  0.00    -0.323 N 
HETATM   27  H   UNL     1      26.319  43.362  48.930  1.00  0.00     0.169 HD
HETATM   28  O   UNL     1      24.049  42.534  50.995  1.00  0.00    -0.267 OA
BRANCH  26  29
HETATM   29  C   UNL     1      26.421  41.426  49.584  1.00  0.00     0.035 A 
HETATM   30  C   UNL     1      25.880  40.340  48.896  1.00  0.00     0.032 A 
HETATM   31  C   UNL     1      26.521  39.091  48.917  1.00  0.00     0.039 A 
HETATM   32  C   UNL     1      27.708  38.921  49.626  1.00  0.00     0.068 A 
HETATM   33  C   UNL     1      28.228  39.993  50.347  1.00  0.00     0.039 A 
HETATM   34  C   UNL     1      27.593  41.237  50.325  1.00  0.00     0.032 A 
BRANCH  32  35
HETATM   35  O   UNL     1      28.438  37.769  49.704  1.00  0.00    -0.352 OA
BRANCH  35  36
HETATM   36  C   UNL     1      29.732  37.867  50.297  1.00  0.00     0.171 C 
HETATM   37  C   UNL     1      29.818  36.834  51.406  1.00  0.00     0.034 C 
ENDBRANCH  35  36
ENDBRANCH  32  35
ENDBRANCH  26  29
ENDBRANCH   1  25
TORSDOF 9
ENDMDL
