MODEL 1
REMARK VINA RESULT:      -8.8      0.000      0.000
REMARK  5 active torsions:
REMARK  status: ('A' for Active; 'I' for Inactive)
REMARK    1  A    between atoms: C_7  and  C_8 
REMARK    2  A    between atoms: N_9  and  N_10 
REMARK       I    between atoms: N_10  and  C_11 
REMARK    3  A    between atoms: C_11  and  C_12 
REMARK    4  A    between atoms: C_12  and  N_13 
REMARK    5  A    between atoms: N_13  and  C_14 
ROOT
HETATM    1  N   UNL     1      27.290  44.274  50.978  1.00  0.00    -0.246 N 
HETATM    2  C   UNL     1      26.372  44.916  50.135  1.00  0.00     0.250 C 
HETATM    3  O   UNL     1      25.260  44.482  49.839  1.00  0.00    -0.270 OA
HETATM    4  H   UNL     1      28.265  44.354  50.708  1.00  0.00     0.192 HD
ENDROOT
BRANCH   1   5
HETATM    5  N   UNL     1      26.988  43.072  51.565  1.00  0.00    -0.184 NA
HETATM    6  C   UNL     1      27.018  42.992  52.866  1.00  0.00     0.153 C 
BRANCH   6   7
HETATM    7  C   UNL     1      27.554  43.979  53.793  1.00  0.00     0.018 A 
HETATM    8  C   UNL     1      26.895  45.156  54.125  1.00  0.00     0.018 A 
HETATM    9  C   UNL     1      25.590  45.699  53.668  1.00  0.00     0.069 C 
HETATM   10  N   UNL     1      27.709  45.866  54.970  1.00  0.00    -0.358 N 
HETATM   11  H   UNL     1      27.504  46.784  55.341  1.00  0.00     0.166 HD
HETATM   12  C   UNL     1      28.849  45.155  55.256  1.00  0.00     0.043 A 
HETATM   13  C   UNL     1      28.767  43.950  54.560  1.00  0.00     0.004 A 
HETATM   14  C   UNL     1      29.934  45.489  56.078  1.00  0.00     0.030 A 
HETATM   15  C   UNL     1      29.808  43.010  54.739  1.00  0.00     0.014 A 
HETATM   16  C   UNL     1      30.900  43.326  55.557  1.00  0.00     0.001 A 
HETATM   17  C   UNL     1      30.962  44.553  56.210  1.00  0.00     0.002 A 
ENDBRANCH   6   7
ENDBRANCH   1   5
BRANCH   2  18
HETATM   18  C   UNL     1      26.927  46.250  49.617  1.00  0.00     0.197 C 
BRANCH  18  19
HETATM   19  N   UNL     1      26.318  47.397  50.296  1.00  0.00    -0.283 NA
HETATM   20  H   UNL     1      25.966  47.157  51.226  1.00  0.00     0.128 HD
BRANCH  19  21
HETATM   21  C   UNL     1      25.423  48.196  49.566  1.00  0.00     0.030 A 
HETATM   22  C   UNL     1      25.878  49.300  48.816  1.00  0.00     0.055 A 
HETATM   23 CL   UNL     1      27.544  49.767  48.854  1.00  0.00    -0.082 Cl
HETATM   24  C   UNL     1      24.997  50.070  48.047  1.00  0.00     0.026 A 
HETATM   25  C   UNL     1      23.646  49.737  47.992  1.00  0.00     0.002 A 
HETATM   26  C   UNL     1      23.180  48.631  48.699  1.00  0.00     0.002 A 
HETATM   27  C   UNL     1      24.062  47.867  49.470  1.00  0.00     0.025 A 
ENDBRANCH  19  21
ENDBRANCH  18  19
ENDBRANCH   2  18
TORSDOF 5
ENDMDL
MODEL 2
REMARK VINA RESULT:      -8.7      1.033      2.543
REMARK  5 active torsions:
REMARK  status: ('A' for Active; 'I' for Inactive)
REMARK    1  A    between atoms: C_7  and  C_8 
REMARK    2  A    between atoms: N_9  and  N_10 
REMARK       I    between atoms: N_10  and  C_11 
REMARK    3  A    between atoms: C_11  and  C_12 
REMARK    4  A    between atoms: C_12  and  N_13 
REMARK    5  A    between atoms: N_13  and  C_14 
ROOT
HETATM    1  N   UNL     1      27.589  43.935  51.112  1.00  0.00    -0.246 N 
HETATM    2  C   UNL     1      26.501  44.474  50.409  1.00  0.00     0.250 C 
HETATM    3  O   UNL     1      25.367  43.998  50.388  1.00  0.00    -0.270 OA
HETATM    4  H   UNL     1      28.487  43.998  50.645  1.00  0.00     0.192 HD
ENDROOT
BRANCH   1   5
HETATM    5  N   UNL     1      27.449  42.800  51.867  1.00  0.00    -0.184 NA
HETATM    6  C   UNL     1      27.538  42.902  53.164  1.00  0.00     0.153 C 
BRANCH   6   7
HETATM    7  C   UNL     1      27.992  44.059  53.923  1.00  0.00     0.018 A 
HETATM    8  C   UNL     1      29.221  44.120  54.566  1.00  0.00     0.018 A 
HETATM    9  C   UNL     1      30.314  43.118  54.668  1.00  0.00     0.069 C 
HETATM   10  N   UNL     1      29.289  45.322  55.224  1.00  0.00    -0.358 N 
HETATM   11  H   UNL     1      30.056  45.622  55.811  1.00  0.00     0.166 HD
HETATM   12  C   UNL     1      28.171  46.078  54.970  1.00  0.00     0.043 A 
HETATM   13  C   UNL     1      27.351  45.328  54.127  1.00  0.00     0.004 A 
HETATM   14  C   UNL     1      27.833  47.361  55.417  1.00  0.00     0.030 A 
HETATM   15  C   UNL     1      26.152  45.921  53.672  1.00  0.00     0.014 A 
HETATM   16  C   UNL     1      25.797  47.203  54.108  1.00  0.00     0.001 A 
HETATM   17  C   UNL     1      26.626  47.908  54.975  1.00  0.00     0.002 A 
ENDBRANCH   6   7
ENDBRANCH   1   5
BRANCH   2  18
HETATM   18  C   UNL     1      26.898  45.751  49.656  1.00  0.00     0.197 C 
BRANCH  18  19
HETATM   19  N   UNL     1      26.486  46.960  50.374  1.00  0.00    -0.283 NA
HETATM   20  H   UNL     1      26.144  46.755  51.317  1.00  0.00     0.128 HD
BRANCH  19  21
HETATM   21  C   UNL     1      25.681  47.888  49.694  1.00  0.00     0.030 A 
HETATM   22  C   UNL     1      26.251  48.984  49.013  1.00  0.00     0.055 A 
HETATM   23 CL   UNL     1      27.956  49.275  49.080  1.00  0.00    -0.082 Cl
HETATM   24  C   UNL     1      25.459  49.884  48.291  1.00  0.00     0.026 A 
HETATM   25  C   UNL     1      24.081  49.694  48.215  1.00  0.00     0.002 A 
HETATM   26  C   UNL     1      23.500  48.601  48.854  1.00  0.00     0.002 A 
HETATM   27  C   UNL     1      24.294  47.706  49.577  1.00  0.00     0.025 A 
ENDBRANCH  19  21
ENDBRANCH  18  19
ENDBRANCH   2  18
TORSDOF 5
ENDMDL
MODEL 3
REMARK VINA RESULT:      -8.6     11.565     13.565
REMARK  5 active torsions:
REMARK  status: ('A' for Active; 'I' for Inactive)
REMARK    1  A    between atoms: C_7  and  C_8 
REMARK    2  A    between atoms: N_9  and  N_10 
REMARK       I    between atoms: N_10  and  C_11 
REMARK    3  A    between atoms: C_11  and  C_12 
REMARK    4  A    between atoms: C_12  and  N_13 
REMARK    5  A    between atoms: N_13  and  C_14 
ROOT
HETATM    1  N   UNL     1      30.979  48.398  41.590  1.00  0.00    -0.246 N 
HETATM    2  C   UNL     1      31.676  47.625  40.650  1.00  0.00     0.250 C 
HETATM    3  O   UNL     1      32.781  47.118  40.832  1.00  0.00    -0.270 OA
HETATM    4  H   UNL     1      30.462  49.186  41.215  1.00  0.00     0.192 HD
ENDROOT
BRANCH   1   5
HETATM    5  N   UNL     1      31.502  48.637  42.835  1.00  0.00    -0.184 NA
HETATM    6  C   UNL     1      31.781  49.868  43.165  1.00  0.00     0.153 C 
BRANCH   6   7
HETATM    7  C   UNL     1      31.811  51.027  42.283  1.00  0.00     0.018 A 
HETATM    8  C   UNL     1      32.980  51.566  41.764  1.00  0.00     0.018 A 
HETATM    9  C   UNL     1      34.399  51.165  41.949  1.00  0.00     0.069 C 
HETATM   10  N   UNL     1      32.639  52.674  41.031  1.00  0.00    -0.358 N 
HETATM   11  H   UNL     1      33.294  53.291  40.569  1.00  0.00     0.166 HD
HETATM   12  C   UNL     1      31.275  52.832  40.996  1.00  0.00     0.043 A 
HETATM   13  C   UNL     1      30.722  51.793  41.744  1.00  0.00     0.004 A 
HETATM   14  C   UNL     1      30.500  53.808  40.357  1.00  0.00     0.030 A 
HETATM   15  C   UNL     1      29.313  51.704  41.812  1.00  0.00     0.014 A 
HETATM   16  C   UNL     1      28.522  52.670  41.179  1.00  0.00     0.001 A 
HETATM   17  C   UNL     1      29.111  53.711  40.468  1.00  0.00     0.002 A 
ENDBRANCH   6   7
ENDBRANCH   1   5
BRANCH   2  18
HETATM   18  C   UNL     1      30.881  47.482  39.345  1.00  0.00     0.197 C 
BRANCH  18  19
HETATM   19  N   UNL     1      30.642  48.779  38.706  1.00  0.00    -0.283 NA
HETATM   20  H   UNL     1      31.352  49.473  38.955  1.00  0.00     0.128 HD
BRANCH  19  21
HETATM   21  C   UNL     1      29.338  49.299  38.738  1.00  0.00     0.030 A 
HETATM   22  C   UNL     1      29.055  50.586  38.236  1.00  0.00     0.055 A 
HETATM   23 CL   UNL     1      30.327  51.607  37.656  1.00  0.00    -0.082 Cl
HETATM   24  C   UNL     1      27.750  51.090  38.220  1.00  0.00     0.026 A 
HETATM   25  C   UNL     1      26.695  50.308  38.685  1.00  0.00     0.002 A 
HETATM   26  C   UNL     1      26.947  49.022  39.156  1.00  0.00     0.002 A 
HETATM   27  C   UNL     1      28.253  48.523  39.173  1.00  0.00     0.025 A 
ENDBRANCH  19  21
ENDBRANCH  18  19
ENDBRANCH   2  18
TORSDOF 5
ENDMDL
MODEL 4
REMARK VINA RESULT:      -8.6     11.725     13.438
REMARK  5 active torsions:
REMARK  status: ('A' for Active; 'I' for Inactive)
REMARK    1  A    between atoms: C_7  and  C_8 
REMARK    2  A    between atoms: N_9  and  N_10 
REMARK       I    between atoms: N_10  and  C_11 
REMARK    3  A    between atoms: C_11  and  C_12 
REMARK    4  A    between atoms: C_12  and  N_13 
REMARK    5  A    between atoms: N_13  and  C_14 
ROOT
HETATM    1  N   UNL     1      30.335  53.051  41.323  1.00  0.00    -0.246 N 
HETATM    2  C   UNL     1      29.149  53.092  40.575  1.00  0.00     0.250 C 
HETATM    3  O   UNL     1      29.054  53.514  39.424  1.00  0.00    -0.270 OA
HETATM    4  H   UNL     1      30.238  53.262  42.311  1.00  0.00     0.192 HD
ENDROOT
BRANCH   1   5
HETATM    5  N   UNL     1      31.521  53.486  40.791  1.00  0.00    -0.184 NA
HETATM    6  C   UNL     1      32.445  52.603  40.529  1.00  0.00     0.153 C 
BRANCH   6   7
HETATM    7  C   UNL     1      32.463  51.206  40.939  1.00  0.00     0.018 A 
HETATM    8  C   UNL     1      33.056  50.758  42.111  1.00  0.00     0.018 A 
HETATM    9  C   UNL     1      33.783  51.498  43.175  1.00  0.00     0.069 C 
HETATM   10  N   UNL     1      32.935  49.392  42.145  1.00  0.00    -0.358 N 
HETATM   11  H   UNL     1      33.313  48.791  42.865  1.00  0.00     0.166 HD
HETATM   12  C   UNL     1      32.217  48.942  41.064  1.00  0.00     0.043 A 
HETATM   13  C   UNL     1      31.874  50.059  40.304  1.00  0.00     0.004 A 
HETATM   14  C   UNL     1      31.846  47.638  40.713  1.00  0.00     0.030 A 
HETATM   15  C   UNL     1      31.074  49.859  39.156  1.00  0.00     0.014 A 
HETATM   16  C   UNL     1      30.693  48.563  38.789  1.00  0.00     0.001 A 
HETATM   17  C   UNL     1      31.082  47.468  39.555  1.00  0.00     0.002 A 
ENDBRANCH   6   7
ENDBRANCH   1   5
BRANCH   2  18
HETATM   18  C   UNL     1      27.964  52.536  41.376  1.00  0.00     0.197 C 
BRANCH  18  19
HETATM   19  N   UNL     1      27.178  51.577  40.595  1.00  0.00    -0.283 NA
HETATM   20  H   UNL     1      26.183  51.813  40.576  1.00  0.00     0.128 HD
BRANCH  19  21
HETATM   21  C   UNL     1      27.409  50.208  40.809  1.00  0.00     0.030 A 
HETATM   22  C   UNL     1      26.807  49.231  39.989  1.00  0.00     0.055 A 
HETATM   23 CL   UNL     1      25.685  49.687  38.753  1.00  0.00    -0.082 Cl
HETATM   24  C   UNL     1      27.072  47.869  40.166  1.00  0.00     0.026 A 
HETATM   25  C   UNL     1      27.963  47.455  41.153  1.00  0.00     0.002 A 
HETATM   26  C   UNL     1      28.592  48.404  41.955  1.00  0.00     0.002 A 
HETATM   27  C   UNL     1      28.323  49.764  41.778  1.00  0.00     0.025 A 
ENDBRANCH  19  21
ENDBRANCH  18  19
ENDBRANCH   2  18
TORSDOF 5
ENDMDL
MODEL 5
REMARK VINA RESULT:      -8.6     11.222     13.179
REMARK  5 active torsions:
REMARK  status: ('A' for Active; 'I' for Inactive)
REMARK    1  A    between atoms: C_7  and  C_8 
REMARK    2  A    between atoms: N_9  and  N_10 
REMARK       I    between atoms: N_10  and  C_11 
REMARK    3  A    between atoms: C_11  and  C_12 
REMARK    4  A    between atoms: C_12  and  N_13 
REMARK    5  A    between atoms: N_13  and  C_14 
ROOT
HETATM    1  N   UNL     1      28.629  50.083  40.952  1.00  0.00    -0.246 N 
HETATM    2  C   UNL     1      27.777  50.070  39.839  1.00  0.00     0.250 C 
HETATM    3  O   UNL     1      26.932  49.207  39.604  1.00  0.00    -0.270 OA
HETATM    4  H   UNL     1      29.574  50.409  40.779  1.00  0.00     0.192 HD
ENDROOT
BRANCH   1   5
HETATM    5  N   UNL     1      28.563  49.097  41.903  1.00  0.00    -0.184 NA
HETATM    6  C   UNL     1      29.678  48.644  42.407  1.00  0.00     0.153 C 
BRANCH   6   7
HETATM    7  C   UNL     1      31.027  48.903  41.924  1.00  0.00     0.018 A 
HETATM    8  C   UNL     1      31.579  48.274  40.816  1.00  0.00     0.018 A 
HETATM    9  C   UNL     1      31.014  47.248  39.902  1.00  0.00     0.069 C 
HETATM   10  N   UNL     1      32.872  48.713  40.689  1.00  0.00    -0.358 N 
HETATM   11  H   UNL     1      33.530  48.391  39.991  1.00  0.00     0.166 HD
HETATM   12  C   UNL     1      33.158  49.664  41.637  1.00  0.00     0.043 A 
HETATM   13  C   UNL     1      32.008  49.833  42.408  1.00  0.00     0.004 A 
HETATM   14  C   UNL     1      34.339  50.382  41.862  1.00  0.00     0.030 A 
HETATM   15  C   UNL     1      32.034  50.812  43.427  1.00  0.00     0.014 A 
HETATM   16  C   UNL     1      33.205  51.541  43.666  1.00  0.00     0.001 A 
HETATM   17  C   UNL     1      34.343  51.321  42.896  1.00  0.00     0.002 A 
ENDBRANCH   6   7
ENDBRANCH   1   5
BRANCH   2  18
HETATM   18  C   UNL     1      28.026  51.282  38.930  1.00  0.00     0.197 C 
BRANCH  18  19
HETATM   19  N   UNL     1      28.960  52.235  39.534  1.00  0.00    -0.283 NA
HETATM   20  H   UNL     1      28.627  53.201  39.472  1.00  0.00     0.128 HD
BRANCH  19  21
HETATM   21  C   UNL     1      30.324  52.109  39.222  1.00  0.00     0.030 A 
HETATM   22  C   UNL     1      31.312  52.735  40.011  1.00  0.00     0.055 A 
HETATM   23 CL   UNL     1      30.868  53.762  41.331  1.00  0.00    -0.082 Cl
HETATM   24  C   UNL     1      32.674  52.572  39.733  1.00  0.00     0.026 A 
HETATM   25  C   UNL     1      33.078  51.762  38.676  1.00  0.00     0.002 A 
HETATM   26  C   UNL     1      32.121  51.109  37.903  1.00  0.00     0.002 A 
HETATM   27  C   UNL     1      30.760  51.276  38.180  1.00  0.00     0.025 A 
ENDBRANCH  19  21
ENDBRANCH  18  19
ENDBRANCH   2  18
TORSDOF 5
ENDMDL
MODEL 6
REMARK VINA RESULT:      -8.5     11.710     13.643
REMARK  5 active torsions:
REMARK  status: ('A' for Active; 'I' for Inactive)
REMARK    1  A    between atoms: C_7  and  C_8 
REMARK    2  A    between atoms: N_9  and  N_10 
REMARK       I    between atoms: N_10  and  C_11 
REMARK    3  A    between atoms: C_11  and  C_12 
REMARK    4  A    between atoms: C_12  and  N_13 
REMARK    5  A    between atoms: N_13  and  C_14 
ROOT
HETATM    1  N   UNL     1      31.145  48.265  39.149  1.00  0.00    -0.246 N 
HETATM    2  C   UNL     1      31.124  47.372  40.230  1.00  0.00     0.250 C 
HETATM    3  O   UNL     1      30.195  46.616  40.504  1.00  0.00    -0.270 OA
HETATM    4  H   UNL     1      31.585  49.162  39.327  1.00  0.00     0.192 HD
ENDROOT
BRANCH   1   5
HETATM    5  N   UNL     1      30.089  48.345  38.278  1.00  0.00    -0.184 NA
HETATM    6  C   UNL     1      29.179  49.256  38.487  1.00  0.00     0.153 C 
BRANCH   6   7
HETATM    7  C   UNL     1      29.022  50.080  39.677  1.00  0.00     0.018 A 
HETATM    8  C   UNL     1      28.032  49.874  40.628  1.00  0.00     0.018 A 
HETATM    9  C   UNL     1      26.947  48.860  40.695  1.00  0.00     0.069 C 
HETATM   10  N   UNL     1      28.146  50.863  41.571  1.00  0.00    -0.358 N 
HETATM   11  H   UNL     1      27.528  50.987  42.362  1.00  0.00     0.166 HD
HETATM   12  C   UNL     1      29.226  51.668  41.302  1.00  0.00     0.043 A 
HETATM   13  C   UNL     1      29.820  51.182  40.137  1.00  0.00     0.004 A 
HETATM   14  C   UNL     1      29.717  52.776  42.003  1.00  0.00     0.030 A 
HETATM   15  C   UNL     1      30.998  51.816  39.682  1.00  0.00     0.014 A 
HETATM   16  C   UNL     1      31.504  52.925  40.370  1.00  0.00     0.001 A 
HETATM   17  C   UNL     1      30.865  53.401  41.511  1.00  0.00     0.002 A 
ENDBRANCH   6   7
ENDBRANCH   1   5
BRANCH   2  18
HETATM   18  C   UNL     1      32.421  47.452  41.046  1.00  0.00     0.197 C 
BRANCH  18  19
HETATM   19  N   UNL     1      33.170  48.680  40.765  1.00  0.00    -0.283 NA
HETATM   20  H   UNL     1      34.071  48.493  40.316  1.00  0.00     0.128 HD
BRANCH  19  21
HETATM   21  C   UNL     1      33.258  49.646  41.781  1.00  0.00     0.030 A 
HETATM   22  C   UNL     1      34.371  50.508  41.870  1.00  0.00     0.055 A 
HETATM   23 CL   UNL     1      35.711  50.335  40.789  1.00  0.00    -0.082 Cl
HETATM   24  C   UNL     1      34.441  51.505  42.850  1.00  0.00     0.026 A 
HETATM   25  C   UNL     1      33.390  51.676  43.748  1.00  0.00     0.002 A 
HETATM   26  C   UNL     1      32.268  50.856  43.658  1.00  0.00     0.002 A 
HETATM   27  C   UNL     1      32.202  49.859  42.680  1.00  0.00     0.025 A 
ENDBRANCH  19  21
ENDBRANCH  18  19
ENDBRANCH   2  18
TORSDOF 5
ENDMDL
MODEL 7
REMARK VINA RESULT:      -8.5     12.057     14.331
REMARK  5 active torsions:
REMARK  status: ('A' for Active; 'I' for Inactive)
REMARK    1  A    between atoms: C_7  and  C_8 
REMARK    2  A    between atoms: N_9  and  N_10 
REMARK       I    between atoms: N_10  and  C_11 
REMARK    3  A    between atoms: C_11  and  C_12 
REMARK    4  A    between atoms: C_12  and  N_13 
REMARK    5  A    between atoms: N_13  and  C_14 
ROOT
HETATM    1  N   UNL     1      29.572  52.664  40.797  1.00  0.00    -0.246 N 
HETATM    2  C   UNL     1      30.763  53.198  41.310  1.00  0.00     0.250 C 
HETATM    3  O   UNL     1      31.531  53.934  40.693  1.00  0.00    -0.270 OA
HETATM    4  H   UNL     1      29.358  51.714  41.082  1.00  0.00     0.192 HD
ENDROOT
BRANCH   1   5
HETATM    5  N   UNL     1      29.160  52.953  39.522  1.00  0.00    -0.184 NA
HETATM    6  C   UNL     1      29.174  51.997  38.634  1.00  0.00     0.153 C 
BRANCH   6   7
HETATM    7  C   UNL     1      29.788  50.684  38.769  1.00  0.00     0.018 A 
HETATM    8  C   UNL     1      31.146  50.451  38.598  1.00  0.00     0.018 A 
HETATM    9  C   UNL     1      32.254  51.379  38.250  1.00  0.00     0.069 C 
HETATM   10  N   UNL     1      31.360  49.104  38.740  1.00  0.00    -0.358 N 
HETATM   11  H   UNL     1      32.252  48.641  38.627  1.00  0.00     0.166 HD
HETATM   12  C   UNL     1      30.193  48.460  39.071  1.00  0.00     0.043 A 
HETATM   13  C   UNL     1      29.192  49.429  39.131  1.00  0.00     0.004 A 
HETATM   14  C   UNL     1      29.956  47.102  39.323  1.00  0.00     0.030 A 
HETATM   15  C   UNL     1      27.895  49.017  39.513  1.00  0.00     0.014 A 
HETATM   16  C   UNL     1      27.639  47.665  39.770  1.00  0.00     0.001 A 
HETATM   17  C   UNL     1      28.657  46.722  39.667  1.00  0.00     0.002 A 
ENDBRANCH   6   7
ENDBRANCH   1   5
BRANCH   2  18
HETATM   18  C   UNL     1      30.999  52.749  42.759  1.00  0.00     0.197 C 
BRANCH  18  19
HETATM   19  N   UNL     1      32.301  52.098  42.924  1.00  0.00    -0.283 NA
HETATM   20  H   UNL     1      33.077  52.699  42.634  1.00  0.00     0.128 HD
BRANCH  19  21
HETATM   21  C   UNL     1      32.439  50.776  42.470  1.00  0.00     0.030 A 
HETATM   22  C   UNL     1      33.576  50.371  41.741  1.00  0.00     0.055 A 
HETATM   23 CL   UNL     1      34.793  51.519  41.295  1.00  0.00    -0.082 Cl
HETATM   24  C   UNL     1      33.742  49.044  41.329  1.00  0.00     0.026 A 
HETATM   25  C   UNL     1      32.785  48.087  41.657  1.00  0.00     0.002 A 
HETATM   26  C   UNL     1      31.669  48.458  42.403  1.00  0.00     0.002 A 
HETATM   27  C   UNL     1      31.504  49.785  42.811  1.00  0.00     0.025 A 
ENDBRANCH  19  21
ENDBRANCH  18  19
ENDBRANCH   2  18
TORSDOF 5
ENDMDL
MODEL 8
REMARK VINA RESULT:      -8.4      2.325      3.784
REMARK  5 active torsions:
REMARK  status: ('A' for Active; 'I' for Inactive)
REMARK    1  A    between atoms: C_7  and  C_8 
REMARK    2  A    between atoms: N_9  and  N_10 
REMARK       I    between atoms: N_10  and  C_11 
REMARK    3  A    between atoms: C_11  and  C_12 
REMARK    4  A    between atoms: C_12  and  N_13 
REMARK    5  A    between atoms: N_13  and  C_14 
ROOT
HETATM    1  N   UNL     1      27.955  42.220  51.660  1.00  0.00    -0.246 N 
HETATM    2  C   UNL     1      26.910  42.068  50.737  1.00  0.00     0.250 C 
HETATM    3  O   UNL     1      25.998  41.249  50.830  1.00  0.00    -0.270 OA
HETATM    4  H   UNL     1      28.865  42.429  51.264  1.00  0.00     0.192 HD
ENDROOT
BRANCH   1   5
HETATM    5  N   UNL     1      28.021  41.440  52.786  1.00  0.00    -0.184 NA
HETATM    6  C   UNL     1      28.008  42.028  53.950  1.00  0.00     0.153 C 
BRANCH   6   7
HETATM    7  C   UNL     1      28.152  43.453  54.214  1.00  0.00     0.018 A 
HETATM    8  C   UNL     1      29.289  44.017  54.778  1.00  0.00     0.018 A 
HETATM    9  C   UNL     1      30.555  43.392  55.241  1.00  0.00     0.069 C 
HETATM   10  N   UNL     1      29.055  45.359  54.935  1.00  0.00    -0.358 N 
HETATM   11  H   UNL     1      29.695  46.016  55.360  1.00  0.00     0.166 HD
HETATM   12  C   UNL     1      27.827  45.701  54.423  1.00  0.00     0.043 A 
HETATM   13  C   UNL     1      27.247  44.532  53.931  1.00  0.00     0.004 A 
HETATM   14  C   UNL     1      27.197  46.950  54.358  1.00  0.00     0.030 A 
HETATM   15  C   UNL     1      25.989  44.634  53.295  1.00  0.00     0.014 A 
HETATM   16  C   UNL     1      25.344  45.874  53.220  1.00  0.00     0.001 A 
HETATM   17  C   UNL     1      25.940  47.014  53.752  1.00  0.00     0.002 A 
ENDBRANCH   6   7
ENDBRANCH   1   5
BRANCH   2  18
HETATM   18  C   UNL     1      27.042  43.063  49.575  1.00  0.00     0.197 C 
BRANCH  18  19
HETATM   19  N   UNL     1      25.755  43.669  49.226  1.00  0.00    -0.283 NA
HETATM   20  H   UNL     1      25.425  43.380  48.301  1.00  0.00     0.128 HD
BRANCH  19  21
HETATM   21  C   UNL     1      25.591  45.045  49.455  1.00  0.00     0.030 A 
HETATM   22  C   UNL     1      24.307  45.622  49.543  1.00  0.00     0.055 A 
HETATM   23 CL   UNL     1      22.890  44.665  49.271  1.00  0.00    -0.082 Cl
HETATM   24  C   UNL     1      24.138  46.983  49.820  1.00  0.00     0.026 A 
HETATM   25  C   UNL     1      25.249  47.793  50.039  1.00  0.00     0.002 A 
HETATM   26  C   UNL     1      26.526  47.239  49.988  1.00  0.00     0.002 A 
HETATM   27  C   UNL     1      26.692  45.879  49.707  1.00  0.00     0.025 A 
ENDBRANCH  19  21
ENDBRANCH  18  19
ENDBRANCH   2  18
TORSDOF 5
ENDMDL
MODEL 9
REMARK VINA RESULT:      -8.3     11.456     13.164
REMARK  5 active torsions:
REMARK  status: ('A' for Active; 'I' for Inactive)
REMARK    1  A    between atoms: C_7  and  C_8 
REMARK    2  A    between atoms: N_9  and  N_10 
REMARK       I    between atoms: N_10  and  C_11 
REMARK    3  A    between atoms: C_11  and  C_12 
REMARK    4  A    between atoms: C_12  and  N_13 
REMARK    5  A    between atoms: N_13  and  C_14 
ROOT
HETATM    1  N   UNL     1      30.286  48.662  38.808  1.00  0.00    -0.246 N 
HETATM    2  C   UNL     1      28.891  48.663  38.671  1.00  0.00     0.250 C 
HETATM    3  O   UNL     1      28.161  47.692  38.863  1.00  0.00    -0.270 OA
HETATM    4  H   UNL     1      30.795  49.215  38.126  1.00  0.00     0.192 HD
ENDROOT
BRANCH   1   5
HETATM    5  N   UNL     1      30.957  47.532  39.196  1.00  0.00    -0.184 NA
HETATM    6  C   UNL     1      31.469  47.494  40.395  1.00  0.00     0.153 C 
BRANCH   6   7
HETATM    7  C   UNL     1      31.611  48.608  41.323  1.00  0.00     0.018 A 
HETATM    8  C   UNL     1      30.571  49.089  42.107  1.00  0.00     0.018 A 
HETATM    9  C   UNL     1      29.152  48.659  42.209  1.00  0.00     0.069 C 
HETATM   10  N   UNL     1      31.043  50.168  42.809  1.00  0.00    -0.358 N 
HETATM   11  H   UNL     1      30.492  50.744  43.432  1.00  0.00     0.166 HD
HETATM   12  C   UNL     1      32.380  50.362  42.561  1.00  0.00     0.043 A 
HETATM   13  C   UNL     1      32.777  49.377  41.657  1.00  0.00     0.004 A 
HETATM   14  C   UNL     1      33.258  51.327  43.070  1.00  0.00     0.030 A 
HETATM   15  C   UNL     1      34.139  49.330  41.285  1.00  0.00     0.014 A 
HETATM   16  C   UNL     1      35.032  50.286  41.785  1.00  0.00     0.001 A 
HETATM   17  C   UNL     1      34.592  51.275  42.660  1.00  0.00     0.002 A 
ENDBRANCH   6   7
ENDBRANCH   1   5
BRANCH   2  18
HETATM   18  C   UNL     1      28.371  50.043  38.248  1.00  0.00     0.197 C 
BRANCH  18  19
HETATM   19  N   UNL     1      29.464  50.961  37.916  1.00  0.00    -0.283 NA
HETATM   20  H   UNL     1      30.201  50.508  37.370  1.00  0.00     0.128 HD
BRANCH  19  21
HETATM   21  C   UNL     1      29.970  51.779  38.940  1.00  0.00     0.030 A 
HETATM   22  C   UNL     1      31.358  51.985  39.088  1.00  0.00     0.055 A 
HETATM   23 CL   UNL     1      32.486  51.154  38.073  1.00  0.00    -0.082 Cl
HETATM   24  C   UNL     1      31.865  52.838  40.074  1.00  0.00     0.026 A 
HETATM   25  C   UNL     1      30.995  53.522  40.919  1.00  0.00     0.002 A 
HETATM   26  C   UNL     1      29.620  53.358  40.771  1.00  0.00     0.002 A 
HETATM   27  C   UNL     1      29.116  52.502  39.787  1.00  0.00     0.025 A 
ENDBRANCH  19  21
ENDBRANCH  18  19
ENDBRANCH   2  18
TORSDOF 5
ENDMDL
MODEL 10
REMARK VINA RESULT:      -8.2      1.687      2.930
REMARK  5 active torsions:
REMARK  status: ('A' for Active; 'I' for Inactive)
REMARK    1  A    between atoms: C_7  and  C_8 
REMARK    2  A    between atoms: N_9  and  N_10 
REMARK       I    between atoms: N_10  and  C_11 
REMARK    3  A    between atoms: C_11  and  C_12 
REMARK    4  A    between atoms: C_12  and  N_13 
REMARK    5  A    between atoms: N_13  and  C_14 
ROOT
HETATM    1  N   UNL     1      26.095  43.547  49.850  1.00  0.00    -0.246 N 
HETATM    2  C   UNL     1      25.583  44.800  50.218  1.00  0.00     0.250 C 
HETATM    3  O   UNL     1      24.517  44.984  50.803  1.00  0.00    -0.270 OA
HETATM    4  H   UNL     1      26.573  43.513  48.955  1.00  0.00     0.192 HD
ENDROOT
BRANCH   1   5
HETATM    5  N   UNL     1      25.416  42.393  50.144  1.00  0.00    -0.184 NA
HETATM    6  C   UNL     1      25.915  41.593  51.046  1.00  0.00     0.153 C 
BRANCH   6   7
HETATM    7  C   UNL     1      27.242  41.662  51.642  1.00  0.00     0.018 A 
HETATM    8  C   UNL     1      28.300  40.852  51.252  1.00  0.00     0.018 A 
HETATM    9  C   UNL     1      28.375  39.780  50.225  1.00  0.00     0.069 C 
HETATM   10  N   UNL     1      29.370  41.147  52.058  1.00  0.00    -0.358 N 
HETATM   11  H   UNL     1      30.267  40.681  52.028  1.00  0.00     0.166 HD
HETATM   12  C   UNL     1      29.063  42.175  52.915  1.00  0.00     0.043 A 
HETATM   13  C   UNL     1      27.744  42.546  52.656  1.00  0.00     0.004 A 
HETATM   14  C   UNL     1      29.854  42.800  53.887  1.00  0.00     0.030 A 
HETATM   15  C   UNL     1      27.209  43.635  53.380  1.00  0.00     0.014 A 
HETATM   16  C   UNL     1      27.984  44.273  54.356  1.00  0.00     0.001 A 
HETATM   17  C   UNL     1      29.286  43.853  54.609  1.00  0.00     0.002 A 
ENDBRANCH   6   7
ENDBRANCH   1   5
BRANCH   2  18
HETATM   18  C   UNL     1      26.527  45.935  49.798  1.00  0.00     0.197 C 
BRANCH  18  19
HETATM   19  N   UNL     1      26.158  47.210  50.418  1.00  0.00    -0.283 NA
HETATM   20  H   UNL     1      25.668  47.084  51.308  1.00  0.00     0.128 HD
BRANCH  19  21
HETATM   21  C   UNL     1      25.566  48.191  49.606  1.00  0.00     0.030 A 
HETATM   22  C   UNL     1      26.352  49.131  48.908  1.00  0.00     0.055 A 
HETATM   23 CL   UNL     1      28.071  49.169  49.113  1.00  0.00    -0.082 Cl
HETATM   24  C   UNL     1      25.771  50.079  48.059  1.00  0.00     0.026 A 
HETATM   25  C   UNL     1      24.391  50.092  47.870  1.00  0.00     0.002 A 
HETATM   26  C   UNL     1      23.597  49.153  48.524  1.00  0.00     0.002 A 
HETATM   27  C   UNL     1      24.181  48.209  49.375  1.00  0.00     0.025 A 
ENDBRANCH  19  21
ENDBRANCH  18  19
ENDBRANCH   2  18
TORSDOF 5
ENDMDL
