MODEL 1
REMARK VINA RESULT:     -10.0      0.000      0.000
REMARK  10 active torsions:
REMARK  status: ('A' for Active; 'I' for Inactive)
REMARK    1  A    between atoms: C_2  and  C_3 
REMARK    2  A    between atoms: C_3  and  C_4 
REMARK    3  A    between atoms: C_4  and  O_5 
REMARK    4  A    between atoms: O_5  and  C_6 
REMARK    5  A    between atoms: C_9  and  C_10 
REMARK       I    between atoms: C_10  and  N_11 
REMARK    6  A    between atoms: N_11  and  C_12 
REMARK    7  A    between atoms: C_12  and  N_13 
REMARK    8  A    between atoms: N_13  and  C_14 
REMARK    9  A    between atoms: C_16  and  C_17 
REMARK   10  A    between atoms: C_26  and  O_27 
ROOT
HETATM    1  N   UNL     1      25.197  45.926  51.313  1.00  0.00    -0.333 N 
HETATM    2  H   UNL     1      24.846  46.112  52.248  1.00  0.00     0.168 HD
ENDROOT
BRANCH   1   3
HETATM    3  C   UNL     1      25.509  44.606  51.104  1.00  0.00     0.179 C 
HETATM    4  S   UNL     1      25.385  44.028  49.539  1.00  0.00    -0.040 SA
BRANCH   3   5
HETATM    5  N   UNL     1      25.780  43.866  52.236  1.00  0.00    -0.299 N 
HETATM    6  C   UNL     1      25.695  44.397  53.513  1.00  0.00     0.257 C 
HETATM    7  O   UNL     1      24.637  44.468  54.128  1.00  0.00    -0.267 OA
HETATM    8  H   UNL     1      26.592  43.285  52.079  1.00  0.00     0.171 HD
BRANCH   6   9
HETATM    9  C   UNL     1      26.977  44.842  54.147  1.00  0.00     0.032 A 
HETATM   10  C   UNL     1      27.105  46.066  54.821  1.00  0.00     0.020 A 
HETATM   11  C   UNL     1      28.292  46.380  55.486  1.00  0.00     0.038 A 
HETATM   12  C   UNL     1      29.344  45.468  55.514  1.00  0.00     0.068 A 
HETATM   13  C   UNL     1      29.247  44.269  54.810  1.00  0.00     0.038 A 
HETATM   14  C   UNL     1      28.064  43.954  54.135  1.00  0.00     0.020 A 
BRANCH  12  15
HETATM   15  O   UNL     1      30.444  45.834  56.238  1.00  0.00    -0.351 OA
BRANCH  15  16
HETATM   16  C   UNL     1      30.171  45.990  57.638  1.00  0.00     0.175 C 
BRANCH  16  17
HETATM   17  C   UNL     1      30.959  44.920  58.389  1.00  0.00     0.026 C 
BRANCH  17  18
HETATM   18  C   UNL     1      31.943  44.197  57.475  1.00  0.00    -0.002 C 
HETATM   19  C   UNL     1      31.512  42.763  57.212  1.00  0.00     0.005 C 
ENDBRANCH  17  18
ENDBRANCH  16  17
ENDBRANCH  15  16
ENDBRANCH  12  15
ENDBRANCH   6   9
ENDBRANCH   3   5
ENDBRANCH   1   3
BRANCH   1  20
HETATM   20  C   UNL     1      25.114  47.001  50.407  1.00  0.00     0.035 A 
HETATM   21  C   UNL     1      23.905  47.495  49.911  1.00  0.00     0.048 A 
HETATM   22  C   UNL     1      23.872  48.648  49.106  1.00  0.00     0.053 A 
HETATM   23  C   UNL     1      25.088  49.280  48.783  1.00  0.00     0.086 A 
HETATM   24  C   UNL     1      26.312  48.774  49.240  1.00  0.00    -0.026 A 
HETATM   25  C   UNL     1      27.612  49.453  48.912  1.00  0.00     0.051 C 
HETATM   26  C   UNL     1      26.307  47.654  50.082  1.00  0.00     0.039 A 
BRANCH  22  27
HETATM   27  C   UNL     1      22.601  49.214  48.665  1.00  0.00     0.183 A 
HETATM   28  O   UNL     1      22.212  50.400  49.231  1.00  0.00    -0.289 OA
HETATM   29  C   UNL     1      21.035  50.691  48.605  1.00  0.00     0.106 A 
HETATM   30  C   UNL     1      20.771  49.672  47.704  1.00  0.00     0.093 A 
HETATM   31  C   UNL     1      20.228  51.803  48.804  1.00  0.00     0.040 A 
HETATM   32  N   UNL     1      21.759  48.721  47.771  1.00  0.00    -0.221 NA
HETATM   33  C   UNL     1      19.622  49.753  46.908  1.00  0.00     0.034 A 
HETATM   34  C   UNL     1      18.785  50.869  47.068  1.00  0.00     0.002 A 
HETATM   35  C   UNL     1      19.081  51.870  48.002  1.00  0.00     0.003 A 
ENDBRANCH  22  27
BRANCH  23  36
HETATM   36  O   UNL     1      25.130  50.426  48.026  1.00  0.00    -0.359 OA
HETATM   37  H   UNL     1      24.625  51.130  48.487  1.00  0.00     0.218 HD
ENDBRANCH  23  36
ENDBRANCH   1  20
TORSDOF 10
ENDMDL
MODEL 2
REMARK VINA RESULT:      -9.8      2.240     11.225
REMARK  10 active torsions:
REMARK  status: ('A' for Active; 'I' for Inactive)
REMARK    1  A    between atoms: C_2  and  C_3 
REMARK    2  A    between atoms: C_3  and  C_4 
REMARK    3  A    between atoms: C_4  and  O_5 
REMARK    4  A    between atoms: O_5  and  C_6 
REMARK    5  A    between atoms: C_9  and  C_10 
REMARK       I    between atoms: C_10  and  N_11 
REMARK    6  A    between atoms: N_11  and  C_12 
REMARK    7  A    between atoms: C_12  and  N_13 
REMARK    8  A    between atoms: N_13  and  C_14 
REMARK    9  A    between atoms: C_16  and  C_17 
REMARK   10  A    between atoms: C_26  and  O_27 
ROOT
HETATM    1  N   UNL     1      24.284  47.616  50.425  1.00  0.00    -0.333 N 
HETATM    2  H   UNL     1      23.759  48.149  51.112  1.00  0.00     0.168 HD
ENDROOT
BRANCH   1   3
HETATM    3  C   UNL     1      24.494  48.300  49.254  1.00  0.00     0.179 C 
HETATM    4  S   UNL     1      25.954  49.099  49.086  1.00  0.00    -0.040 SA
BRANCH   3   5
HETATM    5  N   UNL     1      23.424  48.351  48.387  1.00  0.00    -0.299 N 
HETATM    6  C   UNL     1      22.834  49.542  47.997  1.00  0.00     0.257 C 
HETATM    7  O   UNL     1      23.275  50.227  47.081  1.00  0.00    -0.267 OA
HETATM    8  H   UNL     1      22.768  47.614  48.608  1.00  0.00     0.171 HD
BRANCH   6   9
HETATM    9  C   UNL     1      21.583  49.945  48.717  1.00  0.00     0.032 A 
HETATM   10  C   UNL     1      21.145  51.276  48.789  1.00  0.00     0.020 A 
HETATM   11  C   UNL     1      19.915  51.579  49.379  1.00  0.00     0.038 A 
HETATM   12  C   UNL     1      19.103  50.560  49.869  1.00  0.00     0.068 A 
HETATM   13  C   UNL     1      19.546  49.239  49.844  1.00  0.00     0.038 A 
HETATM   14  C   UNL     1      20.780  48.932  49.264  1.00  0.00     0.020 A 
BRANCH  12  15
HETATM   15  O   UNL     1      17.891  50.942  50.375  1.00  0.00    -0.351 OA
BRANCH  15  16
HETATM   16  C   UNL     1      17.439  52.204  49.864  1.00  0.00     0.175 C 
BRANCH  16  17
HETATM   17  C   UNL     1      15.948  52.078  49.560  1.00  0.00     0.026 C 
BRANCH  17  18
HETATM   18  C   UNL     1      15.676  51.009  48.506  1.00  0.00    -0.002 C 
HETATM   19  C   UNL     1      16.378  51.327  47.195  1.00  0.00     0.005 C 
ENDBRANCH  17  18
ENDBRANCH  16  17
ENDBRANCH  15  16
ENDBRANCH  12  15
ENDBRANCH   6   9
ENDBRANCH   3   5
ENDBRANCH   1   3
BRANCH   1  20
HETATM   20  C   UNL     1      24.822  46.396  50.881  1.00  0.00     0.035 A 
HETATM   21  C   UNL     1      25.862  46.316  51.809  1.00  0.00     0.048 A 
HETATM   22  C   UNL     1      26.277  45.074  52.323  1.00  0.00     0.053 A 
HETATM   23  C   UNL     1      25.642  43.907  51.860  1.00  0.00     0.086 A 
HETATM   24  C   UNL     1      24.623  43.967  50.900  1.00  0.00    -0.026 A 
HETATM   25  C   UNL     1      23.930  42.726  50.414  1.00  0.00     0.051 C 
HETATM   26  C   UNL     1      24.198  45.223  50.446  1.00  0.00     0.039 A 
BRANCH  22  27
HETATM   27  C   UNL     1      27.302  45.001  53.360  1.00  0.00     0.183 A 
HETATM   28  O   UNL     1      28.175  43.946  53.307  1.00  0.00    -0.289 OA
HETATM   29  C   UNL     1      29.020  44.167  54.355  1.00  0.00     0.106 A 
HETATM   30  C   UNL     1      28.616  45.333  54.987  1.00  0.00     0.093 A 
HETATM   31  C   UNL     1      30.104  43.391  54.740  1.00  0.00     0.040 A 
HETATM   32  N   UNL     1      27.503  45.840  54.363  1.00  0.00    -0.221 NA
HETATM   33  C   UNL     1      29.349  45.797  56.086  1.00  0.00     0.034 A 
HETATM   34  C   UNL     1      30.462  45.048  56.501  1.00  0.00     0.002 A 
HETATM   35  C   UNL     1      30.827  43.866  55.843  1.00  0.00     0.003 A 
ENDBRANCH  22  27
BRANCH  23  36
HETATM   36  O   UNL     1      25.975  42.663  52.339  1.00  0.00    -0.359 OA
HETATM   37  H   UNL     1      25.287  42.373  52.976  1.00  0.00     0.218 HD
ENDBRANCH  23  36
ENDBRANCH   1  20
TORSDOF 10
ENDMDL
MODEL 3
REMARK VINA RESULT:      -9.6      2.182     10.865
REMARK  10 active torsions:
REMARK  status: ('A' for Active; 'I' for Inactive)
REMARK    1  A    between atoms: C_2  and  C_3 
REMARK    2  A    between atoms: C_3  and  C_4 
REMARK    3  A    between atoms: C_4  and  O_5 
REMARK    4  A    between atoms: O_5  and  C_6 
REMARK    5  A    between atoms: C_9  and  C_10 
REMARK       I    between atoms: C_10  and  N_11 
REMARK    6  A    between atoms: N_11  and  C_12 
REMARK    7  A    between atoms: C_12  and  N_13 
REMARK    8  A    between atoms: N_13  and  C_14 
REMARK    9  A    between atoms: C_16  and  C_17 
REMARK   10  A    between atoms: C_26  and  O_27 
ROOT
HETATM    1  N   UNL     1      25.097  44.779  51.437  1.00  0.00    -0.333 N 
HETATM    2  H   UNL     1      24.662  45.231  52.236  1.00  0.00     0.168 HD
ENDROOT
BRANCH   1   3
HETATM    3  C   UNL     1      24.495  45.092  50.244  1.00  0.00     0.179 C 
HETATM    4  S   UNL     1      23.211  44.135  49.760  1.00  0.00    -0.040 SA
BRANCH   3   5
HETATM    5  N   UNL     1      25.095  46.096  49.515  1.00  0.00    -0.299 N 
HETATM    6  C   UNL     1      25.095  47.419  49.925  1.00  0.00     0.257 C 
HETATM    7  O   UNL     1      25.916  47.862  50.720  1.00  0.00    -0.267 OA
HETATM    8  H   UNL     1      24.905  45.965  48.530  1.00  0.00     0.171 HD
BRANCH   6   9
HETATM    9  C   UNL     1      24.067  48.318  49.310  1.00  0.00     0.032 A 
HETATM   10  C   UNL     1      24.386  49.568  48.757  1.00  0.00     0.020 A 
HETATM   11  C   UNL     1      23.405  50.315  48.100  1.00  0.00     0.038 A 
HETATM   12  C   UNL     1      22.115  49.811  47.959  1.00  0.00     0.068 A 
HETATM   13  C   UNL     1      21.774  48.592  48.543  1.00  0.00     0.038 A 
HETATM   14  C   UNL     1      22.749  47.845  49.210  1.00  0.00     0.020 A 
BRANCH  12  15
HETATM   15  O   UNL     1      21.237  50.582  47.250  1.00  0.00    -0.351 OA
BRANCH  15  16
HETATM   16  C   UNL     1      19.913  50.583  47.803  1.00  0.00     0.175 C 
BRANCH  16  17
HETATM   17  C   UNL     1      19.680  51.944  48.454  1.00  0.00     0.026 C 
BRANCH  17  18
HETATM   18  C   UNL     1      19.092  51.805  49.855  1.00  0.00    -0.002 C 
HETATM   19  C   UNL     1      18.981  50.347  50.271  1.00  0.00     0.005 C 
ENDBRANCH  17  18
ENDBRANCH  16  17
ENDBRANCH  15  16
ENDBRANCH  12  15
ENDBRANCH   6   9
ENDBRANCH   3   5
ENDBRANCH   1   3
BRANCH   1  20
HETATM   20  C   UNL     1      26.299  44.096  51.705  1.00  0.00     0.035 A 
HETATM   21  C   UNL     1      27.133  44.403  52.782  1.00  0.00     0.048 A 
HETATM   22  C   UNL     1      28.258  43.610  53.074  1.00  0.00     0.053 A 
HETATM   23  C   UNL     1      28.545  42.515  52.238  1.00  0.00     0.086 A 
HETATM   24  C   UNL     1      27.741  42.216  51.130  1.00  0.00    -0.026 A 
HETATM   25  C   UNL     1      28.033  41.039  50.244  1.00  0.00     0.051 C 
HETATM   26  C   UNL     1      26.599  42.995  50.897  1.00  0.00     0.039 A 
BRANCH  22  27
HETATM   27  C   UNL     1      29.075  43.879  54.253  1.00  0.00     0.183 A 
HETATM   28  O   UNL     1      28.761  44.988  54.994  1.00  0.00    -0.289 OA
HETATM   29  C   UNL     1      29.649  44.953  56.029  1.00  0.00     0.106 A 
HETATM   30  C   UNL     1      30.452  43.836  55.860  1.00  0.00     0.093 A 
HETATM   31  C   UNL     1      29.751  45.851  57.082  1.00  0.00     0.040 A 
HETATM   32  N   UNL     1      30.098  43.175  54.710  1.00  0.00    -0.221 NA
HETATM   33  C   UNL     1      31.434  43.557  56.819  1.00  0.00     0.034 A 
HETATM   34  C   UNL     1      31.563  44.434  57.908  1.00  0.00     0.002 A 
HETATM   35  C   UNL     1      30.739  45.561  58.032  1.00  0.00     0.003 A 
ENDBRANCH  22  27
BRANCH  23  36
HETATM   36  O   UNL     1      29.609  41.679  52.479  1.00  0.00    -0.359 OA
HETATM   37  H   UNL     1      30.274  42.159  53.017  1.00  0.00     0.218 HD
ENDBRANCH  23  36
ENDBRANCH   1  20
TORSDOF 10
ENDMDL
MODEL 4
REMARK VINA RESULT:      -9.2      2.462     10.959
REMARK  10 active torsions:
REMARK  status: ('A' for Active; 'I' for Inactive)
REMARK    1  A    between atoms: C_2  and  C_3 
REMARK    2  A    between atoms: C_3  and  C_4 
REMARK    3  A    between atoms: C_4  and  O_5 
REMARK    4  A    between atoms: O_5  and  C_6 
REMARK    5  A    between atoms: C_9  and  C_10 
REMARK       I    between atoms: C_10  and  N_11 
REMARK    6  A    between atoms: N_11  and  C_12 
REMARK    7  A    between atoms: C_12  and  N_13 
REMARK    8  A    between atoms: N_13  and  C_14 
REMARK    9  A    between atoms: C_16  and  C_17 
REMARK   10  A    between atoms: C_26  and  O_27 
ROOT
HETATM    1  N   UNL     1      26.252  44.863  49.379  1.00  0.00    -0.333 N 
HETATM    2  H   UNL     1      26.108  44.600  48.409  1.00  0.00     0.168 HD
ENDROOT
BRANCH   1   3
HETATM    3  C   UNL     1      25.701  46.080  49.697  1.00  0.00     0.179 C 
HETATM    4  S   UNL     1      26.724  47.403  49.711  1.00  0.00    -0.040 SA
BRANCH   3   5
HETATM    5  N   UNL     1      24.379  46.057  50.087  1.00  0.00    -0.299 N 
HETATM    6  C   UNL     1      23.332  46.106  49.180  1.00  0.00     0.257 C 
HETATM    7  O   UNL     1      22.910  45.108  48.606  1.00  0.00    -0.267 OA
HETATM    8  H   UNL     1      24.251  46.640  50.902  1.00  0.00     0.171 HD
BRANCH   6   9
HETATM    9  C   UNL     1      22.689  47.441  48.962  1.00  0.00     0.032 A 
HETATM   10  C   UNL     1      23.349  48.653  49.220  1.00  0.00     0.020 A 
HETATM   11  C   UNL     1      22.739  49.867  48.895  1.00  0.00     0.038 A 
HETATM   12  C   UNL     1      21.489  49.883  48.283  1.00  0.00     0.068 A 
HETATM   13  C   UNL     1      20.804  48.689  48.062  1.00  0.00     0.038 A 
HETATM   14  C   UNL     1      21.405  47.472  48.395  1.00  0.00     0.020 A 
BRANCH  12  15
HETATM   15  O   UNL     1      20.995  51.112  47.945  1.00  0.00    -0.351 OA
BRANCH  15  16
HETATM   16  C   UNL     1      19.567  51.130  47.812  1.00  0.00     0.175 C 
BRANCH  16  17
HETATM   17  C   UNL     1      19.054  52.417  48.453  1.00  0.00     0.026 C 
BRANCH  17  18
HETATM   18  C   UNL     1      18.159  52.130  49.654  1.00  0.00    -0.002 C 
HETATM   19  C   UNL     1      18.230  50.669  50.067  1.00  0.00     0.005 C 
ENDBRANCH  17  18
ENDBRANCH  16  17
ENDBRANCH  15  16
ENDBRANCH  12  15
ENDBRANCH   6   9
ENDBRANCH   3   5
ENDBRANCH   1   3
BRANCH   1  20
HETATM   20  C   UNL     1      26.808  43.867  50.205  1.00  0.00     0.035 A 
HETATM   21  C   UNL     1      27.628  44.147  51.300  1.00  0.00     0.048 A 
HETATM   22  C   UNL     1      28.055  43.122  52.164  1.00  0.00     0.053 A 
HETATM   23  C   UNL     1      27.665  41.799  51.884  1.00  0.00     0.086 A 
HETATM   24  C   UNL     1      26.876  41.496  50.767  1.00  0.00    -0.026 A 
HETATM   25  C   UNL     1      26.442  40.088  50.472  1.00  0.00     0.051 C 
HETATM   26  C   UNL     1      26.424  42.546  49.956  1.00  0.00     0.039 A 
BRANCH  22  27
HETATM   27  C   UNL     1      28.835  43.430  53.358  1.00  0.00     0.183 A 
HETATM   28  O   UNL     1      28.547  44.600  54.012  1.00  0.00    -0.289 OA
HETATM   29  C   UNL     1      29.390  44.591  55.085  1.00  0.00     0.106 A 
HETATM   30  C   UNL     1      30.142  43.429  55.024  1.00  0.00     0.093 A 
HETATM   31  C   UNL     1      29.493  45.552  56.082  1.00  0.00     0.040 A 
HETATM   32  N   UNL     1      29.802  42.710  53.904  1.00  0.00    -0.221 NA
HETATM   33  C   UNL     1      31.069  43.169  56.041  1.00  0.00     0.034 A 
HETATM   34  C   UNL     1      31.196  44.109  57.076  1.00  0.00     0.002 A 
HETATM   35  C   UNL     1      30.426  45.279  57.091  1.00  0.00     0.003 A 
ENDBRANCH  22  27
BRANCH  23  36
HETATM   36  O   UNL     1      28.020  40.751  52.699  1.00  0.00    -0.359 OA
HETATM   37  H   UNL     1      27.301  40.595  53.347  1.00  0.00     0.218 HD
ENDBRANCH  23  36
ENDBRANCH   1  20
TORSDOF 10
ENDMDL
MODEL 5
REMARK VINA RESULT:      -8.9      2.609     10.452
REMARK  10 active torsions:
REMARK  status: ('A' for Active; 'I' for Inactive)
REMARK    1  A    between atoms: C_2  and  C_3 
REMARK    2  A    between atoms: C_3  and  C_4 
REMARK    3  A    between atoms: C_4  and  O_5 
REMARK    4  A    between atoms: O_5  and  C_6 
REMARK    5  A    between atoms: C_9  and  C_10 
REMARK       I    between atoms: C_10  and  N_11 
REMARK    6  A    between atoms: N_11  and  C_12 
REMARK    7  A    between atoms: C_12  and  N_13 
REMARK    8  A    between atoms: N_13  and  C_14 
REMARK    9  A    between atoms: C_16  and  C_17 
REMARK   10  A    between atoms: C_26  and  O_27 
ROOT
HETATM    1  N   UNL     1      22.947  43.961  49.761  1.00  0.00    -0.333 N 
HETATM    2  H   UNL     1      22.963  43.042  50.195  1.00  0.00     0.168 HD
ENDROOT
BRANCH   1   3
HETATM    3  C   UNL     1      21.908  44.125  48.880  1.00  0.00     0.179 C 
HETATM    4  S   UNL     1      22.120  43.536  47.329  1.00  0.00    -0.040 SA
BRANCH   3   5
HETATM    5  N   UNL     1      20.840  44.866  49.341  1.00  0.00    -0.299 N 
HETATM    6  C   UNL     1      19.845  45.342  48.503  1.00  0.00     0.257 C 
HETATM    7  O   UNL     1      18.887  44.656  48.162  1.00  0.00    -0.267 OA
HETATM    8  H   UNL     1      21.158  45.533  50.031  1.00  0.00     0.171 HD
BRANCH   6   9
HETATM    9  C   UNL     1      19.957  46.769  48.062  1.00  0.00     0.032 A 
HETATM   10  C   UNL     1      19.007  47.382  47.231  1.00  0.00     0.020 A 
HETATM   11  C   UNL     1      19.105  48.745  46.941  1.00  0.00     0.038 A 
HETATM   12  C   UNL     1      20.124  49.510  47.501  1.00  0.00     0.068 A 
HETATM   13  C   UNL     1      21.099  48.904  48.291  1.00  0.00     0.038 A 
HETATM   14  C   UNL     1      21.011  47.539  48.576  1.00  0.00     0.020 A 
BRANCH  12  15
HETATM   15  O   UNL     1      20.108  50.847  47.211  1.00  0.00    -0.351 OA
BRANCH  15  16
HETATM   16  C   UNL     1      20.178  51.678  48.378  1.00  0.00     0.175 C 
BRANCH  16  17
HETATM   17  C   UNL     1      18.908  52.524  48.426  1.00  0.00     0.026 C 
BRANCH  17  18
HETATM   18  C   UNL     1      18.129  52.296  49.718  1.00  0.00    -0.002 C 
HETATM   19  C   UNL     1      17.867  50.818  49.958  1.00  0.00     0.005 C 
ENDBRANCH  17  18
ENDBRANCH  16  17
ENDBRANCH  15  16
ENDBRANCH  12  15
ENDBRANCH   6   9
ENDBRANCH   3   5
ENDBRANCH   1   3
BRANCH   1  20
HETATM   20  C   UNL     1      23.860  44.897  50.284  1.00  0.00     0.035 A 
HETATM   21  C   UNL     1      24.800  44.586  51.269  1.00  0.00     0.048 A 
HETATM   22  C   UNL     1      25.769  45.526  51.666  1.00  0.00     0.053 A 
HETATM   23  C   UNL     1      25.754  46.801  51.071  1.00  0.00     0.086 A 
HETATM   24  C   UNL     1      24.793  47.143  50.110  1.00  0.00    -0.026 A 
HETATM   25  C   UNL     1      24.782  48.497  49.460  1.00  0.00     0.051 C 
HETATM   26  C   UNL     1      23.874  46.167  49.699  1.00  0.00     0.039 A 
BRANCH  22  27
HETATM   27  C   UNL     1      26.806  45.166  52.628  1.00  0.00     0.183 A 
HETATM   28  O   UNL     1      27.606  44.097  52.319  1.00  0.00    -0.289 OA
HETATM   29  C   UNL     1      28.483  44.033  53.362  1.00  0.00     0.106 A 
HETATM   30  C   UNL     1      28.169  45.055  54.244  1.00  0.00     0.093 A 
HETATM   31  C   UNL     1      29.521  43.127  53.534  1.00  0.00     0.040 A 
HETATM   32  N   UNL     1      27.080  45.753  53.782  1.00  0.00    -0.221 NA
HETATM   33  C   UNL     1      28.952  45.222  55.393  1.00  0.00     0.034 A 
HETATM   34  C   UNL     1      30.020  44.335  55.599  1.00  0.00     0.002 A 
HETATM   35  C   UNL     1      30.294  43.305  54.689  1.00  0.00     0.003 A 
ENDBRANCH  22  27
BRANCH  23  36
HETATM   36  O   UNL     1      26.687  47.759  51.388  1.00  0.00    -0.359 OA
HETATM   37  H   UNL     1      27.515  47.315  51.669  1.00  0.00     0.218 HD
ENDBRANCH  23  36
ENDBRANCH   1  20
TORSDOF 10
ENDMDL
MODEL 6
REMARK VINA RESULT:      -8.8      3.026     10.391
REMARK  10 active torsions:
REMARK  status: ('A' for Active; 'I' for Inactive)
REMARK    1  A    between atoms: C_2  and  C_3 
REMARK    2  A    between atoms: C_3  and  C_4 
REMARK    3  A    between atoms: C_4  and  O_5 
REMARK    4  A    between atoms: O_5  and  C_6 
REMARK    5  A    between atoms: C_9  and  C_10 
REMARK       I    between atoms: C_10  and  N_11 
REMARK    6  A    between atoms: N_11  and  C_12 
REMARK    7  A    between atoms: C_12  and  N_13 
REMARK    8  A    between atoms: N_13  and  C_14 
REMARK    9  A    between atoms: C_16  and  C_17 
REMARK   10  A    between atoms: C_26  and  O_27 
ROOT
HETATM    1  N   UNL     1      25.851  43.196  48.782  1.00  0.00    -0.333 N 
HETATM    2  H   UNL     1      26.225  43.866  48.116  1.00  0.00     0.168 HD
ENDROOT
BRANCH   1   3
HETATM    3  C   UNL     1      24.546  42.853  48.530  1.00  0.00     0.179 C 
HETATM    4  S   UNL     1      24.250  41.903  47.186  1.00  0.00    -0.040 SA
BRANCH   3   5
HETATM    5  N   UNL     1      23.604  43.431  49.354  1.00  0.00    -0.299 N 
HETATM    6  C   UNL     1      22.559  44.200  48.869  1.00  0.00     0.257 C 
HETATM    7  O   UNL     1      21.515  43.707  48.454  1.00  0.00    -0.267 OA
HETATM    8  H   UNL     1      24.053  43.809  50.177  1.00  0.00     0.171 HD
BRANCH   6   9
HETATM    9  C   UNL     1      22.733  45.687  48.919  1.00  0.00     0.032 A 
HETATM   10  C   UNL     1      23.823  46.301  49.556  1.00  0.00     0.020 A 
HETATM   11  C   UNL     1      23.991  47.686  49.476  1.00  0.00     0.038 A 
HETATM   12  C   UNL     1      23.100  48.460  48.739  1.00  0.00     0.068 A 
HETATM   13  C   UNL     1      21.989  47.868  48.141  1.00  0.00     0.038 A 
HETATM   14  C   UNL     1      21.810  46.484  48.225  1.00  0.00     0.020 A 
BRANCH  12  15
HETATM   15  O   UNL     1      23.375  49.798  48.667  1.00  0.00    -0.351 OA
BRANCH  15  16
HETATM   16  C   UNL     1      22.492  50.600  49.463  1.00  0.00     0.175 C 
BRANCH  16  17
HETATM   17  C   UNL     1      21.472  51.241  48.526  1.00  0.00     0.026 C 
BRANCH  17  18
HETATM   18  C   UNL     1      20.115  51.413  49.203  1.00  0.00    -0.002 C 
HETATM   19  C   UNL     1      19.218  52.360  48.422  1.00  0.00     0.005 C 
ENDBRANCH  17  18
ENDBRANCH  16  17
ENDBRANCH  15  16
ENDBRANCH  12  15
ENDBRANCH   6   9
ENDBRANCH   3   5
ENDBRANCH   1   3
BRANCH   1  20
HETATM   20  C   UNL     1      26.786  42.645  49.681  1.00  0.00     0.035 A 
HETATM   21  C   UNL     1      27.251  43.318  50.812  1.00  0.00     0.048 A 
HETATM   22  C   UNL     1      28.088  42.675  51.741  1.00  0.00     0.053 A 
HETATM   23  C   UNL     1      28.474  41.345  51.493  1.00  0.00     0.086 A 
HETATM   24  C   UNL     1      28.049  40.668  50.342  1.00  0.00    -0.026 A 
HETATM   25  C   UNL     1      28.444  39.243  50.079  1.00  0.00     0.051 C 
HETATM   26  C   UNL     1      27.174  41.320  49.462  1.00  0.00     0.039 A 
BRANCH  22  27
HETATM   27  C   UNL     1      28.498  43.351  52.969  1.00  0.00     0.183 A 
HETATM   28  O   UNL     1      29.664  42.933  53.556  1.00  0.00    -0.289 OA
HETATM   29  C   UNL     1      29.800  43.758  54.634  1.00  0.00     0.106 A 
HETATM   30  C   UNL     1      28.718  44.624  54.646  1.00  0.00     0.093 A 
HETATM   31  C   UNL     1      30.832  43.765  55.564  1.00  0.00     0.040 A 
HETATM   32  N   UNL     1      27.878  44.336  53.598  1.00  0.00    -0.221 NA
HETATM   33  C   UNL     1      28.642  45.599  55.648  1.00  0.00     0.034 A 
HETATM   34  C   UNL     1      29.671  45.649  56.602  1.00  0.00     0.002 A 
HETATM   35  C   UNL     1      30.741  44.745  56.561  1.00  0.00     0.003 A 
ENDBRANCH  22  27
BRANCH  23  36
HETATM   36  O   UNL     1      29.266  40.644  52.371  1.00  0.00    -0.359 OA
HETATM   37  H   UNL     1      30.146  40.502  51.961  1.00  0.00     0.218 HD
ENDBRANCH  23  36
ENDBRANCH   1  20
TORSDOF 10
ENDMDL
MODEL 7
REMARK VINA RESULT:      -8.7      3.145     10.139
REMARK  10 active torsions:
REMARK  status: ('A' for Active; 'I' for Inactive)
REMARK    1  A    between atoms: C_2  and  C_3 
REMARK    2  A    between atoms: C_3  and  C_4 
REMARK    3  A    between atoms: C_4  and  O_5 
REMARK    4  A    between atoms: O_5  and  C_6 
REMARK    5  A    between atoms: C_9  and  C_10 
REMARK       I    between atoms: C_10  and  N_11 
REMARK    6  A    between atoms: N_11  and  C_12 
REMARK    7  A    between atoms: C_12  and  N_13 
REMARK    8  A    between atoms: N_13  and  C_14 
REMARK    9  A    between atoms: C_16  and  C_17 
REMARK   10  A    between atoms: C_26  and  O_27 
ROOT
HETATM    1  N   UNL     1      21.537  45.384  46.956  1.00  0.00    -0.333 N 
HETATM    2  H   UNL     1      22.039  45.074  46.129  1.00  0.00     0.168 HD
ENDROOT
BRANCH   1   3
HETATM    3  C   UNL     1      20.392  44.667  47.195  1.00  0.00     0.179 C 
HETATM    4  S   UNL     1      19.973  43.497  46.076  1.00  0.00    -0.040 SA
BRANCH   3   5
HETATM    5  N   UNL     1      19.644  45.073  48.280  1.00  0.00    -0.299 N 
HETATM    6  C   UNL     1      18.516  45.867  48.154  1.00  0.00     0.257 C 
HETATM    7  O   UNL     1      17.410  45.404  47.895  1.00  0.00    -0.267 OA
HETATM    8  H   UNL     1      20.257  45.338  49.040  1.00  0.00     0.171 HD
BRANCH   6   9
HETATM    9  C   UNL     1      18.689  47.334  48.402  1.00  0.00     0.032 A 
HETATM   10  C   UNL     1      19.185  47.845  49.611  1.00  0.00     0.020 A 
HETATM   11  C   UNL     1      19.429  49.214  49.747  1.00  0.00     0.038 A 
HETATM   12  C   UNL     1      19.213  50.075  48.674  1.00  0.00     0.068 A 
HETATM   13  C   UNL     1      18.677  49.587  47.483  1.00  0.00     0.038 A 
HETATM   14  C   UNL     1      18.423  48.219  47.346  1.00  0.00     0.020 A 
BRANCH  12  15
HETATM   15  O   UNL     1      19.535  51.388  48.876  1.00  0.00    -0.351 OA
BRANCH  15  16
HETATM   16  C   UNL     1      18.770  52.001  49.924  1.00  0.00     0.175 C 
BRANCH  16  17
HETATM   17  C   UNL     1      17.567  52.689  49.283  1.00  0.00     0.026 C 
BRANCH  17  18
HETATM   18  C   UNL     1      16.251  52.088  49.766  1.00  0.00    -0.002 C 
HETATM   19  C   UNL     1      15.095  53.059  49.587  1.00  0.00     0.005 C 
ENDBRANCH  17  18
ENDBRANCH  16  17
ENDBRANCH  15  16
ENDBRANCH  12  15
ENDBRANCH   6   9
ENDBRANCH   3   5
ENDBRANCH   1   3
BRANCH   1  20
HETATM   20  C   UNL     1      22.207  46.332  47.754  1.00  0.00     0.035 A 
HETATM   21  C   UNL     1      23.031  45.987  48.828  1.00  0.00     0.048 A 
HETATM   22  C   UNL     1      23.772  46.968  49.513  1.00  0.00     0.053 A 
HETATM   23  C   UNL     1      23.644  48.311  49.114  1.00  0.00     0.086 A 
HETATM   24  C   UNL     1      22.790  48.679  48.065  1.00  0.00    -0.026 A 
HETATM   25  C   UNL     1      22.661  50.109  47.625  1.00  0.00     0.051 C 
HETATM   26  C   UNL     1      22.105  47.673  47.370  1.00  0.00     0.039 A 
BRANCH  22  27
HETATM   27  C   UNL     1      24.703  46.593  50.573  1.00  0.00     0.183 A 
HETATM   28  O   UNL     1      24.842  47.463  51.623  1.00  0.00    -0.289 OA
HETATM   29  C   UNL     1      25.725  46.836  52.453  1.00  0.00     0.106 A 
HETATM   30  C   UNL     1      26.075  45.630  51.866  1.00  0.00     0.093 A 
HETATM   31  C   UNL     1      26.198  47.290  53.676  1.00  0.00     0.040 A 
HETATM   32  N   UNL     1      25.442  45.498  50.655  1.00  0.00    -0.221 NA
HETATM   33  C   UNL     1      26.956  44.778  52.544  1.00  0.00     0.034 A 
HETATM   34  C   UNL     1      27.449  45.193  53.791  1.00  0.00     0.002 A 
HETATM   35  C   UNL     1      27.080  46.428  54.342  1.00  0.00     0.003 A 
ENDBRANCH  22  27
BRANCH  23  36
HETATM   36  O   UNL     1      24.358  49.317  49.718  1.00  0.00    -0.359 OA
HETATM   37  H   UNL     1      25.162  49.499  49.186  1.00  0.00     0.218 HD
ENDBRANCH  23  36
ENDBRANCH   1  20
TORSDOF 10
ENDMDL
MODEL 8
REMARK VINA RESULT:      -8.6      2.462     11.511
REMARK  10 active torsions:
REMARK  status: ('A' for Active; 'I' for Inactive)
REMARK    1  A    between atoms: C_2  and  C_3 
REMARK    2  A    between atoms: C_3  and  C_4 
REMARK    3  A    between atoms: C_4  and  O_5 
REMARK    4  A    between atoms: O_5  and  C_6 
REMARK    5  A    between atoms: C_9  and  C_10 
REMARK       I    between atoms: C_10  and  N_11 
REMARK    6  A    between atoms: N_11  and  C_12 
REMARK    7  A    between atoms: C_12  and  N_13 
REMARK    8  A    between atoms: N_13  and  C_14 
REMARK    9  A    between atoms: C_16  and  C_17 
REMARK   10  A    between atoms: C_26  and  O_27 
ROOT
HETATM    1  N   UNL     1      24.307  47.858  49.201  1.00  0.00    -0.333 N 
HETATM    2  H   UNL     1      25.127  48.353  48.862  1.00  0.00     0.168 HD
ENDROOT
BRANCH   1   3
HETATM    3  C   UNL     1      23.132  48.339  48.682  1.00  0.00     0.179 C 
HETATM    4  S   UNL     1      22.008  47.215  48.161  1.00  0.00    -0.040 SA
BRANCH   3   5
HETATM    5  N   UNL     1      23.054  49.708  48.539  1.00  0.00    -0.299 N 
HETATM    6  C   UNL     1      22.263  50.501  49.355  1.00  0.00     0.257 C 
HETATM    7  O   UNL     1      22.639  50.898  50.452  1.00  0.00    -0.267 OA
HETATM    8  H   UNL     1      23.013  49.949  47.558  1.00  0.00     0.171 HD
BRANCH   6   9
HETATM    9  C   UNL     1      20.926  50.906  48.814  1.00  0.00     0.032 A 
HETATM   10  C   UNL     1      20.508  50.592  47.512  1.00  0.00     0.020 A 
HETATM   11  C   UNL     1      19.209  50.899  47.099  1.00  0.00     0.038 A 
HETATM   12  C   UNL     1      18.312  51.488  47.986  1.00  0.00     0.068 A 
HETATM   13  C   UNL     1      18.728  51.846  49.267  1.00  0.00     0.038 A 
HETATM   14  C   UNL     1      20.030  51.549  49.682  1.00  0.00     0.020 A 
BRANCH  12  15
HETATM   15  O   UNL     1      17.045  51.698  47.516  1.00  0.00    -0.351 OA
BRANCH  15  16
HETATM   16  C   UNL     1      16.029  51.419  48.488  1.00  0.00     0.175 C 
BRANCH  16  17
HETATM   17  C   UNL     1      15.233  52.703  48.714  1.00  0.00     0.026 C 
BRANCH  17  18
HETATM   18  C   UNL     1      15.353  53.195  50.153  1.00  0.00    -0.002 C 
HETATM   19  C   UNL     1      13.994  53.281  50.828  1.00  0.00     0.005 C 
ENDBRANCH  17  18
ENDBRANCH  16  17
ENDBRANCH  15  16
ENDBRANCH  12  15
ENDBRANCH   6   9
ENDBRANCH   3   5
ENDBRANCH   1   3
BRANCH   1  20
HETATM   20  C   UNL     1      24.566  46.703  49.966  1.00  0.00     0.035 A 
HETATM   21  C   UNL     1      25.524  46.653  50.980  1.00  0.00     0.048 A 
HETATM   22  C   UNL     1      25.655  45.512  51.793  1.00  0.00     0.053 A 
HETATM   23  C   UNL     1      24.819  44.408  51.545  1.00  0.00     0.086 A 
HETATM   24  C   UNL     1      23.880  44.427  50.506  1.00  0.00    -0.026 A 
HETATM   25  C   UNL     1      22.974  43.258  50.246  1.00  0.00     0.051 C 
HETATM   26  C   UNL     1      23.739  45.597  49.747  1.00  0.00     0.039 A 
BRANCH  22  27
HETATM   27  C   UNL     1      26.594  45.498  52.911  1.00  0.00     0.183 A 
HETATM   28  O   UNL     1      27.498  44.469  52.957  1.00  0.00    -0.289 OA
HETATM   29  C   UNL     1      28.249  44.743  54.063  1.00  0.00     0.106 A 
HETATM   30  C   UNL     1      27.762  45.911  54.628  1.00  0.00     0.093 A 
HETATM   31  C   UNL     1      29.321  44.011  54.556  1.00  0.00     0.040 A 
HETATM   32  N   UNL     1      26.689  46.368  53.903  1.00  0.00    -0.221 NA
HETATM   33  C   UNL     1      28.391  46.425  55.769  1.00  0.00     0.034 A 
HETATM   34  C   UNL     1      29.487  45.722  56.293  1.00  0.00     0.002 A 
HETATM   35  C   UNL     1      29.938  44.535  55.699  1.00  0.00     0.003 A 
ENDBRANCH  22  27
BRANCH  23  36
HETATM   36  O   UNL     1      24.871  43.272  52.317  1.00  0.00    -0.359 OA
HETATM   37  H   UNL     1      24.730  43.520  53.256  1.00  0.00     0.218 HD
ENDBRANCH  23  36
ENDBRANCH   1  20
TORSDOF 10
ENDMDL
MODEL 9
REMARK VINA RESULT:      -8.6      4.219      9.407
REMARK  10 active torsions:
REMARK  status: ('A' for Active; 'I' for Inactive)
REMARK    1  A    between atoms: C_2  and  C_3 
REMARK    2  A    between atoms: C_3  and  C_4 
REMARK    3  A    between atoms: C_4  and  O_5 
REMARK    4  A    between atoms: O_5  and  C_6 
REMARK    5  A    between atoms: C_9  and  C_10 
REMARK       I    between atoms: C_10  and  N_11 
REMARK    6  A    between atoms: N_11  and  C_12 
REMARK    7  A    between atoms: C_12  and  N_13 
REMARK    8  A    between atoms: N_13  and  C_14 
REMARK    9  A    between atoms: C_16  and  C_17 
REMARK   10  A    between atoms: C_26  and  O_27 
ROOT
HETATM    1  N   UNL     1      26.290  40.638  47.375  1.00  0.00    -0.333 N 
HETATM    2  H   UNL     1      26.776  40.876  46.515  1.00  0.00     0.168 HD
ENDROOT
BRANCH   1   3
HETATM    3  C   UNL     1      24.969  40.319  47.180  1.00  0.00     0.179 C 
HETATM    4  S   UNL     1      24.509  39.874  45.635  1.00  0.00    -0.040 SA
BRANCH   3   5
HETATM    5  N   UNL     1      24.138  40.515  48.262  1.00  0.00    -0.299 N 
HETATM    6  C   UNL     1      23.030  41.345  48.213  1.00  0.00     0.257 C 
HETATM    7  O   UNL     1      21.946  40.971  47.778  1.00  0.00    -0.267 OA
HETATM    8  H   UNL     1      24.688  40.604  49.106  1.00  0.00     0.171 HD
BRANCH   6   9
HETATM    9  C   UNL     1      23.194  42.726  48.769  1.00  0.00     0.032 A 
HETATM   10  C   UNL     1      23.698  42.971  50.055  1.00  0.00     0.020 A 
HETATM   11  C   UNL     1      23.932  44.281  50.480  1.00  0.00     0.038 A 
HETATM   12  C   UNL     1      23.698  45.350  49.618  1.00  0.00     0.068 A 
HETATM   13  C   UNL     1      23.155  45.123  48.355  1.00  0.00     0.038 A 
HETATM   14  C   UNL     1      22.911  43.814  47.929  1.00  0.00     0.020 A 
BRANCH  12  15
HETATM   15  O   UNL     1      24.011  46.592  50.096  1.00  0.00    -0.351 OA
BRANCH  15  16
HETATM   16  C   UNL     1      25.028  46.568  51.107  1.00  0.00     0.175 C 
BRANCH  16  17
HETATM   17  C   UNL     1      26.352  46.944  50.448  1.00  0.00     0.026 C 
BRANCH  17  18
HETATM   18  C   UNL     1      26.213  48.182  49.567  1.00  0.00    -0.002 C 
HETATM   19  C   UNL     1      27.570  48.740  49.170  1.00  0.00     0.005 C 
ENDBRANCH  17  18
ENDBRANCH  16  17
ENDBRANCH  15  16
ENDBRANCH  12  15
ENDBRANCH   6   9
ENDBRANCH   3   5
ENDBRANCH   1   3
BRANCH   1  20
HETATM   20  C   UNL     1      27.103  40.514  48.519  1.00  0.00     0.035 A 
HETATM   21  C   UNL     1      27.169  41.483  49.522  1.00  0.00     0.048 A 
HETATM   22  C   UNL     1      27.901  41.253  50.701  1.00  0.00     0.053 A 
HETATM   23  C   UNL     1      28.593  40.035  50.838  1.00  0.00     0.086 A 
HETATM   24  C   UNL     1      28.569  39.069  49.824  1.00  0.00    -0.026 A 
HETATM   25  C   UNL     1      29.292  37.760  49.971  1.00  0.00     0.051 C 
HETATM   26  C   UNL     1      27.789  39.307  48.684  1.00  0.00     0.039 A 
BRANCH  22  27
HETATM   27  C   UNL     1      27.894  42.230  51.786  1.00  0.00     0.183 A 
HETATM   28  O   UNL     1      29.035  42.344  52.536  1.00  0.00    -0.289 OA
HETATM   29  C   UNL     1      28.745  43.340  53.423  1.00  0.00     0.106 A 
HETATM   30  C   UNL     1      27.453  43.771  53.169  1.00  0.00     0.093 A 
HETATM   31  C   UNL     1      29.576  43.859  54.406  1.00  0.00     0.040 A 
HETATM   32  N   UNL     1      26.908  43.037  52.144  1.00  0.00    -0.221 NA
HETATM   33  C   UNL     1      26.926  44.819  53.934  1.00  0.00     0.034 A 
HETATM   34  C   UNL     1      27.738  45.382  54.932  1.00  0.00     0.002 A 
HETATM   35  C   UNL     1      29.036  44.906  55.165  1.00  0.00     0.003 A 
ENDBRANCH  22  27
BRANCH  23  36
HETATM   36  O   UNL     1      29.304  39.730  51.973  1.00  0.00    -0.359 OA
HETATM   37  H   UNL     1      30.152  39.311  51.714  1.00  0.00     0.218 HD
ENDBRANCH  23  36
ENDBRANCH   1  20
TORSDOF 10
ENDMDL
MODEL 10
REMARK VINA RESULT:      -8.5      3.520     10.947
REMARK  10 active torsions:
REMARK  status: ('A' for Active; 'I' for Inactive)
REMARK    1  A    between atoms: C_2  and  C_3 
REMARK    2  A    between atoms: C_3  and  C_4 
REMARK    3  A    between atoms: C_4  and  O_5 
REMARK    4  A    between atoms: O_5  and  C_6 
REMARK    5  A    between atoms: C_9  and  C_10 
REMARK       I    between atoms: C_10  and  N_11 
REMARK    6  A    between atoms: N_11  and  C_12 
REMARK    7  A    between atoms: C_12  and  N_13 
REMARK    8  A    between atoms: N_13  and  C_14 
REMARK    9  A    between atoms: C_16  and  C_17 
REMARK   10  A    between atoms: C_26  and  O_27 
ROOT
HETATM    1  N   UNL     1      24.284  44.977  51.269  1.00  0.00    -0.333 N 
HETATM    2  H   UNL     1      23.675  45.461  51.923  1.00  0.00     0.168 HD
ENDROOT
BRANCH   1   3
HETATM    3  C   UNL     1      23.938  45.178  49.957  1.00  0.00     0.179 C 
HETATM    4  S   UNL     1      22.860  44.097  49.274  1.00  0.00    -0.040 SA
BRANCH   3   5
HETATM    5  N   UNL     1      24.612  46.190  49.306  1.00  0.00    -0.299 N 
HETATM    6  C   UNL     1      24.647  47.491  49.782  1.00  0.00     0.257 C 
HETATM    7  O   UNL     1      25.447  47.859  50.635  1.00  0.00    -0.267 OA
HETATM    8  H   UNL     1      24.463  46.115  48.309  1.00  0.00     0.171 HD
BRANCH   6   9
HETATM    9  C   UNL     1      23.687  48.462  49.168  1.00  0.00     0.032 A 
HETATM   10  C   UNL     1      22.299  48.256  49.162  1.00  0.00     0.020 A 
HETATM   11  C   UNL     1      21.444  49.247  48.672  1.00  0.00     0.038 A 
HETATM   12  C   UNL     1      21.961  50.457  48.219  1.00  0.00     0.068 A 
HETATM   13  C   UNL     1      23.339  50.657  48.176  1.00  0.00     0.038 A 
HETATM   14  C   UNL     1      24.199  49.664  48.656  1.00  0.00     0.020 A 
BRANCH  12  15
HETATM   15  O   UNL     1      21.048  51.392  47.814  1.00  0.00    -0.351 OA
BRANCH  15  16
HETATM   16  C   UNL     1      19.705  51.075  48.205  1.00  0.00     0.175 C 
BRANCH  16  17
HETATM   17  C   UNL     1      19.022  52.375  48.624  1.00  0.00     0.026 C 
BRANCH  17  18
HETATM   18  C   UNL     1      18.213  52.199  49.905  1.00  0.00    -0.002 C 
HETATM   19  C   UNL     1      16.734  52.006  49.609  1.00  0.00     0.005 C 
ENDBRANCH  17  18
ENDBRANCH  16  17
ENDBRANCH  15  16
ENDBRANCH  12  15
ENDBRANCH   6   9
ENDBRANCH   3   5
ENDBRANCH   1   3
BRANCH   1  20
HETATM   20  C   UNL     1      25.425  44.373  51.833  1.00  0.00     0.035 A 
HETATM   21  C   UNL     1      25.969  43.175  51.364  1.00  0.00     0.048 A 
HETATM   22  C   UNL     1      27.180  42.680  51.883  1.00  0.00     0.053 A 
HETATM   23  C   UNL     1      27.819  43.402  52.908  1.00  0.00     0.086 A 
HETATM   24  C   UNL     1      27.266  44.585  53.416  1.00  0.00    -0.026 A 
HETATM   25  C   UNL     1      27.952  45.369  54.499  1.00  0.00     0.051 C 
HETATM   26  C   UNL     1      26.086  45.078  52.843  1.00  0.00     0.039 A 
BRANCH  22  27
HETATM   27  C   UNL     1      27.792  41.477  51.328  1.00  0.00     0.183 A 
HETATM   28  O   UNL     1      27.595  41.230  49.995  1.00  0.00    -0.289 OA
HETATM   29  C   UNL     1      28.305  40.088  49.765  1.00  0.00     0.106 A 
HETATM   30  C   UNL     1      28.888  39.703  50.962  1.00  0.00     0.093 A 
HETATM   31  C   UNL     1      28.448  39.413  48.560  1.00  0.00     0.040 A 
HETATM   32  N   UNL     1      28.531  40.578  51.958  1.00  0.00    -0.221 NA
HETATM   33  C   UNL     1      29.702  38.564  50.983  1.00  0.00     0.034 A 
HETATM   34  C   UNL     1      29.884  37.859  49.782  1.00  0.00     0.002 A 
HETATM   35  C   UNL     1      29.263  38.275  48.597  1.00  0.00     0.003 A 
ENDBRANCH  22  27
BRANCH  23  36
HETATM   36  O   UNL     1      29.018  42.996  53.441  1.00  0.00    -0.359 OA
HETATM   37  H   UNL     1      28.882  42.152  53.923  1.00  0.00     0.218 HD
ENDBRANCH  23  36
ENDBRANCH   1  20
TORSDOF 10
ENDMDL
