MODEL 1
REMARK VINA RESULT:      -9.8      0.000      0.000
REMARK  6 active torsions:
REMARK  status: ('A' for Active; 'I' for Inactive)
REMARK    1  A    between atoms: C_4  and  N_5 
REMARK    2  A    between atoms: C_6  and  S_7 
REMARK    3  A    between atoms: S_7  and  C_8 
REMARK    4  A    between atoms: C_8  and  C_9 
REMARK       I    between atoms: C_9  and  N_10 
REMARK    5  A    between atoms: N_10  and  C_11 
REMARK    6  A    between atoms: C_24  and  C_25 
ROOT
HETATM    1  N   UNL     1      24.704  45.657  50.371  1.00  0.00    -0.271 N 
HETATM    2  C   UNL     1      23.759  44.845  49.758  1.00  0.00     0.197 A 
HETATM    3  N   UNL     1      23.397  43.875  50.564  1.00  0.00    -0.122 NA
HETATM    4  N   UNL     1      24.088  44.016  51.729  1.00  0.00    -0.128 NA
HETATM    5  C   UNL     1      24.900  45.053  51.618  1.00  0.00     0.169 A 
ENDROOT
BRANCH   2   6
HETATM    6  S   UNL     1      22.995  45.139  48.225  1.00  0.00    -0.080 SA
BRANCH   6   7
HETATM    7  C   UNL     1      21.255  44.853  48.676  1.00  0.00     0.185 C 
BRANCH   7   8
HETATM    8  C   UNL     1      20.426  46.105  48.438  1.00  0.00     0.231 C 
HETATM    9  N   UNL     1      20.892  47.206  49.143  1.00  0.00    -0.326 N 
HETATM   10  H   UNL     1      21.613  47.018  49.831  1.00  0.00     0.169 HD
HETATM   11  O   UNL     1      19.484  46.097  47.651  1.00  0.00    -0.272 OA
BRANCH   9  12
HETATM   12  C   UNL     1      20.431  48.537  49.063  1.00  0.00     0.037 A 
HETATM   13  C   UNL     1      19.268  48.993  49.695  1.00  0.00     0.061 A 
HETATM   14  C   UNL     1      18.928  50.314  49.508  1.00  0.00     0.065 A 
HETATM   15  C   UNL     1      19.692  51.181  48.732  1.00  0.00     0.063 A 
HETATM   16  N   UNL     1      17.838  51.026  49.998  1.00  0.00    -0.306 N 
HETATM   17  N   UNL     1      19.075  52.426  48.746  1.00  0.00    -0.307 N 
HETATM   18  C   UNL     1      20.838  50.773  48.100  1.00  0.00     0.034 A 
HETATM   19  C   UNL     1      17.915  52.346  49.532  1.00  0.00     0.325 A 
HETATM   20  H   UNL     1      19.376  53.266  48.280  1.00  0.00     0.170 HD
HETATM   21  O   UNL     1      17.129  53.248  49.759  1.00  0.00    -0.247 OA
HETATM   22  C   UNL     1      21.204  49.429  48.270  1.00  0.00     0.032 A 
HETATM   23  H   UNL     1      17.100  50.679  50.590  1.00  0.00     0.170 HD
ENDBRANCH   9  12
ENDBRANCH   7   8
ENDBRANCH   6   7
ENDBRANCH   2   6
BRANCH   1  24
HETATM   24  C   UNL     1      25.317  46.846  49.882  1.00  0.00     0.043 A 
HETATM   25  C   UNL     1      26.707  46.896  49.706  1.00  0.00     0.030 A 
HETATM   26  C   UNL     1      27.310  48.051  49.204  1.00  0.00     0.002 A 
HETATM   27  C   UNL     1      26.534  49.160  48.876  1.00  0.00     0.000 A 
HETATM   28  C   UNL     1      25.152  49.117  49.049  1.00  0.00     0.002 A 
HETATM   29  C   UNL     1      24.541  47.965  49.551  1.00  0.00     0.030 A 
ENDBRANCH   1  24
BRANCH   5  30
HETATM   30  C   UNL     1      25.889  45.407  52.641  1.00  0.00     0.012 A 
HETATM   31  C   UNL     1      26.959  44.558  52.960  1.00  0.00     0.017 A 
HETATM   32  C   UNL     1      27.875  44.914  53.954  1.00  0.00     0.025 A 
HETATM   33  C   UNL     1      27.719  46.114  54.644  1.00  0.00     0.034 A 
HETATM   34 CL   UNL     1      28.847  46.552  55.866  1.00  0.00    -0.084 Cl
HETATM   35  C   UNL     1      26.649  46.958  54.355  1.00  0.00     0.025 A 
HETATM   36  C   UNL     1      25.734  46.602  53.361  1.00  0.00     0.017 A 
ENDBRANCH   5  30
TORSDOF 6
ENDMDL
MODEL 2
REMARK VINA RESULT:      -9.2      2.547      3.712
REMARK  6 active torsions:
REMARK  status: ('A' for Active; 'I' for Inactive)
REMARK    1  A    between atoms: C_4  and  N_5 
REMARK    2  A    between atoms: C_6  and  S_7 
REMARK    3  A    between atoms: S_7  and  C_8 
REMARK    4  A    between atoms: C_8  and  C_9 
REMARK       I    between atoms: C_9  and  N_10 
REMARK    5  A    between atoms: N_10  and  C_11 
REMARK    6  A    between atoms: C_24  and  C_25 
ROOT
HETATM    1  N   UNL     1      26.500  42.974  50.612  1.00  0.00    -0.271 N 
HETATM    2  C   UNL     1      26.021  42.022  49.722  1.00  0.00     0.197 A 
HETATM    3  N   UNL     1      26.377  40.818  50.105  1.00  0.00    -0.122 NA
HETATM    4  N   UNL     1      27.099  40.939  51.254  1.00  0.00    -0.128 NA
HETATM    5  C   UNL     1      27.213  42.222  51.551  1.00  0.00     0.169 A 
ENDROOT
BRANCH   2   6
HETATM    6  S   UNL     1      24.943  42.313  48.391  1.00  0.00    -0.080 SA
BRANCH   6   7
HETATM    7  C   UNL     1      23.341  42.057  49.217  1.00  0.00     0.185 C 
BRANCH   7   8
HETATM    8  C   UNL     1      22.727  43.387  49.622  1.00  0.00     0.231 C 
HETATM    9  N   UNL     1      22.605  44.274  48.562  1.00  0.00    -0.326 N 
HETATM   10  H   UNL     1      23.065  44.000  47.701  1.00  0.00     0.169 HD
HETATM   11  O   UNL     1      22.348  43.582  50.774  1.00  0.00    -0.272 OA
BRANCH   9  12
HETATM   12  C   UNL     1      21.978  45.538  48.565  1.00  0.00     0.037 A 
HETATM   13  C   UNL     1      22.679  46.748  48.636  1.00  0.00     0.061 A 
HETATM   14  C   UNL     1      21.932  47.906  48.654  1.00  0.00     0.065 A 
HETATM   15  C   UNL     1      20.542  47.900  48.602  1.00  0.00     0.063 A 
HETATM   16  N   UNL     1      22.352  49.230  48.729  1.00  0.00    -0.306 N 
HETATM   17  N   UNL     1      20.105  49.219  48.643  1.00  0.00    -0.307 N 
HETATM   18  C   UNL     1      19.821  46.736  48.529  1.00  0.00     0.034 A 
HETATM   19  C   UNL     1      21.223  50.062  48.724  1.00  0.00     0.325 A 
HETATM   20  H   UNL     1      19.155  49.552  48.624  1.00  0.00     0.170 HD
HETATM   21  O   UNL     1      21.212  51.278  48.781  1.00  0.00    -0.247 OA
HETATM   22  C   UNL     1      20.558  45.542  48.514  1.00  0.00     0.032 A 
HETATM   23  H   UNL     1      23.300  49.566  48.782  1.00  0.00     0.170 HD
ENDBRANCH   9  12
ENDBRANCH   7   8
ENDBRANCH   6   7
ENDBRANCH   2   6
BRANCH   1  24
HETATM   24  C   UNL     1      26.298  44.384  50.609  1.00  0.00     0.043 A 
HETATM   25  C   UNL     1      27.041  45.197  49.740  1.00  0.00     0.030 A 
HETATM   26  C   UNL     1      26.829  46.577  49.716  1.00  0.00     0.002 A 
HETATM   27  C   UNL     1      25.880  47.154  50.557  1.00  0.00     0.000 A 
HETATM   28  C   UNL     1      25.140  46.352  51.424  1.00  0.00     0.002 A 
HETATM   29  C   UNL     1      25.346  44.971  51.453  1.00  0.00     0.030 A 
ENDBRANCH   1  24
BRANCH   5  30
HETATM   30  C   UNL     1      28.045  42.716  52.652  1.00  0.00     0.012 A 
HETATM   31  C   UNL     1      27.500  43.440  53.723  1.00  0.00     0.017 A 
HETATM   32  C   UNL     1      28.322  43.915  54.750  1.00  0.00     0.025 A 
HETATM   33  C   UNL     1      29.695  43.682  54.704  1.00  0.00     0.034 A 
HETATM   34 CL   UNL     1      30.705  44.266  55.967  1.00  0.00    -0.084 Cl
HETATM   35  C   UNL     1      30.254  42.984  53.636  1.00  0.00     0.025 A 
HETATM   36  C   UNL     1      29.432  42.509  52.611  1.00  0.00     0.017 A 
ENDBRANCH   5  30
TORSDOF 6
ENDMDL
MODEL 3
REMARK VINA RESULT:      -9.1      4.983      9.971
REMARK  6 active torsions:
REMARK  status: ('A' for Active; 'I' for Inactive)
REMARK    1  A    between atoms: C_4  and  N_5 
REMARK    2  A    between atoms: C_6  and  S_7 
REMARK    3  A    between atoms: S_7  and  C_8 
REMARK    4  A    between atoms: C_8  and  C_9 
REMARK       I    between atoms: C_9  and  N_10 
REMARK    5  A    between atoms: N_10  and  C_11 
REMARK    6  A    between atoms: C_24  and  C_25 
ROOT
HETATM    1  N   UNL     1      20.933  48.414  47.933  1.00  0.00    -0.271 N 
HETATM    2  C   UNL     1      22.191  47.875  48.168  1.00  0.00     0.197 A 
HETATM    3  N   UNL     1      22.421  46.877  47.347  1.00  0.00    -0.122 NA
HETATM    4  N   UNL     1      21.328  46.728  46.548  1.00  0.00    -0.128 NA
HETATM    5  C   UNL     1      20.415  47.614  46.909  1.00  0.00     0.169 A 
ENDROOT
BRANCH   2   6
HETATM    6  S   UNL     1      23.395  48.513  49.245  1.00  0.00    -0.080 SA
BRANCH   6   7
HETATM    7  C   UNL     1      24.096  46.964  49.895  1.00  0.00     0.185 C 
BRANCH   7   8
HETATM    8  C   UNL     1      25.243  47.253  50.849  1.00  0.00     0.231 C 
HETATM    9  N   UNL     1      25.174  46.511  52.021  1.00  0.00    -0.326 N 
HETATM   10  H   UNL     1      24.314  45.995  52.167  1.00  0.00     0.169 HD
HETATM   11  O   UNL     1      26.140  48.033  50.540  1.00  0.00    -0.272 OA
BRANCH   9  12
HETATM   12  C   UNL     1      26.129  46.450  53.058  1.00  0.00     0.037 A 
HETATM   13  C   UNL     1      27.074  45.424  53.179  1.00  0.00     0.061 A 
HETATM   14  C   UNL     1      27.929  45.481  54.257  1.00  0.00     0.065 A 
HETATM   15  C   UNL     1      27.878  46.506  55.198  1.00  0.00     0.063 A 
HETATM   16  N   UNL     1      28.944  44.607  54.631  1.00  0.00    -0.306 N 
HETATM   17  N   UNL     1      28.863  46.265  56.149  1.00  0.00    -0.307 N 
HETATM   18  C   UNL     1      26.969  47.529  55.112  1.00  0.00     0.034 A 
HETATM   19  C   UNL     1      29.537  45.082  55.809  1.00  0.00     0.325 A 
HETATM   20  H   UNL     1      29.083  46.820  56.960  1.00  0.00     0.170 HD
HETATM   21  O   UNL     1      30.455  44.569  56.423  1.00  0.00    -0.247 OA
HETATM   22  C   UNL     1      26.084  47.491  54.025  1.00  0.00     0.032 A 
HETATM   23  H   UNL     1      29.228  43.766  54.156  1.00  0.00     0.170 HD
ENDBRANCH   9  12
ENDBRANCH   7   8
ENDBRANCH   6   7
ENDBRANCH   2   6
BRANCH   1  24
HETATM   24  C   UNL     1      20.310  49.536  48.551  1.00  0.00     0.043 A 
HETATM   25  C   UNL     1      20.499  50.821  48.023  1.00  0.00     0.030 A 
HETATM   26  C   UNL     1      19.872  51.921  48.611  1.00  0.00     0.002 A 
HETATM   27  C   UNL     1      19.055  51.748  49.726  1.00  0.00     0.000 A 
HETATM   28  C   UNL     1      18.863  50.473  50.256  1.00  0.00     0.002 A 
HETATM   29  C   UNL     1      19.488  49.368  49.673  1.00  0.00     0.030 A 
ENDBRANCH   1  24
BRANCH   5  30
HETATM   30  C   UNL     1      19.061  47.640  46.347  1.00  0.00     0.012 A 
HETATM   31  C   UNL     1      18.708  48.517  45.311  1.00  0.00     0.017 A 
HETATM   32  C   UNL     1      17.403  48.532  44.808  1.00  0.00     0.025 A 
HETATM   33  C   UNL     1      16.441  47.682  45.349  1.00  0.00     0.034 A 
HETATM   34 CL   UNL     1      14.837  47.701  44.730  1.00  0.00    -0.084 Cl
HETATM   35  C   UNL     1      16.770  46.821  46.394  1.00  0.00     0.025 A 
HETATM   36  C   UNL     1      18.074  46.806  46.894  1.00  0.00     0.017 A 
ENDBRANCH   5  30
TORSDOF 6
ENDMDL
MODEL 4
REMARK VINA RESULT:      -9.0      2.145      3.382
REMARK  6 active torsions:
REMARK  status: ('A' for Active; 'I' for Inactive)
REMARK    1  A    between atoms: C_4  and  N_5 
REMARK    2  A    between atoms: C_6  and  S_7 
REMARK    3  A    between atoms: S_7  and  C_8 
REMARK    4  A    between atoms: C_8  and  C_9 
REMARK       I    between atoms: C_9  and  N_10 
REMARK    5  A    between atoms: N_10  and  C_11 
REMARK    6  A    between atoms: C_24  and  C_25 
ROOT
HETATM    1  N   UNL     1      25.768  45.091  51.242  1.00  0.00    -0.271 N 
HETATM    2  C   UNL     1      24.855  46.085  50.918  1.00  0.00     0.197 A 
HETATM    3  N   UNL     1      25.063  47.154  51.650  1.00  0.00    -0.122 NA
HETATM    4  N   UNL     1      26.115  46.900  52.477  1.00  0.00    -0.128 NA
HETATM    5  C   UNL     1      26.526  45.660  52.272  1.00  0.00     0.169 A 
ENDROOT
BRANCH   2   6
HETATM    6  S   UNL     1      23.711  46.039  49.610  1.00  0.00    -0.080 SA
BRANCH   6   7
HETATM    7  C   UNL     1      23.795  47.770  49.052  1.00  0.00     0.185 C 
BRANCH   7   8
HETATM    8  C   UNL     1      22.431  48.249  48.584  1.00  0.00     0.231 C 
HETATM    9  N   UNL     1      21.634  48.716  49.620  1.00  0.00    -0.326 N 
HETATM   10  H   UNL     1      21.982  48.545  50.556  1.00  0.00     0.169 HD
HETATM   11  O   UNL     1      22.138  48.250  47.391  1.00  0.00    -0.272 OA
BRANCH   9  12
HETATM   12  C   UNL     1      20.369  49.333  49.522  1.00  0.00     0.037 A 
HETATM   13  C   UNL     1      20.149  50.691  49.784  1.00  0.00     0.061 A 
HETATM   14  C   UNL     1      18.856  51.151  49.671  1.00  0.00     0.065 A 
HETATM   15  C   UNL     1      17.796  50.323  49.311  1.00  0.00     0.063 A 
HETATM   16  N   UNL     1      18.348  52.429  49.878  1.00  0.00    -0.306 N 
HETATM   17  N   UNL     1      16.638  51.091  49.293  1.00  0.00    -0.307 N 
HETATM   18  C   UNL     1      17.972  48.990  49.044  1.00  0.00     0.034 A 
HETATM   19  C   UNL     1      16.966  52.409  49.647  1.00  0.00     0.325 A 
HETATM   20  H   UNL     1      15.703  50.789  49.074  1.00  0.00     0.170 HD
HETATM   21  O   UNL     1      16.196  53.348  49.738  1.00  0.00    -0.247 OA
HETATM   22  C   UNL     1      19.280  48.495  49.157  1.00  0.00     0.032 A 
HETATM   23  H   UNL     1      18.863  53.251  50.151  1.00  0.00     0.170 HD
ENDBRANCH   9  12
ENDBRANCH   7   8
ENDBRANCH   6   7
ENDBRANCH   2   6
BRANCH   1  24
HETATM   24  C   UNL     1      25.937  43.804  50.656  1.00  0.00     0.043 A 
HETATM   25  C   UNL     1      26.831  43.631  49.589  1.00  0.00     0.030 A 
HETATM   26  C   UNL     1      27.017  42.366  49.027  1.00  0.00     0.002 A 
HETATM   27  C   UNL     1      26.316  41.270  49.523  1.00  0.00     0.000 A 
HETATM   28  C   UNL     1      25.425  41.435  50.582  1.00  0.00     0.002 A 
HETATM   29  C   UNL     1      25.233  42.697  51.149  1.00  0.00     0.030 A 
ENDBRANCH   1  24
BRANCH   5  30
HETATM   30  C   UNL     1      27.555  45.014  53.091  1.00  0.00     0.012 A 
HETATM   31  C   UNL     1      28.293  43.917  52.621  1.00  0.00     0.017 A 
HETATM   32  C   UNL     1      29.256  43.309  53.433  1.00  0.00     0.025 A 
HETATM   33  C   UNL     1      29.475  43.785  54.724  1.00  0.00     0.034 A 
HETATM   34 CL   UNL     1      30.660  43.038  55.721  1.00  0.00    -0.084 Cl
HETATM   35  C   UNL     1      28.735  44.859  55.213  1.00  0.00     0.025 A 
HETATM   36  C   UNL     1      27.775  45.466  54.401  1.00  0.00     0.017 A 
ENDBRANCH   5  30
TORSDOF 6
ENDMDL
MODEL 5
REMARK VINA RESULT:      -8.9      4.091      8.564
REMARK  6 active torsions:
REMARK  status: ('A' for Active; 'I' for Inactive)
REMARK    1  A    between atoms: C_4  and  N_5 
REMARK    2  A    between atoms: C_6  and  S_7 
REMARK    3  A    between atoms: S_7  and  C_8 
REMARK    4  A    between atoms: C_8  and  C_9 
REMARK       I    between atoms: C_9  and  N_10 
REMARK    5  A    between atoms: N_10  and  C_11 
REMARK    6  A    between atoms: C_24  and  C_25 
ROOT
HETATM    1  N   UNL     1      21.401  46.922  48.566  1.00  0.00    -0.271 N 
HETATM    2  C   UNL     1      21.609  45.554  48.454  1.00  0.00     0.197 A 
HETATM    3  N   UNL     1      20.464  44.914  48.467  1.00  0.00    -0.122 NA
HETATM    4  N   UNL     1      19.468  45.836  48.589  1.00  0.00    -0.128 NA
HETATM    5  C   UNL     1      20.012  47.037  48.686  1.00  0.00     0.169 A 
ENDROOT
BRANCH   2   6
HETATM    6  S   UNL     1      23.129  44.770  48.143  1.00  0.00    -0.080 SA
BRANCH   6   7
HETATM    7  C   UNL     1      23.483  44.094  49.795  1.00  0.00     0.185 C 
BRANCH   7   8
HETATM    8  C   UNL     1      24.697  44.776  50.405  1.00  0.00     0.231 C 
HETATM    9  N   UNL     1      24.614  44.899  51.785  1.00  0.00    -0.326 N 
HETATM   10  H   UNL     1      23.717  44.668  52.197  1.00  0.00     0.169 HD
HETATM   11  O   UNL     1      25.648  45.115  49.706  1.00  0.00    -0.272 OA
BRANCH   9  12
HETATM   12  C   UNL     1      25.607  45.373  52.668  1.00  0.00     0.037 A 
HETATM   13  C   UNL     1      26.576  44.551  53.255  1.00  0.00     0.061 A 
HETATM   14  C   UNL     1      27.469  45.149  54.117  1.00  0.00     0.065 A 
HETATM   15  C   UNL     1      27.432  46.509  54.407  1.00  0.00     0.063 A 
HETATM   16  N   UNL     1      28.515  44.586  54.841  1.00  0.00    -0.306 N 
HETATM   17  N   UNL     1      28.456  46.785  55.306  1.00  0.00    -0.307 N 
HETATM   18  C   UNL     1      26.500  47.347  53.850  1.00  0.00     0.034 A 
HETATM   19  C   UNL     1      29.141  45.593  55.587  1.00  0.00     0.325 A 
HETATM   20  H   UNL     1      28.694  47.675  55.712  1.00  0.00     0.170 HD
HETATM   21  O   UNL     1      30.091  45.463  56.338  1.00  0.00    -0.247 OA
HETATM   22  C   UNL     1      25.576  46.762  52.972  1.00  0.00     0.032 A 
HETATM   23  H   UNL     1      28.798  43.619  54.848  1.00  0.00     0.170 HD
ENDBRANCH   9  12
ENDBRANCH   7   8
ENDBRANCH   6   7
ENDBRANCH   2   6
BRANCH   1  24
HETATM   24  C   UNL     1      22.355  47.979  48.535  1.00  0.00     0.043 A 
HETATM   25  C   UNL     1      23.522  47.892  49.309  1.00  0.00     0.030 A 
HETATM   26  C   UNL     1      24.472  48.915  49.263  1.00  0.00     0.002 A 
HETATM   27  C   UNL     1      24.266  50.027  48.451  1.00  0.00     0.000 A 
HETATM   28  C   UNL     1      23.108  50.119  47.681  1.00  0.00     0.002 A 
HETATM   29  C   UNL     1      22.153  49.100  47.720  1.00  0.00     0.030 A 
ENDBRANCH   1  24
BRANCH   5  30
HETATM   30  C   UNL     1      19.232  48.247  48.966  1.00  0.00     0.012 A 
HETATM   31  C   UNL     1      18.472  48.882  47.973  1.00  0.00     0.017 A 
HETATM   32  C   UNL     1      17.753  50.046  48.265  1.00  0.00     0.025 A 
HETATM   33  C   UNL     1      17.804  50.589  49.547  1.00  0.00     0.034 A 
HETATM   34 CL   UNL     1      16.920  52.019  49.906  1.00  0.00    -0.084 Cl
HETATM   35  C   UNL     1      18.573  49.983  50.538  1.00  0.00     0.025 A 
HETATM   36  C   UNL     1      19.289  48.819  50.245  1.00  0.00     0.017 A 
ENDBRANCH   5  30
TORSDOF 6
ENDMDL
MODEL 6
REMARK VINA RESULT:      -8.9      4.473      9.557
REMARK  6 active torsions:
REMARK  status: ('A' for Active; 'I' for Inactive)
REMARK    1  A    between atoms: C_4  and  N_5 
REMARK    2  A    between atoms: C_6  and  S_7 
REMARK    3  A    between atoms: S_7  and  C_8 
REMARK    4  A    between atoms: C_8  and  C_9 
REMARK       I    between atoms: C_9  and  N_10 
REMARK    5  A    between atoms: N_10  and  C_11 
REMARK    6  A    between atoms: C_24  and  C_25 
ROOT
HETATM    1  N   UNL     1      22.027  47.949  48.847  1.00  0.00    -0.271 N 
HETATM    2  C   UNL     1      23.359  47.658  49.109  1.00  0.00     0.197 A 
HETATM    3  N   UNL     1      23.924  48.647  49.761  1.00  0.00    -0.122 NA
HETATM    4  N   UNL     1      22.986  49.617  49.949  1.00  0.00    -0.128 NA
HETATM    5  C   UNL     1      21.857  49.232  49.378  1.00  0.00     0.169 A 
ENDROOT
BRANCH   2   6
HETATM    6  S   UNL     1      24.156  46.143  48.810  1.00  0.00    -0.080 SA
BRANCH   6   7
HETATM    7  C   UNL     1      24.084  45.410  50.475  1.00  0.00     0.185 C 
BRANCH   7   8
HETATM    8  C   UNL     1      25.378  45.668  51.231  1.00  0.00     0.231 C 
HETATM    9  N   UNL     1      25.533  44.844  52.337  1.00  0.00    -0.326 N 
HETATM   10  H   UNL     1      24.724  44.291  52.593  1.00  0.00     0.169 HD
HETATM   11  O   UNL     1      26.189  46.497  50.828  1.00  0.00    -0.272 OA
BRANCH   9  12
HETATM   12  C   UNL     1      26.659  44.741  53.181  1.00  0.00     0.037 A 
HETATM   13  C   UNL     1      26.990  45.697  54.149  1.00  0.00     0.061 A 
HETATM   14  C   UNL     1      28.133  45.476  54.885  1.00  0.00     0.065 A 
HETATM   15  C   UNL     1      28.939  44.357  54.697  1.00  0.00     0.063 A 
HETATM   16  N   UNL     1      28.703  46.249  55.891  1.00  0.00    -0.306 N 
HETATM   17  N   UNL     1      30.003  44.439  55.588  1.00  0.00    -0.307 N 
HETATM   18  C   UNL     1      28.646  43.397  53.762  1.00  0.00     0.034 A 
HETATM   19  C   UNL     1      29.870  45.616  56.340  1.00  0.00     0.325 A 
HETATM   20  H   UNL     1      30.762  43.787  55.701  1.00  0.00     0.170 HD
HETATM   21  O   UNL     1      30.627  46.010  57.210  1.00  0.00    -0.247 OA
HETATM   22  C   UNL     1      27.489  43.602  52.995  1.00  0.00     0.032 A 
HETATM   23  H   UNL     1      28.359  47.123  56.256  1.00  0.00     0.170 HD
ENDBRANCH   9  12
ENDBRANCH   7   8
ENDBRANCH   6   7
ENDBRANCH   2   6
BRANCH   1  24
HETATM   24  C   UNL     1      21.039  47.136  48.220  1.00  0.00     0.043 A 
HETATM   25  C   UNL     1      20.833  47.227  46.836  1.00  0.00     0.030 A 
HETATM   26  C   UNL     1      19.883  46.416  46.213  1.00  0.00     0.002 A 
HETATM   27  C   UNL     1      19.134  45.513  46.963  1.00  0.00     0.000 A 
HETATM   28  C   UNL     1      19.333  45.418  48.339  1.00  0.00     0.002 A 
HETATM   29  C   UNL     1      20.282  46.227  48.970  1.00  0.00     0.030 A 
ENDBRANCH   1  24
BRANCH   5  30
HETATM   30  C   UNL     1      20.679  50.098  49.272  1.00  0.00     0.012 A 
HETATM   31  C   UNL     1      20.685  51.262  48.489  1.00  0.00     0.017 A 
HETATM   32  C   UNL     1      19.552  52.078  48.423  1.00  0.00     0.025 A 
HETATM   33  C   UNL     1      18.413  51.744  49.152  1.00  0.00     0.034 A 
HETATM   34 CL   UNL     1      17.019  52.749  49.070  1.00  0.00    -0.084 Cl
HETATM   35  C   UNL     1      18.399  50.604  49.953  1.00  0.00     0.025 A 
HETATM   36  C   UNL     1      19.531  49.788  50.017  1.00  0.00     0.017 A 
ENDBRANCH   5  30
TORSDOF 6
ENDMDL
MODEL 7
REMARK VINA RESULT:      -8.8     11.499     14.623
REMARK  6 active torsions:
REMARK  status: ('A' for Active; 'I' for Inactive)
REMARK    1  A    between atoms: C_4  and  N_5 
REMARK    2  A    between atoms: C_6  and  S_7 
REMARK    3  A    between atoms: S_7  and  C_8 
REMARK    4  A    between atoms: C_8  and  C_9 
REMARK       I    between atoms: C_9  and  N_10 
REMARK    5  A    between atoms: N_10  and  C_11 
REMARK    6  A    between atoms: C_24  and  C_25 
ROOT
HETATM    1  N   UNL     1      28.540  49.611  39.386  1.00  0.00    -0.271 N 
HETATM    2  C   UNL     1      28.531  50.676  38.496  1.00  0.00     0.197 A 
HETATM    3  N   UNL     1      27.344  50.808  37.953  1.00  0.00    -0.122 NA
HETATM    4  N   UNL     1      26.536  49.838  38.466  1.00  0.00    -0.128 NA
HETATM    5  C   UNL     1      27.244  49.091  39.296  1.00  0.00     0.169 A 
ENDROOT
BRANCH   2   6
HETATM    6  S   UNL     1      29.819  51.816  38.248  1.00  0.00    -0.080 SA
BRANCH   6   7
HETATM    7  C   UNL     1      29.523  52.942  39.647  1.00  0.00     0.185 C 
BRANCH   7   8
HETATM    8  C   UNL     1      30.782  53.104  40.482  1.00  0.00     0.231 C 
HETATM    9  N   UNL     1      31.443  51.904  40.706  1.00  0.00    -0.326 N 
HETATM   10  H   UNL     1      30.945  51.066  40.427  1.00  0.00     0.169 HD
HETATM   11  O   UNL     1      31.157  54.214  40.850  1.00  0.00    -0.272 OA
BRANCH   9  12
HETATM   12  C   UNL     1      32.691  51.713  41.336  1.00  0.00     0.037 A 
HETATM   13  C   UNL     1      33.876  51.446  40.640  1.00  0.00     0.061 A 
HETATM   14  C   UNL     1      35.016  51.259  41.389  1.00  0.00     0.065 A 
HETATM   15  C   UNL     1      35.018  51.329  42.779  1.00  0.00     0.063 A 
HETATM   16  N   UNL     1      36.313  50.973  40.974  1.00  0.00    -0.306 N 
HETATM   17  N   UNL     1      36.314  51.090  43.220  1.00  0.00    -0.307 N 
HETATM   18  C   UNL     1      33.878  51.590  43.496  1.00  0.00     0.034 A 
HETATM   19  C   UNL     1      37.135  50.865  42.105  1.00  0.00     0.325 A 
HETATM   20  H   UNL     1      36.646  51.068  44.171  1.00  0.00     0.170 HD
HETATM   21  O   UNL     1      38.328  50.619  42.120  1.00  0.00    -0.247 OA
HETATM   22  C   UNL     1      32.702  51.780  42.756  1.00  0.00     0.032 A 
HETATM   23  H   UNL     1      36.637  50.857  40.028  1.00  0.00     0.170 HD
ENDBRANCH   9  12
ENDBRANCH   7   8
ENDBRANCH   6   7
ENDBRANCH   2   6
BRANCH   1  24
HETATM   24  C   UNL     1      29.595  49.156  40.228  1.00  0.00     0.043 A 
HETATM   25  C   UNL     1      29.490  49.294  41.620  1.00  0.00     0.030 A 
HETATM   26  C   UNL     1      30.511  48.828  42.451  1.00  0.00     0.002 A 
HETATM   27  C   UNL     1      31.640  48.225  41.902  1.00  0.00     0.000 A 
HETATM   28  C   UNL     1      31.751  48.086  40.519  1.00  0.00     0.002 A 
HETATM   29  C   UNL     1      30.734  48.549  39.682  1.00  0.00     0.030 A 
ENDBRANCH   1  24
BRANCH   5  30
HETATM   30  C   UNL     1      26.720  47.873  39.919  1.00  0.00     0.012 A 
HETATM   31  C   UNL     1      27.395  46.646  39.828  1.00  0.00     0.017 A 
HETATM   32  C   UNL     1      26.860  45.497  40.417  1.00  0.00     0.025 A 
HETATM   33  C   UNL     1      25.640  45.564  41.088  1.00  0.00     0.034 A 
HETATM   34 CL   UNL     1      24.983  44.149  41.812  1.00  0.00    -0.084 Cl
HETATM   35  C   UNL     1      24.946  46.769  41.168  1.00  0.00     0.025 A 
HETATM   36  C   UNL     1      25.482  47.917  40.579  1.00  0.00     0.017 A 
ENDBRANCH   5  30
TORSDOF 6
ENDMDL
MODEL 8
REMARK VINA RESULT:      -8.7      2.876      3.948
REMARK  6 active torsions:
REMARK  status: ('A' for Active; 'I' for Inactive)
REMARK    1  A    between atoms: C_4  and  N_5 
REMARK    2  A    between atoms: C_6  and  S_7 
REMARK    3  A    between atoms: S_7  and  C_8 
REMARK    4  A    between atoms: C_8  and  C_9 
REMARK       I    between atoms: C_9  and  N_10 
REMARK    5  A    between atoms: N_10  and  C_11 
REMARK    6  A    between atoms: C_24  and  C_25 
ROOT
HETATM    1  N   UNL     1      25.464  42.650  50.906  1.00  0.00    -0.271 N 
HETATM    2  C   UNL     1      24.168  43.058  50.617  1.00  0.00     0.197 A 
HETATM    3  N   UNL     1      23.800  44.021  51.428  1.00  0.00    -0.122 NA
HETATM    4  N   UNL     1      24.836  44.278  52.275  1.00  0.00    -0.128 NA
HETATM    5  C   UNL     1      25.824  43.443  52.001  1.00  0.00     0.169 A 
ENDROOT
BRANCH   2   6
HETATM    6  S   UNL     1      23.207  42.536  49.267  1.00  0.00    -0.080 SA
BRANCH   6   7
HETATM    7  C   UNL     1      23.296  44.021  48.219  1.00  0.00     0.185 C 
BRANCH   7   8
HETATM    8  C   UNL     1      22.141  44.962  48.522  1.00  0.00     0.231 C 
HETATM    9  N   UNL     1      22.380  46.265  48.109  1.00  0.00    -0.326 N 
HETATM   10  H   UNL     1      23.325  46.466  47.804  1.00  0.00     0.169 HD
HETATM   11  O   UNL     1      21.105  44.545  49.033  1.00  0.00    -0.272 OA
BRANCH   9  12
HETATM   12  C   UNL     1      21.482  47.353  48.132  1.00  0.00     0.037 A 
HETATM   13  C   UNL     1      21.505  48.355  49.110  1.00  0.00     0.061 A 
HETATM   14  C   UNL     1      20.551  49.344  49.019  1.00  0.00     0.065 A 
HETATM   15  C   UNL     1      19.597  49.372  48.007  1.00  0.00     0.063 A 
HETATM   16  N   UNL     1      20.331  50.442  49.845  1.00  0.00    -0.306 N 
HETATM   17  N   UNL     1      18.791  50.487  48.207  1.00  0.00    -0.307 N 
HETATM   18  C   UNL     1      19.544  48.411  47.030  1.00  0.00     0.034 A 
HETATM   19  C   UNL     1      19.237  51.165  49.351  1.00  0.00     0.325 A 
HETATM   20  H   UNL     1      18.009  50.788  47.649  1.00  0.00     0.170 HD
HETATM   21  O   UNL     1      18.760  52.182  49.823  1.00  0.00    -0.247 OA
HETATM   22  C   UNL     1      20.502  47.389  47.103  1.00  0.00     0.032 A 
HETATM   23  H   UNL     1      20.853  50.699  50.667  1.00  0.00     0.170 HD
ENDBRANCH   9  12
ENDBRANCH   7   8
ENDBRANCH   6   7
ENDBRANCH   2   6
BRANCH   1  24
HETATM   24  C   UNL     1      26.268  41.681  50.240  1.00  0.00     0.043 A 
HETATM   25  C   UNL     1      26.172  40.328  50.596  1.00  0.00     0.030 A 
HETATM   26  C   UNL     1      26.941  39.370  49.930  1.00  0.00     0.002 A 
HETATM   27  C   UNL     1      27.807  39.755  48.909  1.00  0.00     0.000 A 
HETATM   28  C   UNL     1      27.907  41.099  48.552  1.00  0.00     0.002 A 
HETATM   29  C   UNL     1      27.141  42.062  49.213  1.00  0.00     0.030 A 
ENDBRANCH   1  24
BRANCH   5  30
HETATM   30  C   UNL     1      27.042  43.353  52.812  1.00  0.00     0.012 A 
HETATM   31  C   UNL     1      27.613  42.118  53.153  1.00  0.00     0.017 A 
HETATM   32  C   UNL     1      28.765  42.064  53.945  1.00  0.00     0.025 A 
HETATM   33  C   UNL     1      29.342  43.243  54.412  1.00  0.00     0.034 A 
HETATM   34 CL   UNL     1      30.758  43.175  55.385  1.00  0.00    -0.084 Cl
HETATM   35  C   UNL     1      28.774  44.476  54.101  1.00  0.00     0.025 A 
HETATM   36  C   UNL     1      27.624  44.529  53.309  1.00  0.00     0.017 A 
ENDBRANCH   5  30
TORSDOF 6
ENDMDL
MODEL 9
REMARK VINA RESULT:      -8.6      4.088      6.645
REMARK  6 active torsions:
REMARK  status: ('A' for Active; 'I' for Inactive)
REMARK    1  A    between atoms: C_4  and  N_5 
REMARK    2  A    between atoms: C_6  and  S_7 
REMARK    3  A    between atoms: S_7  and  C_8 
REMARK    4  A    between atoms: C_8  and  C_9 
REMARK       I    between atoms: C_9  and  N_10 
REMARK    5  A    between atoms: N_10  and  C_11 
REMARK    6  A    between atoms: C_24  and  C_25 
ROOT
HETATM    1  N   UNL     1      19.520  48.444  48.560  1.00  0.00    -0.271 N 
HETATM    2  C   UNL     1      18.604  47.406  48.465  1.00  0.00     0.197 A 
HETATM    3  N   UNL     1      19.220  46.248  48.489  1.00  0.00    -0.122 NA
HETATM    4  N   UNL     1      20.557  46.484  48.600  1.00  0.00    -0.128 NA
HETATM    5  C   UNL     1      20.757  47.791  48.606  1.00  0.00     0.169 A 
ENDROOT
BRANCH   2   6
HETATM    6  S   UNL     1      16.873  47.560  48.503  1.00  0.00    -0.080 SA
BRANCH   6   7
HETATM    7  C   UNL     1      16.566  48.127  46.801  1.00  0.00     0.185 C 
BRANCH   7   8
HETATM    8  C   UNL     1      15.718  49.389  46.801  1.00  0.00     0.231 C 
HETATM    9  N   UNL     1      15.968  50.211  47.892  1.00  0.00    -0.326 N 
HETATM   10  H   UNL     1      16.554  49.815  48.618  1.00  0.00     0.169 HD
HETATM   11  O   UNL     1      14.946  49.631  45.877  1.00  0.00    -0.272 OA
BRANCH   9  12
HETATM   12  C   UNL     1      15.446  51.498  48.137  1.00  0.00     0.037 A 
HETATM   13  C   UNL     1      15.123  52.408  47.123  1.00  0.00     0.061 A 
HETATM   14  C   UNL     1      14.644  53.639  47.512  1.00  0.00     0.065 A 
HETATM   15  C   UNL     1      14.476  53.987  48.849  1.00  0.00     0.063 A 
HETATM   16  N   UNL     1      14.259  54.726  46.735  1.00  0.00    -0.306 N 
HETATM   17  N   UNL     1      13.985  55.287  48.895  1.00  0.00    -0.307 N 
HETATM   18  C   UNL     1      14.778  53.124  49.870  1.00  0.00     0.034 A 
HETATM   19  C   UNL     1      13.845  55.763  47.583  1.00  0.00     0.325 A 
HETATM   20  H   UNL     1      13.760  55.830  49.713  1.00  0.00     0.170 HD
HETATM   21  O   UNL     1      13.445  56.864  47.249  1.00  0.00    -0.247 OA
HETATM   22  C   UNL     1      15.272  51.864  49.500  1.00  0.00     0.032 A 
HETATM   23  H   UNL     1      14.266  54.789  45.729  1.00  0.00     0.170 HD
ENDBRANCH   9  12
ENDBRANCH   7   8
ENDBRANCH   6   7
ENDBRANCH   2   6
BRANCH   1  24
HETATM   24  C   UNL     1      19.281  49.847  48.629  1.00  0.00     0.043 A 
HETATM   25  C   UNL     1      19.076  50.461  49.873  1.00  0.00     0.030 A 
HETATM   26  C   UNL     1      18.865  51.840  49.949  1.00  0.00     0.002 A 
HETATM   27  C   UNL     1      18.856  52.611  48.789  1.00  0.00     0.000 A 
HETATM   28  C   UNL     1      19.059  52.006  47.550  1.00  0.00     0.002 A 
HETATM   29  C   UNL     1      19.271  50.628  47.466  1.00  0.00     0.030 A 
ENDBRANCH   1  24
BRANCH   5  30
HETATM   30  C   UNL     1      22.092  48.395  48.577  1.00  0.00     0.012 A 
HETATM   31  C   UNL     1      22.374  49.529  47.800  1.00  0.00     0.017 A 
HETATM   32  C   UNL     1      23.663  50.071  47.777  1.00  0.00     0.025 A 
HETATM   33  C   UNL     1      24.680  49.474  48.519  1.00  0.00     0.034 A 
HETATM   34 CL   UNL     1      26.264  50.142  48.490  1.00  0.00    -0.084 Cl
HETATM   35  C   UNL     1      24.422  48.334  49.277  1.00  0.00     0.025 A 
HETATM   36  C   UNL     1      23.134  47.794  49.300  1.00  0.00     0.017 A 
ENDBRANCH   5  30
TORSDOF 6
ENDMDL
MODEL 10
REMARK VINA RESULT:      -8.6     10.787     12.043
REMARK  6 active torsions:
REMARK  status: ('A' for Active; 'I' for Inactive)
REMARK    1  A    between atoms: C_4  and  N_5 
REMARK    2  A    between atoms: C_6  and  S_7 
REMARK    3  A    between atoms: S_7  and  C_8 
REMARK    4  A    between atoms: C_8  and  C_9 
REMARK       I    between atoms: C_9  and  N_10 
REMARK    5  A    between atoms: N_10  and  C_11 
REMARK    6  A    between atoms: C_24  and  C_25 
ROOT
HETATM    1  N   UNL     1      31.637  49.375  40.701  1.00  0.00    -0.271 N 
HETATM    2  C   UNL     1      31.325  48.136  40.158  1.00  0.00     0.197 A 
HETATM    3  N   UNL     1      32.203  47.237  40.536  1.00  0.00    -0.122 NA
HETATM    4  N   UNL     1      33.118  47.852  41.336  1.00  0.00    -0.128 NA
HETATM    5  C   UNL     1      32.816  49.137  41.416  1.00  0.00     0.169 A 
ENDROOT
BRANCH   2   6
HETATM    6  S   UNL     1      29.889  47.741  39.264  1.00  0.00    -0.080 SA
BRANCH   6   7
HETATM    7  C   UNL     1      28.811  47.183  40.621  1.00  0.00     0.185 C 
BRANCH   7   8
HETATM    8  C   UNL     1      27.555  48.036  40.694  1.00  0.00     0.231 C 
HETATM    9  N   UNL     1      26.517  47.541  39.918  1.00  0.00    -0.326 N 
HETATM   10  H   UNL     1      26.757  46.780  39.292  1.00  0.00     0.169 HD
HETATM   11  O   UNL     1      27.504  49.022  41.424  1.00  0.00    -0.272 OA
BRANCH   9  12
HETATM   12  C   UNL     1      25.191  48.018  39.848  1.00  0.00     0.037 A 
HETATM   13  C   UNL     1      24.827  49.197  39.187  1.00  0.00     0.061 A 
HETATM   14  C   UNL     1      23.497  49.552  39.222  1.00  0.00     0.065 A 
HETATM   15  C   UNL     1      22.536  48.787  39.876  1.00  0.00     0.063 A 
HETATM   16  N   UNL     1      22.860  50.658  38.670  1.00  0.00    -0.306 N 
HETATM   17  N   UNL     1      21.307  49.420  39.726  1.00  0.00    -0.307 N 
HETATM   18  C   UNL     1      22.852  47.625  40.532  1.00  0.00     0.034 A 
HETATM   19  C   UNL     1      21.493  50.591  38.976  1.00  0.00     0.325 A 
HETATM   20  H   UNL     1      20.415  49.123  40.084  1.00  0.00     0.170 HD
HETATM   21  O   UNL     1      20.633  51.392  38.657  1.00  0.00    -0.247 OA
HETATM   22  C   UNL     1      24.202  47.244  40.516  1.00  0.00     0.032 A 
HETATM   23  H   UNL     1      23.283  51.401  38.136  1.00  0.00     0.170 HD
ENDBRANCH   9  12
ENDBRANCH   7   8
ENDBRANCH   6   7
ENDBRANCH   2   6
BRANCH   1  24
HETATM   24  C   UNL     1      30.924  50.603  40.598  1.00  0.00     0.043 A 
HETATM   25  C   UNL     1      30.038  50.987  41.616  1.00  0.00     0.030 A 
HETATM   26  C   UNL     1      29.354  52.202  41.530  1.00  0.00     0.002 A 
HETATM   27  C   UNL     1      29.548  53.038  40.434  1.00  0.00     0.000 A 
HETATM   28  C   UNL     1      30.425  52.662  39.418  1.00  0.00     0.002 A 
HETATM   29  C   UNL     1      31.113  51.449  39.496  1.00  0.00     0.030 A 
ENDBRANCH   1  24
BRANCH   5  30
HETATM   30  C   UNL     1      33.672  50.118  42.088  1.00  0.00     0.012 A 
HETATM   31  C   UNL     1      35.024  50.277  41.747  1.00  0.00     0.017 A 
HETATM   32  C   UNL     1      35.820  51.209  42.419  1.00  0.00     0.025 A 
HETATM   33  C   UNL     1      35.275  51.976  43.445  1.00  0.00     0.034 A 
HETATM   34 CL   UNL     1      36.255  53.123  44.271  1.00  0.00    -0.084 Cl
HETATM   35  C   UNL     1      33.940  51.815  43.812  1.00  0.00     0.025 A 
HETATM   36  C   UNL     1      33.145  50.884  43.139  1.00  0.00     0.017 A 
ENDBRANCH   5  30
TORSDOF 6
ENDMDL
