MODEL 1
REMARK VINA RESULT:     -10.0      0.000      0.000
REMARK  2 active torsions:
REMARK  status: ('A' for Active; 'I' for Inactive)
REMARK    1  A    between atoms: C_5  and  C_6 
REMARK    2  A    between atoms: C_17  and  O_18 
ROOT
HETATM    1  C   UNL     1      25.813  44.224  54.119  1.00  0.00     0.200 C 
HETATM    2  N   UNL     1      25.637  45.611  54.444  1.00  0.00    -0.336 N 
HETATM    3  C   UNL     1      25.594  46.605  53.503  1.00  0.00     0.255 C 
HETATM    4  O   UNL     1      25.748  47.785  53.805  1.00  0.00    -0.268 OA
HETATM    5  C   UNL     1      25.352  46.188  52.113  1.00  0.00     0.053 A 
HETATM    6  C   UNL     1      25.095  44.836  51.878  1.00  0.00     0.026 A 
HETATM    7  N   UNL     1      25.010  43.917  52.935  1.00  0.00    -0.267 NA
HETATM    8  C   UNL     1      25.366  47.119  51.069  1.00  0.00     0.019 A 
HETATM    9  C   UNL     1      25.088  46.700  49.770  1.00  0.00     0.001 A 
HETATM   10  C   UNL     1      24.781  45.363  49.525  1.00  0.00     0.002 A 
HETATM   11  C   UNL     1      24.768  44.440  50.576  1.00  0.00     0.024 A 
HETATM   12  H   UNL     1      26.019  45.926  55.322  1.00  0.00     0.164 HD
HETATM   13  H   UNL     1      25.162  42.976  52.594  1.00  0.00     0.130 HD
ENDROOT
BRANCH   1  14
HETATM   14  C   UNL     1      27.243  43.682  53.993  1.00  0.00     0.023 A 
HETATM   15  C   UNL     1      28.306  44.302  54.747  1.00  0.00    -0.014 A 
HETATM   16  C   UNL     1      29.596  43.707  54.748  1.00  0.00    -0.025 A 
HETATM   17  C   UNL     1      28.170  45.498  55.504  1.00  0.00     0.013 A 
HETATM   18  C   UNL     1      30.639  44.250  55.517  1.00  0.00     0.012 A 
HETATM   19  C   UNL     1      29.847  42.573  53.971  1.00  0.00     0.015 A 
HETATM   20  C   UNL     1      30.450  45.400  56.276  1.00  0.00     0.001 A 
HETATM   21  C   UNL     1      29.217  46.032  56.260  1.00  0.00     0.001 A 
HETATM   22  C   UNL     1      28.852  42.029  53.170  1.00  0.00     0.038 A 
HETATM   23  C   UNL     1      27.574  42.583  53.176  1.00  0.00     0.076 A 
BRANCH  23  24
HETATM   24  O   UNL     1      26.654  42.047  52.322  1.00  0.00    -0.360 OA
HETATM   25  H   UNL     1      26.694  41.077  52.344  1.00  0.00     0.217 HD
ENDBRANCH  23  24
ENDBRANCH   1  14
TORSDOF 2
ENDMDL
MODEL 2
REMARK VINA RESULT:      -9.3      2.137      3.498
REMARK  2 active torsions:
REMARK  status: ('A' for Active; 'I' for Inactive)
REMARK    1  A    between atoms: C_5  and  C_6 
REMARK    2  A    between atoms: C_17  and  O_18 
ROOT
HETATM    1  C   UNL     1      26.575  43.874  50.607  1.00  0.00     0.200 C 
HETATM    2  N   UNL     1      25.307  43.613  49.989  1.00  0.00    -0.336 N 
HETATM    3  C   UNL     1      24.411  44.596  49.660  1.00  0.00     0.255 C 
HETATM    4  O   UNL     1      23.234  44.342  49.422  1.00  0.00    -0.268 OA
HETATM    5  C   UNL     1      24.932  45.971  49.605  1.00  0.00     0.053 A 
HETATM    6  C   UNL     1      26.303  46.151  49.798  1.00  0.00     0.026 A 
HETATM    7  N   UNL     1      27.163  45.058  49.978  1.00  0.00    -0.267 NA
HETATM    8  C   UNL     1      24.082  47.053  49.354  1.00  0.00     0.019 A 
HETATM    9  C   UNL     1      24.614  48.337  49.262  1.00  0.00     0.001 A 
HETATM   10  C   UNL     1      25.987  48.530  49.403  1.00  0.00     0.002 A 
HETATM   11  C   UNL     1      26.828  47.441  49.653  1.00  0.00     0.024 A 
HETATM   12  H   UNL     1      24.856  42.742  50.225  1.00  0.00     0.164 HD
HETATM   13  H   UNL     1      28.018  45.356  50.432  1.00  0.00     0.130 HD
ENDROOT
BRANCH   1  14
HETATM   14  C   UNL     1      26.636  43.953  52.138  1.00  0.00     0.023 A 
HETATM   15  C   UNL     1      27.872  43.645  52.815  1.00  0.00    -0.014 A 
HETATM   16  C   UNL     1      27.971  43.864  54.216  1.00  0.00    -0.025 A 
HETATM   17  C   UNL     1      29.031  43.116  52.184  1.00  0.00     0.013 A 
HETATM   18  C   UNL     1      29.177  43.630  54.899  1.00  0.00     0.012 A 
HETATM   19  C   UNL     1      26.860  44.307  54.937  1.00  0.00     0.015 A 
HETATM   20  C   UNL     1      30.300  43.151  54.232  1.00  0.00     0.001 A 
HETATM   21  C   UNL     1      30.224  42.882  52.875  1.00  0.00     0.001 A 
HETATM   22  C   UNL     1      25.641  44.514  54.305  1.00  0.00     0.038 A 
HETATM   23  C   UNL     1      25.533  44.330  52.928  1.00  0.00     0.076 A 
BRANCH  23  24
HETATM   24  O   UNL     1      24.297  44.485  52.370  1.00  0.00    -0.360 OA
HETATM   25  H   UNL     1      24.293  44.160  51.455  1.00  0.00     0.217 HD
ENDBRANCH  23  24
ENDBRANCH   1  14
TORSDOF 2
ENDMDL
MODEL 3
REMARK VINA RESULT:      -8.6      8.661     11.628
REMARK  2 active torsions:
REMARK  status: ('A' for Active; 'I' for Inactive)
REMARK    1  A    between atoms: C_5  and  C_6 
REMARK    2  A    between atoms: C_17  and  O_18 
ROOT
HETATM    1  C   UNL     1      18.788  48.274  50.150  1.00  0.00     0.200 C 
HETATM    2  N   UNL     1      19.613  47.155  49.790  1.00  0.00    -0.336 N 
HETATM    3  C   UNL     1      20.692  47.253  48.953  1.00  0.00     0.255 C 
HETATM    4  O   UNL     1      21.189  46.264  48.423  1.00  0.00    -0.268 OA
HETATM    5  C   UNL     1      21.228  48.604  48.723  1.00  0.00     0.053 A 
HETATM    6  C   UNL     1      20.659  49.657  49.442  1.00  0.00     0.026 A 
HETATM    7  N   UNL     1      19.653  49.429  50.393  1.00  0.00    -0.267 NA
HETATM    8  C   UNL     1      22.280  48.819  47.827  1.00  0.00     0.019 A 
HETATM    9  C   UNL     1      22.796  50.103  47.666  1.00  0.00     0.001 A 
HETATM   10  C   UNL     1      22.272  51.157  48.412  1.00  0.00     0.002 A 
HETATM   11  C   UNL     1      21.221  50.932  49.307  1.00  0.00     0.024 A 
HETATM   12  H   UNL     1      19.161  46.255  49.734  1.00  0.00     0.164 HD
HETATM   13  H   UNL     1      19.129  50.280  50.559  1.00  0.00     0.130 HD
ENDROOT
BRANCH   1  14
HETATM   14  C   UNL     1      17.605  48.629  49.240  1.00  0.00     0.023 A 
HETATM   15  C   UNL     1      17.166  50.000  49.150  1.00  0.00    -0.014 A 
HETATM   16  C   UNL     1      16.174  50.351  48.195  1.00  0.00    -0.025 A 
HETATM   17  C   UNL     1      17.649  51.060  49.965  1.00  0.00     0.013 A 
HETATM   18  C   UNL     1      15.764  51.686  48.040  1.00  0.00     0.012 A 
HETATM   19  C   UNL     1      15.583  49.365  47.402  1.00  0.00     0.015 A 
HETATM   20  C   UNL     1      16.295  52.699  48.833  1.00  0.00     0.001 A 
HETATM   21  C   UNL     1      17.229  52.384  49.805  1.00  0.00     0.001 A 
HETATM   22  C   UNL     1      15.934  48.030  47.552  1.00  0.00     0.038 A 
HETATM   23  C   UNL     1      16.924  47.670  48.464  1.00  0.00     0.076 A 
BRANCH  23  24
HETATM   24  O   UNL     1      17.184  46.339  48.615  1.00  0.00    -0.360 OA
HETATM   25  H   UNL     1      16.671  45.974  49.354  1.00  0.00     0.217 HD
ENDBRANCH  23  24
ENDBRANCH   1  14
TORSDOF 2
ENDMDL
MODEL 4
REMARK VINA RESULT:      -8.6     12.800     14.250
REMARK  2 active torsions:
REMARK  status: ('A' for Active; 'I' for Inactive)
REMARK    1  A    between atoms: C_5  and  C_6 
REMARK    2  A    between atoms: C_17  and  O_18 
ROOT
HETATM    1  C   UNL     1      28.184  49.375  41.963  1.00  0.00     0.200 C 
HETATM    2  N   UNL     1      26.854  49.133  41.481  1.00  0.00    -0.336 N 
HETATM    3  C   UNL     1      26.584  48.556  40.269  1.00  0.00     0.255 C 
HETATM    4  O   UNL     1      25.475  48.635  39.750  1.00  0.00    -0.268 OA
HETATM    5  C   UNL     1      27.691  47.836  39.621  1.00  0.00     0.053 A 
HETATM    6  C   UNL     1      28.889  47.718  40.329  1.00  0.00     0.026 A 
HETATM    7  N   UNL     1      29.015  48.216  41.634  1.00  0.00    -0.267 NA
HETATM    8  C   UNL     1      27.539  47.278  38.347  1.00  0.00     0.019 A 
HETATM    9  C   UNL     1      28.591  46.561  37.780  1.00  0.00     0.001 A 
HETATM   10  C   UNL     1      29.777  46.392  38.493  1.00  0.00     0.002 A 
HETATM   11  C   UNL     1      29.918  46.953  39.767  1.00  0.00     0.024 A 
HETATM   12  H   UNL     1      26.141  49.787  41.765  1.00  0.00     0.164 HD
HETATM   13  H   UNL     1      29.992  48.359  41.861  1.00  0.00     0.130 HD
ENDROOT
BRANCH   1  14
HETATM   14  C   UNL     1      28.869  50.693  41.580  1.00  0.00     0.023 A 
HETATM   15  C   UNL     1      30.298  50.820  41.728  1.00  0.00    -0.014 A 
HETATM   16  C   UNL     1      30.948  51.982  41.232  1.00  0.00    -0.025 A 
HETATM   17  C   UNL     1      31.136  49.856  42.353  1.00  0.00     0.013 A 
HETATM   18  C   UNL     1      32.346  52.113  41.306  1.00  0.00     0.012 A 
HETATM   19  C   UNL     1      30.200  53.020  40.671  1.00  0.00     0.015 A 
HETATM   20  C   UNL     1      33.131  51.124  41.891  1.00  0.00     0.001 A 
HETATM   21  C   UNL     1      32.524  50.000  42.426  1.00  0.00     0.001 A 
HETATM   22  C   UNL     1      28.815  52.943  40.614  1.00  0.00     0.038 A 
HETATM   23  C   UNL     1      28.162  51.801  41.070  1.00  0.00     0.076 A 
BRANCH  23  24
HETATM   24  O   UNL     1      26.798  51.807  41.049  1.00  0.00    -0.360 OA
HETATM   25  H   UNL     1      26.445  52.078  41.912  1.00  0.00     0.217 HD
ENDBRANCH  23  24
ENDBRANCH   1  14
TORSDOF 2
ENDMDL
MODEL 5
REMARK VINA RESULT:      -8.3     13.343     15.231
REMARK  2 active torsions:
REMARK  status: ('A' for Active; 'I' for Inactive)
REMARK    1  A    between atoms: C_5  and  C_6 
REMARK    2  A    between atoms: C_17  and  O_18 
ROOT
HETATM    1  C   UNL     1      28.643  51.622  39.872  1.00  0.00     0.200 C 
HETATM    2  N   UNL     1      27.702  51.462  38.800  1.00  0.00    -0.336 N 
HETATM    3  C   UNL     1      27.262  50.243  38.359  1.00  0.00     0.255 C 
HETATM    4  O   UNL     1      26.710  50.112  37.270  1.00  0.00    -0.268 OA
HETATM    5  C   UNL     1      27.482  49.098  39.257  1.00  0.00     0.053 A 
HETATM    6  C   UNL     1      28.031  49.358  40.513  1.00  0.00     0.026 A 
HETATM    7  N   UNL     1      28.308  50.668  40.930  1.00  0.00    -0.267 NA
HETATM    8  C   UNL     1      27.138  47.800  38.865  1.00  0.00     0.019 A 
HETATM    9  C   UNL     1      27.316  46.743  39.756  1.00  0.00     0.001 A 
HETATM   10  C   UNL     1      27.817  46.992  41.033  1.00  0.00     0.002 A 
HETATM   11  C   UNL     1      28.157  48.294  41.414  1.00  0.00     0.024 A 
HETATM   12  H   UNL     1      27.726  52.153  38.066  1.00  0.00     0.164 HD
HETATM   13  H   UNL     1      28.991  50.661  41.678  1.00  0.00     0.130 HD
ENDROOT
BRANCH   1  14
HETATM   14  C   UNL     1      30.140  51.598  39.536  1.00  0.00     0.023 A 
HETATM   15  C   UNL     1      31.108  51.608  40.606  1.00  0.00    -0.014 A 
HETATM   16  C   UNL     1      32.484  51.432  40.300  1.00  0.00    -0.025 A 
HETATM   17  C   UNL     1      30.793  51.793  41.980  1.00  0.00     0.013 A 
HETATM   18  C   UNL     1      33.448  51.379  41.321  1.00  0.00     0.012 A 
HETATM   19  C   UNL     1      32.900  51.321  38.971  1.00  0.00     0.015 A 
HETATM   20  C   UNL     1      33.089  51.524  42.658  1.00  0.00     0.001 A 
HETATM   21  C   UNL     1      31.762  51.744  42.987  1.00  0.00     0.001 A 
HETATM   22  C   UNL     1      31.982  51.406  37.932  1.00  0.00     0.038 A 
HETATM   23  C   UNL     1      30.625  51.551  38.214  1.00  0.00     0.076 A 
BRANCH  23  24
HETATM   24  O   UNL     1      29.777  51.694  37.155  1.00  0.00    -0.360 OA
HETATM   25  H   UNL     1      30.264  51.978  36.364  1.00  0.00     0.217 HD
ENDBRANCH  23  24
ENDBRANCH   1  14
TORSDOF 2
ENDMDL
MODEL 6
REMARK VINA RESULT:      -8.3     13.006     14.800
REMARK  2 active torsions:
REMARK  status: ('A' for Active; 'I' for Inactive)
REMARK    1  A    between atoms: C_5  and  C_6 
REMARK    2  A    between atoms: C_17  and  O_18 
ROOT
HETATM    1  C   UNL     1      33.098  49.404  40.742  1.00  0.00     0.200 C 
HETATM    2  N   UNL     1      32.168  48.314  40.670  1.00  0.00    -0.336 N 
HETATM    3  C   UNL     1      30.866  48.459  40.270  1.00  0.00     0.255 C 
HETATM    4  O   UNL     1      30.021  47.599  40.501  1.00  0.00    -0.268 OA
HETATM    5  C   UNL     1      30.533  49.696  39.545  1.00  0.00     0.053 A 
HETATM    6  C   UNL     1      31.578  50.571  39.245  1.00  0.00     0.026 A 
HETATM    7  N   UNL     1      32.907  50.256  39.568  1.00  0.00    -0.267 NA
HETATM    8  C   UNL     1      29.217  49.972  39.161  1.00  0.00     0.019 A 
HETATM    9  C   UNL     1      28.941  51.129  38.435  1.00  0.00     0.001 A 
HETATM   10  C   UNL     1      29.980  51.990  38.085  1.00  0.00     0.002 A 
HETATM   11  C   UNL     1      31.293  51.703  38.473  1.00  0.00     0.024 A 
HETATM   12  H   UNL     1      32.285  47.570  41.341  1.00  0.00     0.164 HD
HETATM   13  H   UNL     1      33.467  51.099  39.603  1.00  0.00     0.130 HD
ENDROOT
BRANCH   1  14
HETATM   14  C   UNL     1      33.160  50.224  42.038  1.00  0.00     0.023 A 
HETATM   15  C   UNL     1      34.403  50.844  42.426  1.00  0.00    -0.014 A 
HETATM   16  C   UNL     1      34.422  51.726  43.540  1.00  0.00    -0.025 A 
HETATM   17  C   UNL     1      35.650  50.635  41.775  1.00  0.00     0.013 A 
HETATM   18  C   UNL     1      35.603  52.392  43.912  1.00  0.00     0.012 A 
HETATM   19  C   UNL     1      33.263  51.933  44.291  1.00  0.00     0.015 A 
HETATM   20  C   UNL     1      36.792  52.189  43.220  1.00  0.00     0.001 A 
HETATM   21  C   UNL     1      36.819  51.300  42.158  1.00  0.00     0.001 A 
HETATM   22  C   UNL     1      32.087  51.264  43.978  1.00  0.00     0.038 A 
HETATM   23  C   UNL     1      32.042  50.417  42.873  1.00  0.00     0.076 A 
BRANCH  23  24
HETATM   24  O   UNL     1      30.880  49.738  42.651  1.00  0.00    -0.360 OA
HETATM   25  H   UNL     1      30.957  48.820  42.961  1.00  0.00     0.217 HD
ENDBRANCH  23  24
ENDBRANCH   1  14
TORSDOF 2
ENDMDL
MODEL 7
REMARK VINA RESULT:      -8.3      8.237     10.324
REMARK  2 active torsions:
REMARK  status: ('A' for Active; 'I' for Inactive)
REMARK    1  A    between atoms: C_5  and  C_6 
REMARK    2  A    between atoms: C_17  and  O_18 
ROOT
HETATM    1  C   UNL     1      19.122  48.020  50.031  1.00  0.00     0.200 C 
HETATM    2  N   UNL     1      17.701  47.825  49.964  1.00  0.00    -0.336 N 
HETATM    3  C   UNL     1      17.053  47.383  48.842  1.00  0.00     0.255 C 
HETATM    4  O   UNL     1      15.840  47.512  48.705  1.00  0.00    -0.268 OA
HETATM    5  C   UNL     1      17.884  46.743  47.810  1.00  0.00     0.053 A 
HETATM    6  C   UNL     1      19.237  46.555  48.094  1.00  0.00     0.026 A 
HETATM    7  N   UNL     1      19.776  46.908  49.340  1.00  0.00    -0.267 NA
HETATM    8  C   UNL     1      17.329  46.326  46.595  1.00  0.00     0.019 A 
HETATM    9  C   UNL     1      18.132  45.681  45.657  1.00  0.00     0.001 A 
HETATM   10  C   UNL     1      19.475  45.442  45.945  1.00  0.00     0.002 A 
HETATM   11  C   UNL     1      20.020  45.861  47.163  1.00  0.00     0.024 A 
HETATM   12  H   UNL     1      17.130  48.441  50.523  1.00  0.00     0.164 HD
HETATM   13  H   UNL     1      20.778  47.031  49.266  1.00  0.00     0.130 HD
ENDROOT
BRANCH   1  14
HETATM   14  C   UNL     1      19.692  49.376  49.595  1.00  0.00     0.023 A 
HETATM   15  C   UNL     1      21.047  49.452  49.107  1.00  0.00    -0.014 A 
HETATM   16  C   UNL     1      21.523  50.675  48.563  1.00  0.00    -0.025 A 
HETATM   17  C   UNL     1      21.978  48.378  49.133  1.00  0.00     0.013 A 
HETATM   18  C   UNL     1      22.818  50.770  48.025  1.00  0.00     0.012 A 
HETATM   19  C   UNL     1      20.707  51.809  48.566  1.00  0.00     0.015 A 
HETATM   20  C   UNL     1      23.682  49.680  48.034  1.00  0.00     0.001 A 
HETATM   21  C   UNL     1      23.266  48.486  48.600  1.00  0.00     0.001 A 
HETATM   22  C   UNL     1      19.435  51.765  49.122  1.00  0.00     0.038 A 
HETATM   23  C   UNL     1      18.942  50.568  49.635  1.00  0.00     0.076 A 
BRANCH  23  24
HETATM   24  O   UNL     1      17.712  50.598  50.226  1.00  0.00    -0.360 OA
HETATM   25  H   UNL     1      17.190  51.344  49.887  1.00  0.00     0.217 HD
ENDBRANCH  23  24
ENDBRANCH   1  14
TORSDOF 2
ENDMDL
MODEL 8
REMARK VINA RESULT:      -8.1     13.502     14.746
REMARK  2 active torsions:
REMARK  status: ('A' for Active; 'I' for Inactive)
REMARK    1  A    between atoms: C_5  and  C_6 
REMARK    2  A    between atoms: C_17  and  O_18 
ROOT
HETATM    1  C   UNL     1      30.736  48.750  38.838  1.00  0.00     0.200 C 
HETATM    2  N   UNL     1      30.686  47.316  38.791  1.00  0.00    -0.336 N 
HETATM    3  C   UNL     1      29.651  46.581  39.305  1.00  0.00     0.255 C 
HETATM    4  O   UNL     1      29.762  45.379  39.529  1.00  0.00    -0.268 OA
HETATM    5  C   UNL     1      28.398  47.305  39.574  1.00  0.00     0.053 A 
HETATM    6  C   UNL     1      28.334  48.648  39.200  1.00  0.00     0.026 A 
HETATM    7  N   UNL     1      29.402  49.272  38.538  1.00  0.00    -0.267 NA
HETATM    8  C   UNL     1      27.308  46.661  40.170  1.00  0.00     0.019 A 
HETATM    9  C   UNL     1      26.121  47.362  40.369  1.00  0.00     0.001 A 
HETATM   10  C   UNL     1      26.023  48.690  39.957  1.00  0.00     0.002 A 
HETATM   11  C   UNL     1      27.119  49.324  39.361  1.00  0.00     0.024 A 
HETATM   12  H   UNL     1      31.566  46.827  38.836  1.00  0.00     0.164 HD
HETATM   13  H   UNL     1      29.344  50.277  38.647  1.00  0.00     0.130 HD
ENDROOT
BRANCH   1  14
HETATM   14  C   UNL     1      31.344  49.417  40.078  1.00  0.00     0.023 A 
HETATM   15  C   UNL     1      31.043  50.799  40.359  1.00  0.00    -0.014 A 
HETATM   16  C   UNL     1      31.481  51.371  41.585  1.00  0.00    -0.025 A 
HETATM   17  C   UNL     1      30.334  51.668  39.485  1.00  0.00     0.013 A 
HETATM   18  C   UNL     1      31.156  52.697  41.917  1.00  0.00     0.012 A 
HETATM   19  C   UNL     1      32.253  50.619  42.474  1.00  0.00     0.015 A 
HETATM   20  C   UNL     1      30.423  53.499  41.048  1.00  0.00     0.001 A 
HETATM   21  C   UNL     1      30.022  52.987  39.825  1.00  0.00     0.001 A 
HETATM   22  C   UNL     1      32.625  49.318  42.163  1.00  0.00     0.038 A 
HETATM   23  C   UNL     1      32.183  48.732  40.979  1.00  0.00     0.076 A 
BRANCH  23  24
HETATM   24  O   UNL     1      32.632  47.475  40.696  1.00  0.00    -0.360 OA
HETATM   25  H   UNL     1      33.388  47.512  40.088  1.00  0.00     0.217 HD
ENDBRANCH  23  24
ENDBRANCH   1  14
TORSDOF 2
ENDMDL
MODEL 9
REMARK VINA RESULT:      -7.9      8.986     11.953
REMARK  2 active torsions:
REMARK  status: ('A' for Active; 'I' for Inactive)
REMARK    1  A    between atoms: C_5  and  C_6 
REMARK    2  A    between atoms: C_17  and  O_18 
ROOT
HETATM    1  C   UNL     1      17.328  47.507  49.103  1.00  0.00     0.200 C 
HETATM    2  N   UNL     1      17.003  46.225  48.545  1.00  0.00    -0.336 N 
HETATM    3  C   UNL     1      17.818  45.556  47.671  1.00  0.00     0.255 C 
HETATM    4  O   UNL     1      17.400  44.630  46.982  1.00  0.00    -0.268 OA
HETATM    5  C   UNL     1      19.218  46.001  47.602  1.00  0.00     0.053 A 
HETATM    6  C   UNL     1      19.625  46.997  48.491  1.00  0.00     0.026 A 
HETATM    7  N   UNL     1      18.748  47.514  49.456  1.00  0.00    -0.267 NA
HETATM    8  C   UNL     1      20.110  45.432  46.686  1.00  0.00     0.019 A 
HETATM    9  C   UNL     1      21.441  45.842  46.677  1.00  0.00     0.001 A 
HETATM   10  C   UNL     1      21.876  46.801  47.591  1.00  0.00     0.002 A 
HETATM   11  C   UNL     1      20.976  47.363  48.503  1.00  0.00     0.024 A 
HETATM   12  H   UNL     1      16.026  46.029  48.390  1.00  0.00     0.164 HD
HETATM   13  H   UNL     1      19.068  48.423  49.768  1.00  0.00     0.130 HD
ENDROOT
BRANCH   1  14
HETATM   14  C   UNL     1      16.929  48.764  48.320  1.00  0.00     0.023 A 
HETATM   15  C   UNL     1      17.673  49.985  48.511  1.00  0.00    -0.014 A 
HETATM   16  C   UNL     1      17.402  51.102  47.675  1.00  0.00    -0.025 A 
HETATM   17  C   UNL     1      18.678  50.175  49.498  1.00  0.00     0.013 A 
HETATM   18  C   UNL     1      18.147  52.288  47.795  1.00  0.00     0.012 A 
HETATM   19  C   UNL     1      16.378  51.038  46.728  1.00  0.00     0.015 A 
HETATM   20  C   UNL     1      19.151  52.415  48.749  1.00  0.00     0.001 A 
HETATM   21  C   UNL     1      19.409  51.361  49.610  1.00  0.00     0.001 A 
HETATM   22  C   UNL     1      15.596  49.897  46.606  1.00  0.00     0.038 A 
HETATM   23  C   UNL     1      15.865  48.783  47.397  1.00  0.00     0.076 A 
BRANCH  23  24
HETATM   24  O   UNL     1      15.025  47.713  47.280  1.00  0.00    -0.360 OA
HETATM   25  H   UNL     1      14.677  47.651  46.375  1.00  0.00     0.217 HD
ENDBRANCH  23  24
ENDBRANCH   1  14
TORSDOF 2
ENDMDL
MODEL 10
REMARK VINA RESULT:      -7.9     12.450     14.497
REMARK  2 active torsions:
REMARK  status: ('A' for Active; 'I' for Inactive)
REMARK    1  A    between atoms: C_5  and  C_6 
REMARK    2  A    between atoms: C_17  and  O_18 
ROOT
HETATM    1  C   UNL     1      28.459  51.174  41.336  1.00  0.00     0.200 C 
HETATM    2  N   UNL     1      28.361  52.023  40.182  1.00  0.00    -0.336 N 
HETATM    3  C   UNL     1      27.936  51.583  38.957  1.00  0.00     0.255 C 
HETATM    4  O   UNL     1      28.145  52.227  37.933  1.00  0.00    -0.268 OA
HETATM    5  C   UNL     1      27.215  50.301  38.930  1.00  0.00     0.053 A 
HETATM    6  C   UNL     1      26.941  49.686  40.153  1.00  0.00     0.026 A 
HETATM    7  N   UNL     1      27.287  50.297  41.368  1.00  0.00    -0.267 NA
HETATM    8  C   UNL     1      26.807  49.729  37.720  1.00  0.00     0.019 A 
HETATM    9  C   UNL     1      26.085  48.538  37.730  1.00  0.00     0.001 A 
HETATM   10  C   UNL     1      25.761  47.936  38.945  1.00  0.00     0.002 A 
HETATM   11  C   UNL     1      26.173  48.516  40.150  1.00  0.00     0.024 A 
HETATM   12  H   UNL     1      29.027  52.776  40.113  1.00  0.00     0.164 HD
HETATM   13  H   UNL     1      27.339  49.604  42.105  1.00  0.00     0.130 HD
ENDROOT
BRANCH   1  14
HETATM   14  C   UNL     1      29.761  50.393  41.557  1.00  0.00     0.023 A 
HETATM   15  C   UNL     1      31.003  50.930  41.056  1.00  0.00    -0.014 A 
HETATM   16  C   UNL     1      32.224  50.286  41.393  1.00  0.00    -0.025 A 
HETATM   17  C   UNL     1      31.112  52.076  40.223  1.00  0.00     0.013 A 
HETATM   18  C   UNL     1      33.457  50.813  40.971  1.00  0.00     0.012 A 
HETATM   19  C   UNL     1      32.213  49.107  42.142  1.00  0.00     0.015 A 
HETATM   20  C   UNL     1      33.518  51.962  40.190  1.00  0.00     0.001 A 
HETATM   21  C   UNL     1      32.344  52.588  39.805  1.00  0.00     0.001 A 
HETATM   22  C   UNL     1      31.013  48.535  42.545  1.00  0.00     0.038 A 
HETATM   23  C   UNL     1      29.808  49.166  42.248  1.00  0.00     0.076 A 
BRANCH  23  24
HETATM   24  O   UNL     1      28.659  48.528  42.613  1.00  0.00    -0.360 OA
HETATM   25  H   UNL     1      28.760  48.116  43.486  1.00  0.00     0.217 HD
ENDBRANCH  23  24
ENDBRANCH   1  14
TORSDOF 2
ENDMDL
