MODEL 1
REMARK VINA RESULT:      -9.8      0.000      0.000
REMARK  9 active torsions:
REMARK  status: ('A' for Active; 'I' for Inactive)
REMARK    1  A    between atoms: C_2  and  O_3 
REMARK    2  A    between atoms: O_3  and  C_4 
REMARK    3  A    between atoms: C_6  and  C_7 
REMARK       I    between atoms: C_7  and  N_8 
REMARK    4  A    between atoms: N_8  and  C_9 
REMARK    5  A    between atoms: C_9  and  N_10 
REMARK    6  A    between atoms: N_10  and  C_11 
REMARK    7  A    between atoms: C_14  and  N_15 
REMARK    8  A    between atoms: N_18  and  C_20 
REMARK    9  A    between atoms: C_20  and  C_21 
ROOT
HETATM    1  C   UNL     1      24.587  43.717  50.612  1.00  0.00     0.034 A 
HETATM    2  C   UNL     1      25.157  44.980  50.769  1.00  0.00     0.032 A 
HETATM    3  C   UNL     1      24.625  46.097  50.109  1.00  0.00     0.031 A 
HETATM    4  C   UNL     1      23.493  46.011  49.285  1.00  0.00     0.030 A 
HETATM    5  C   UNL     1      22.918  44.734  49.171  1.00  0.00     0.031 A 
HETATM    6  C   UNL     1      23.454  43.603  49.818  1.00  0.00     0.032 A 
ENDROOT
BRANCH   1   7
HETATM    7  N   UNL     1      25.290  42.626  51.177  1.00  0.00    -0.333 N 
HETATM    8  H   UNL     1      24.929  42.351  52.085  1.00  0.00     0.168 HD
BRANCH   7   9
HETATM    9  C   UNL     1      26.591  42.302  51.024  1.00  0.00     0.179 C 
HETATM   10  S   UNL     1      27.015  41.233  49.806  1.00  0.00    -0.040 SA
BRANCH   9  11
HETATM   11  N   UNL     1      27.594  42.849  51.760  1.00  0.00    -0.299 N 
HETATM   12  C   UNL     1      27.773  42.669  53.129  1.00  0.00     0.257 C 
HETATM   13  O   UNL     1      27.733  41.580  53.696  1.00  0.00    -0.267 OA
HETATM   14  H   UNL     1      27.762  43.780  51.416  1.00  0.00     0.171 HD
BRANCH  12  15
HETATM   15  C   UNL     1      28.131  43.891  53.936  1.00  0.00     0.035 A 
HETATM   16  C   UNL     1      29.288  44.007  54.719  1.00  0.00     0.053 A 
HETATM   17  C   UNL     1      29.558  45.180  55.434  1.00  0.00     0.070 A 
HETATM   18  C   UNL     1      28.698  46.269  55.340  1.00  0.00     0.037 A 
HETATM   19  C   UNL     1      27.546  46.173  54.560  1.00  0.00     0.004 A 
HETATM   20  C   UNL     1      27.261  44.991  53.869  1.00  0.00     0.017 A 
BRANCH  17  21
HETATM   21  O   UNL     1      30.732  45.173  56.137  1.00  0.00    -0.347 OA
BRANCH  21  22
HETATM   22  C   UNL     1      30.761  44.393  57.341  1.00  0.00     0.120 C 
HETATM   23  C   UNL     1      30.978  45.321  58.531  1.00  0.00     0.040 C 
HETATM   24  C   UNL     1      31.932  43.421  57.209  1.00  0.00     0.040 C 
ENDBRANCH  21  22
ENDBRANCH  17  21
ENDBRANCH  12  15
ENDBRANCH   9  11
ENDBRANCH   7   9
ENDBRANCH   1   7
BRANCH   4  25
HETATM   25  N   UNL     1      23.035  47.119  48.579  1.00  0.00    -0.378 N 
HETATM   26  C   UNL     1      23.803  48.382  48.611  1.00  0.00     0.150 C 
HETATM   27  C   UNL     1      23.157  49.379  49.596  1.00  0.00     0.255 C 
HETATM   28  N   UNL     1      21.680  49.588  49.256  1.00  0.00    -0.064 N 
HETATM   29  H   UNL     1      21.639  49.963  48.297  1.00  0.00     0.280 HD
HETATM   30  C   UNL     1      20.932  48.255  49.233  1.00  0.00     0.255 C 
HETATM   31  C   UNL     1      21.612  47.289  48.241  1.00  0.00     0.150 C 
BRANCH  28  32
HETATM   32  C   UNL     1      21.011  50.609  50.140  1.00  0.00     0.276 C 
BRANCH  32  33
HETATM   33  C   UNL     1      19.742  51.170  49.566  1.00  0.00     0.006 A 
HETATM   34  C   UNL     1      18.504  50.760  50.072  1.00  0.00     0.124 A 
HETATM   35  F   UNL     1      18.476  49.818  51.027  1.00  0.00    -0.206 F 
HETATM   36  C   UNL     1      17.307  51.274  49.588  1.00  0.00     0.043 A 
HETATM   37  C   UNL     1      17.337  52.230  48.576  1.00  0.00     0.003 A 
HETATM   38  C   UNL     1      18.560  52.661  48.061  1.00  0.00     0.001 A 
HETATM   39  C   UNL     1      19.760  52.138  48.553  1.00  0.00     0.012 A 
ENDBRANCH  32  33
ENDBRANCH  28  32
ENDBRANCH   4  25
TORSDOF 9
ENDMDL
MODEL 2
REMARK VINA RESULT:      -9.8      4.514     11.971
REMARK  9 active torsions:
REMARK  status: ('A' for Active; 'I' for Inactive)
REMARK    1  A    between atoms: C_2  and  O_3 
REMARK    2  A    between atoms: O_3  and  C_4 
REMARK    3  A    between atoms: C_6  and  C_7 
REMARK       I    between atoms: C_7  and  N_8 
REMARK    4  A    between atoms: N_8  and  C_9 
REMARK    5  A    between atoms: C_9  and  N_10 
REMARK    6  A    between atoms: N_10  and  C_11 
REMARK    7  A    between atoms: C_14  and  N_15 
REMARK    8  A    between atoms: N_18  and  C_20 
REMARK    9  A    between atoms: C_20  and  C_21 
ROOT
HETATM    1  C   UNL     1      23.839  46.710  49.583  1.00  0.00     0.034 A 
HETATM    2  C   UNL     1      24.735  47.332  50.452  1.00  0.00     0.032 A 
HETATM    3  C   UNL     1      25.367  46.609  51.473  1.00  0.00     0.031 A 
HETATM    4  C   UNL     1      25.156  45.235  51.660  1.00  0.00     0.030 A 
HETATM    5  C   UNL     1      24.276  44.625  50.750  1.00  0.00     0.031 A 
HETATM    6  C   UNL     1      23.624  45.346  49.730  1.00  0.00     0.032 A 
ENDROOT
BRANCH   1   7
HETATM    7  N   UNL     1      23.123  47.549  48.697  1.00  0.00    -0.333 N 
HETATM    8  H   UNL     1      23.608  47.702  47.818  1.00  0.00     0.168 HD
BRANCH   7   9
HETATM    9  C   UNL     1      22.284  48.562  49.001  1.00  0.00     0.179 C 
HETATM   10  S   UNL     1      22.806  50.136  48.761  1.00  0.00    -0.040 SA
BRANCH   9  11
HETATM   11  N   UNL     1      21.008  48.380  49.428  1.00  0.00    -0.299 N 
HETATM   12  C   UNL     1      20.109  47.460  48.895  1.00  0.00     0.257 C 
HETATM   13  O   UNL     1      20.374  46.282  48.672  1.00  0.00    -0.267 OA
HETATM   14  H   UNL     1      20.624  49.281  49.661  1.00  0.00     0.171 HD
BRANCH  12  15
HETATM   15  C   UNL     1      18.697  47.937  48.672  1.00  0.00     0.035 A 
HETATM   16  C   UNL     1      18.317  49.286  48.636  1.00  0.00     0.053 A 
HETATM   17  C   UNL     1      16.985  49.653  48.411  1.00  0.00     0.070 A 
HETATM   18  C   UNL     1      16.022  48.677  48.175  1.00  0.00     0.037 A 
HETATM   19  C   UNL     1      16.383  47.331  48.200  1.00  0.00     0.004 A 
HETATM   20  C   UNL     1      17.709  46.963  48.453  1.00  0.00     0.017 A 
BRANCH  17  21
HETATM   21  O   UNL     1      16.752  51.001  48.375  1.00  0.00    -0.347 OA
BRANCH  21  22
HETATM   22  C   UNL     1      16.626  51.671  49.637  1.00  0.00     0.120 C 
HETATM   23  C   UNL     1      15.253  52.330  49.716  1.00  0.00     0.040 C 
HETATM   24  C   UNL     1      17.724  52.731  49.687  1.00  0.00     0.040 C 
ENDBRANCH  21  22
ENDBRANCH  17  21
ENDBRANCH  12  15
ENDBRANCH   9  11
ENDBRANCH   7   9
ENDBRANCH   1   7
BRANCH   4  25
HETATM   25  N   UNL     1      25.735  44.560  52.730  1.00  0.00    -0.378 N 
HETATM   26  C   UNL     1      25.350  44.906  54.114  1.00  0.00     0.150 C 
HETATM   27  C   UNL     1      26.424  45.806  54.761  1.00  0.00     0.255 C 
HETATM   28  N   UNL     1      27.802  45.145  54.672  1.00  0.00    -0.064 N 
HETATM   29  H   UNL     1      27.742  44.248  55.177  1.00  0.00     0.280 HD
HETATM   30  C   UNL     1      28.151  44.804  53.223  1.00  0.00     0.255 C 
HETATM   31  C   UNL     1      27.051  43.910  52.615  1.00  0.00     0.150 C 
BRANCH  28  32
HETATM   32  C   UNL     1      28.884  45.944  55.352  1.00  0.00     0.276 C 
BRANCH  32  33
HETATM   33  C   UNL     1      29.893  45.103  56.080  1.00  0.00     0.006 A 
HETATM   34  C   UNL     1      30.256  45.426  57.392  1.00  0.00     0.124 A 
HETATM   35  F   UNL     1      29.735  46.527  57.955  1.00  0.00    -0.206 F 
HETATM   36  C   UNL     1      31.165  44.660  58.111  1.00  0.00     0.043 A 
HETATM   37  C   UNL     1      31.727  43.534  57.515  1.00  0.00     0.003 A 
HETATM   38  C   UNL     1      31.374  43.187  56.210  1.00  0.00     0.001 A 
HETATM   39  C   UNL     1      30.459  43.964  55.494  1.00  0.00     0.012 A 
ENDBRANCH  32  33
ENDBRANCH  28  32
ENDBRANCH   4  25
TORSDOF 9
ENDMDL
MODEL 3
REMARK VINA RESULT:      -9.6      1.147      2.206
REMARK  9 active torsions:
REMARK  status: ('A' for Active; 'I' for Inactive)
REMARK    1  A    between atoms: C_2  and  O_3 
REMARK    2  A    between atoms: O_3  and  C_4 
REMARK    3  A    between atoms: C_6  and  C_7 
REMARK       I    between atoms: C_7  and  N_8 
REMARK    4  A    between atoms: N_8  and  C_9 
REMARK    5  A    between atoms: C_9  and  N_10 
REMARK    6  A    between atoms: N_10  and  C_11 
REMARK    7  A    between atoms: C_14  and  N_15 
REMARK    8  A    between atoms: N_18  and  C_20 
REMARK    9  A    between atoms: C_20  and  C_21 
ROOT
HETATM    1  C   UNL     1      24.382  43.554  50.638  1.00  0.00     0.034 A 
HETATM    2  C   UNL     1      25.005  44.792  50.791  1.00  0.00     0.032 A 
HETATM    3  C   UNL     1      24.523  45.928  50.125  1.00  0.00     0.031 A 
HETATM    4  C   UNL     1      23.389  45.887  49.300  1.00  0.00     0.030 A 
HETATM    5  C   UNL     1      22.760  44.636  49.191  1.00  0.00     0.031 A 
HETATM    6  C   UNL     1      23.246  43.486  49.843  1.00  0.00     0.032 A 
ENDROOT
BRANCH   1   7
HETATM    7  N   UNL     1      25.036  42.436  51.209  1.00  0.00    -0.333 N 
HETATM    8  H   UNL     1      24.732  42.242  52.158  1.00  0.00     0.168 HD
BRANCH   7   9
HETATM    9  C   UNL     1      26.289  41.992  50.974  1.00  0.00     0.179 C 
HETATM   10  S   UNL     1      26.521  40.839  49.780  1.00  0.00    -0.040 SA
BRANCH   9  11
HETATM   11  N   UNL     1      27.391  42.478  51.603  1.00  0.00    -0.299 N 
HETATM   12  C   UNL     1      27.824  42.096  52.870  1.00  0.00     0.257 C 
HETATM   13  O   UNL     1      27.925  40.932  53.245  1.00  0.00    -0.267 OA
HETATM   14  H   UNL     1      27.461  43.461  51.394  1.00  0.00     0.171 HD
BRANCH  12  15
HETATM   15  C   UNL     1      28.282  43.195  53.794  1.00  0.00     0.035 A 
HETATM   16  C   UNL     1      27.473  44.262  54.212  1.00  0.00     0.053 A 
HETATM   17  C   UNL     1      27.966  45.240  55.083  1.00  0.00     0.070 A 
HETATM   18  C   UNL     1      29.260  45.142  55.583  1.00  0.00     0.037 A 
HETATM   19  C   UNL     1      30.076  44.084  55.183  1.00  0.00     0.004 A 
HETATM   20  C   UNL     1      29.593  43.122  54.291  1.00  0.00     0.017 A 
BRANCH  17  21
HETATM   21  O   UNL     1      27.068  46.211  55.433  1.00  0.00    -0.347 OA
BRANCH  21  22
HETATM   22  C   UNL     1      27.121  47.440  54.695  1.00  0.00     0.120 C 
HETATM   23  C   UNL     1      26.677  48.584  55.599  1.00  0.00     0.040 C 
HETATM   24  C   UNL     1      26.158  47.291  53.519  1.00  0.00     0.040 C 
ENDBRANCH  21  22
ENDBRANCH  17  21
ENDBRANCH  12  15
ENDBRANCH   9  11
ENDBRANCH   7   9
ENDBRANCH   1   7
BRANCH   4  25
HETATM   25  N   UNL     1      22.980  47.011  48.589  1.00  0.00    -0.378 N 
HETATM   26  C   UNL     1      23.794  48.244  48.627  1.00  0.00     0.150 C 
HETATM   27  C   UNL     1      23.176  49.266  49.605  1.00  0.00     0.255 C 
HETATM   28  N   UNL     1      21.711  49.529  49.249  1.00  0.00    -0.064 N 
HETATM   29  H   UNL     1      21.694  49.904  48.290  1.00  0.00     0.280 HD
HETATM   30  C   UNL     1      20.914  48.224  49.219  1.00  0.00     0.255 C 
HETATM   31  C   UNL     1      21.568  47.233  48.236  1.00  0.00     0.150 C 
BRANCH  28  32
HETATM   32  C   UNL     1      21.071  50.575  50.125  1.00  0.00     0.276 C 
BRANCH  32  33
HETATM   33  C   UNL     1      19.801  51.144  49.562  1.00  0.00     0.006 A 
HETATM   34  C   UNL     1      18.565  50.747  50.083  1.00  0.00     0.124 A 
HETATM   35  F   UNL     1      18.539  49.810  51.043  1.00  0.00    -0.206 F 
HETATM   36  C   UNL     1      17.367  51.269  49.610  1.00  0.00     0.043 A 
HETATM   37  C   UNL     1      17.394  52.219  48.593  1.00  0.00     0.003 A 
HETATM   38  C   UNL     1      18.615  52.637  48.063  1.00  0.00     0.001 A 
HETATM   39  C   UNL     1      19.816  52.107  48.545  1.00  0.00     0.012 A 
ENDBRANCH  32  33
ENDBRANCH  28  32
ENDBRANCH   4  25
TORSDOF 9
ENDMDL
MODEL 4
REMARK VINA RESULT:      -9.5      4.187     11.557
REMARK  9 active torsions:
REMARK  status: ('A' for Active; 'I' for Inactive)
REMARK    1  A    between atoms: C_2  and  O_3 
REMARK    2  A    between atoms: O_3  and  C_4 
REMARK    3  A    between atoms: C_6  and  C_7 
REMARK       I    between atoms: C_7  and  N_8 
REMARK    4  A    between atoms: N_8  and  C_9 
REMARK    5  A    between atoms: C_9  and  N_10 
REMARK    6  A    between atoms: N_10  and  C_11 
REMARK    7  A    between atoms: C_14  and  N_15 
REMARK    8  A    between atoms: N_18  and  C_20 
REMARK    9  A    between atoms: C_20  and  C_21 
ROOT
HETATM    1  C   UNL     1      23.767  44.965  49.116  1.00  0.00     0.034 A 
HETATM    2  C   UNL     1      24.228  45.929  50.012  1.00  0.00     0.032 A 
HETATM    3  C   UNL     1      24.864  45.556  51.205  1.00  0.00     0.031 A 
HETATM    4  C   UNL     1      25.089  44.215  51.547  1.00  0.00     0.030 A 
HETATM    5  C   UNL     1      24.646  43.266  50.611  1.00  0.00     0.031 A 
HETATM    6  C   UNL     1      23.993  43.628  49.417  1.00  0.00     0.032 A 
ENDROOT
BRANCH   1   7
HETATM    7  N   UNL     1      22.991  45.427  48.027  1.00  0.00    -0.333 N 
HETATM    8  H   UNL     1      23.544  45.895  47.316  1.00  0.00     0.168 HD
BRANCH   7   9
HETATM    9  C   UNL     1      21.708  45.849  48.035  1.00  0.00     0.179 C 
HETATM   10  S   UNL     1      20.543  44.864  48.727  1.00  0.00    -0.040 SA
BRANCH   9  11
HETATM   11  N   UNL     1      21.313  47.065  47.576  1.00  0.00    -0.299 N 
HETATM   12  C   UNL     1      21.870  48.284  47.953  1.00  0.00     0.257 C 
HETATM   13  O   UNL     1      23.076  48.511  47.994  1.00  0.00    -0.267 OA
HETATM   14  H   UNL     1      20.311  47.053  47.482  1.00  0.00     0.171 HD
BRANCH  12  15
HETATM   15  C   UNL     1      20.913  49.413  48.237  1.00  0.00     0.035 A 
HETATM   16  C   UNL     1      19.560  49.236  48.563  1.00  0.00     0.053 A 
HETATM   17  C   UNL     1      18.734  50.335  48.825  1.00  0.00     0.070 A 
HETATM   18  C   UNL     1      19.259  51.623  48.809  1.00  0.00     0.037 A 
HETATM   19  C   UNL     1      20.603  51.817  48.494  1.00  0.00     0.004 A 
HETATM   20  C   UNL     1      21.422  50.721  48.204  1.00  0.00     0.017 A 
BRANCH  17  21
HETATM   21  O   UNL     1      17.443  50.025  49.156  1.00  0.00    -0.347 OA
BRANCH  21  22
HETATM   22  C   UNL     1      16.418  50.479  48.261  1.00  0.00     0.120 C 
HETATM   23  C   UNL     1      15.593  51.557  48.956  1.00  0.00     0.040 C 
HETATM   24  C   UNL     1      15.543  49.269  47.940  1.00  0.00     0.040 C 
ENDBRANCH  21  22
ENDBRANCH  17  21
ENDBRANCH  12  15
ENDBRANCH   9  11
ENDBRANCH   7   9
ENDBRANCH   1   7
BRANCH   4  25
HETATM   25  N   UNL     1      25.650  43.872  52.773  1.00  0.00    -0.378 N 
HETATM   26  C   UNL     1      25.281  44.627  53.989  1.00  0.00     0.150 C 
HETATM   27  C   UNL     1      26.384  45.646  54.345  1.00  0.00     0.255 C 
HETATM   28  N   UNL     1      27.740  44.948  54.465  1.00  0.00    -0.064 N 
HETATM   29  H   UNL     1      27.655  44.245  55.214  1.00  0.00     0.280 HD
HETATM   30  C   UNL     1      28.074  44.180  53.186  1.00  0.00     0.255 C 
HETATM   31  C   UNL     1      26.946  43.179  52.866  1.00  0.00     0.150 C 
BRANCH  28  32
HETATM   32  C   UNL     1      28.848  45.881  54.883  1.00  0.00     0.276 C 
BRANCH  32  33
HETATM   33  C   UNL     1      29.636  45.396  56.065  1.00  0.00     0.006 A 
HETATM   34  C   UNL     1      30.596  44.392  55.901  1.00  0.00     0.124 A 
HETATM   35  F   UNL     1      30.749  43.835  54.690  1.00  0.00    -0.206 F 
HETATM   36  C   UNL     1      31.367  43.933  56.962  1.00  0.00     0.043 A 
HETATM   37  C   UNL     1      31.186  44.490  58.225  1.00  0.00     0.003 A 
HETATM   38  C   UNL     1      30.239  45.499  58.412  1.00  0.00     0.001 A 
HETATM   39  C   UNL     1      29.468  45.954  57.339  1.00  0.00     0.012 A 
ENDBRANCH  32  33
ENDBRANCH  28  32
ENDBRANCH   4  25
TORSDOF 9
ENDMDL
MODEL 5
REMARK VINA RESULT:      -9.2      2.600      4.366
REMARK  9 active torsions:
REMARK  status: ('A' for Active; 'I' for Inactive)
REMARK    1  A    between atoms: C_2  and  O_3 
REMARK    2  A    between atoms: O_3  and  C_4 
REMARK    3  A    between atoms: C_6  and  C_7 
REMARK       I    between atoms: C_7  and  N_8 
REMARK    4  A    between atoms: N_8  and  C_9 
REMARK    5  A    between atoms: C_9  and  N_10 
REMARK    6  A    between atoms: N_10  and  C_11 
REMARK    7  A    between atoms: C_14  and  N_15 
REMARK    8  A    between atoms: N_18  and  C_20 
REMARK    9  A    between atoms: C_20  and  C_21 
ROOT
HETATM    1  C   UNL     1      23.140  47.488  49.034  1.00  0.00     0.034 A 
HETATM    2  C   UNL     1      23.401  48.837  49.272  1.00  0.00     0.032 A 
HETATM    3  C   UNL     1      22.485  49.827  48.888  1.00  0.00     0.031 A 
HETATM    4  C   UNL     1      21.262  49.518  48.274  1.00  0.00     0.030 A 
HETATM    5  C   UNL     1      21.008  48.150  48.078  1.00  0.00     0.031 A 
HETATM    6  C   UNL     1      21.929  47.149  48.446  1.00  0.00     0.032 A 
ENDROOT
BRANCH   1   7
HETATM    7  N   UNL     1      24.191  46.579  49.300  1.00  0.00    -0.333 N 
HETATM    8  H   UNL     1      24.677  46.279  48.460  1.00  0.00     0.168 HD
BRANCH   7   9
HETATM    9  C   UNL     1      24.275  45.666  50.292  1.00  0.00     0.179 C 
HETATM   10  S   UNL     1      24.027  44.051  49.920  1.00  0.00    -0.040 SA
BRANCH   9  11
HETATM   11  N   UNL     1      24.620  45.973  51.569  1.00  0.00    -0.299 N 
HETATM   12  C   UNL     1      25.741  46.708  51.942  1.00  0.00     0.257 C 
HETATM   13  O   UNL     1      26.076  47.771  51.425  1.00  0.00    -0.267 OA
HETATM   14  H   UNL     1      24.405  45.179  52.150  1.00  0.00     0.171 HD
BRANCH  12  15
HETATM   15  C   UNL     1      26.531  46.198  53.119  1.00  0.00     0.035 A 
HETATM   16  C   UNL     1      26.914  44.860  53.292  1.00  0.00     0.053 A 
HETATM   17  C   UNL     1      27.658  44.463  54.409  1.00  0.00     0.070 A 
HETATM   18  C   UNL     1      28.070  45.405  55.345  1.00  0.00     0.037 A 
HETATM   19  C   UNL     1      27.704  46.742  55.185  1.00  0.00     0.004 A 
HETATM   20  C   UNL     1      26.936  47.134  54.085  1.00  0.00     0.017 A 
BRANCH  17  21
HETATM   21  O   UNL     1      27.987  43.135  54.444  1.00  0.00    -0.347 OA
BRANCH  21  22
HETATM   22  C   UNL     1      28.628  42.595  53.279  1.00  0.00     0.120 C 
HETATM   23  C   UNL     1      28.372  41.094  53.221  1.00  0.00     0.040 C 
HETATM   24  C   UNL     1      30.122  42.872  53.429  1.00  0.00     0.040 C 
ENDBRANCH  21  22
ENDBRANCH  17  21
ENDBRANCH  12  15
ENDBRANCH   9  11
ENDBRANCH   7   9
ENDBRANCH   1   7
BRANCH   4  25
HETATM   25  N   UNL     1      20.408  50.523  47.832  1.00  0.00    -0.378 N 
HETATM   26  C   UNL     1      20.253  51.760  48.626  1.00  0.00     0.150 C 
HETATM   27  C   UNL     1      18.945  51.711  49.444  1.00  0.00     0.255 C 
HETATM   28  N   UNL     1      17.750  51.436  48.528  1.00  0.00    -0.064 N 
HETATM   29  H   UNL     1      17.709  52.204  47.842  1.00  0.00     0.280 HD
HETATM   30  C   UNL     1      17.961  50.151  47.727  1.00  0.00     0.255 C 
HETATM   31  C   UNL     1      19.279  50.240  46.931  1.00  0.00     0.150 C 
BRANCH  28  32
HETATM   32  C   UNL     1      16.432  51.449  49.259  1.00  0.00     0.276 C 
BRANCH  32  33
HETATM   33  C   UNL     1      15.721  52.771  49.206  1.00  0.00     0.006 A 
HETATM   34  C   UNL     1      14.946  53.103  48.090  1.00  0.00     0.124 A 
HETATM   35  F   UNL     1      14.905  52.251  47.054  1.00  0.00    -0.206 F 
HETATM   36  C   UNL     1      14.250  54.303  48.011  1.00  0.00     0.043 A 
HETATM   37  C   UNL     1      14.319  55.200  49.073  1.00  0.00     0.003 A 
HETATM   38  C   UNL     1      15.079  54.887  50.201  1.00  0.00     0.001 A 
HETATM   39  C   UNL     1      15.776  53.678  50.272  1.00  0.00     0.012 A 
ENDBRANCH  32  33
ENDBRANCH  28  32
ENDBRANCH   4  25
TORSDOF 9
ENDMDL
MODEL 6
REMARK VINA RESULT:      -9.0      4.749     12.216
REMARK  9 active torsions:
REMARK  status: ('A' for Active; 'I' for Inactive)
REMARK    1  A    between atoms: C_2  and  O_3 
REMARK    2  A    between atoms: O_3  and  C_4 
REMARK    3  A    between atoms: C_6  and  C_7 
REMARK       I    between atoms: C_7  and  N_8 
REMARK    4  A    between atoms: N_8  and  C_9 
REMARK    5  A    between atoms: C_9  and  N_10 
REMARK    6  A    between atoms: N_10  and  C_11 
REMARK    7  A    between atoms: C_14  and  N_15 
REMARK    8  A    between atoms: N_18  and  C_20 
REMARK    9  A    between atoms: C_20  and  C_21 
ROOT
HETATM    1  C   UNL     1      24.717  46.549  50.778  1.00  0.00     0.034 A 
HETATM    2  C   UNL     1      25.533  46.769  51.887  1.00  0.00     0.032 A 
HETATM    3  C   UNL     1      26.226  45.710  52.492  1.00  0.00     0.031 A 
HETATM    4  C   UNL     1      26.156  44.396  52.008  1.00  0.00     0.030 A 
HETATM    5  C   UNL     1      25.355  44.208  50.870  1.00  0.00     0.031 A 
HETATM    6  C   UNL     1      24.643  45.262  50.263  1.00  0.00     0.032 A 
ENDROOT
BRANCH   1   7
HETATM    7  N   UNL     1      23.927  47.639  50.341  1.00  0.00    -0.333 N 
HETATM    8  H   UNL     1      22.945  47.535  50.574  1.00  0.00     0.168 HD
BRANCH   7   9
HETATM    9  C   UNL     1      24.116  48.427  49.261  1.00  0.00     0.179 C 
HETATM   10  S   UNL     1      25.675  48.909  48.881  1.00  0.00    -0.040 SA
BRANCH   9  11
HETATM   11  N   UNL     1      23.118  48.798  48.417  1.00  0.00    -0.299 N 
HETATM   12  C   UNL     1      22.881  50.097  47.978  1.00  0.00     0.257 C 
HETATM   13  O   UNL     1      23.748  50.850  47.543  1.00  0.00    -0.267 OA
HETATM   14  H   UNL     1      22.300  48.257  48.644  1.00  0.00     0.171 HD
BRANCH  12  15
HETATM   15  C   UNL     1      21.447  50.559  47.957  1.00  0.00     0.035 A 
HETATM   16  C   UNL     1      20.512  50.184  46.980  1.00  0.00     0.053 A 
HETATM   17  C   UNL     1      19.191  50.645  47.034  1.00  0.00     0.070 A 
HETATM   18  C   UNL     1      18.775  51.451  48.089  1.00  0.00     0.037 A 
HETATM   19  C   UNL     1      19.689  51.828  49.072  1.00  0.00     0.004 A 
HETATM   20  C   UNL     1      21.016  51.390  49.003  1.00  0.00     0.017 A 
BRANCH  17  21
HETATM   21  O   UNL     1      18.376  50.185  46.037  1.00  0.00    -0.347 OA
BRANCH  21  22
HETATM   22  C   UNL     1      18.015  51.121  45.011  1.00  0.00     0.120 C 
HETATM   23  C   UNL     1      16.510  51.356  45.056  1.00  0.00     0.040 C 
HETATM   24  C   UNL     1      18.412  50.489  43.678  1.00  0.00     0.040 C 
ENDBRANCH  21  22
ENDBRANCH  17  21
ENDBRANCH  12  15
ENDBRANCH   9  11
ENDBRANCH   7   9
ENDBRANCH   1   7
BRANCH   4  25
HETATM   25  N   UNL     1      26.791  43.352  52.675  1.00  0.00    -0.378 N 
HETATM   26  C   UNL     1      26.786  43.311  54.152  1.00  0.00     0.150 C 
HETATM   27  C   UNL     1      28.136  43.810  54.708  1.00  0.00     0.255 C 
HETATM   28  N   UNL     1      29.294  43.020  54.093  1.00  0.00    -0.064 N 
HETATM   29  H   UNL     1      29.153  42.031  54.344  1.00  0.00     0.280 HD
HETATM   30  C   UNL     1      29.252  43.091  52.567  1.00  0.00     0.255 C 
HETATM   31  C   UNL     1      27.886  42.589  52.055  1.00  0.00     0.150 C 
BRANCH  28  32
HETATM   32  C   UNL     1      30.637  43.413  54.652  1.00  0.00     0.276 C 
BRANCH  32  33
HETATM   33  C   UNL     1      30.557  44.220  55.916  1.00  0.00     0.006 A 
HETATM   34  C   UNL     1      31.302  43.840  57.037  1.00  0.00     0.124 A 
HETATM   35  F   UNL     1      32.032  42.715  56.977  1.00  0.00    -0.206 F 
HETATM   36  C   UNL     1      31.278  44.573  58.217  1.00  0.00     0.043 A 
HETATM   37  C   UNL     1      30.496  45.723  58.287  1.00  0.00     0.003 A 
HETATM   38  C   UNL     1      29.750  46.127  57.179  1.00  0.00     0.001 A 
HETATM   39  C   UNL     1      29.780  45.383  55.995  1.00  0.00     0.012 A 
ENDBRANCH  32  33
ENDBRANCH  28  32
ENDBRANCH   4  25
TORSDOF 9
ENDMDL
MODEL 7
REMARK VINA RESULT:      -8.8      4.850     12.350
REMARK  9 active torsions:
REMARK  status: ('A' for Active; 'I' for Inactive)
REMARK    1  A    between atoms: C_2  and  O_3 
REMARK    2  A    between atoms: O_3  and  C_4 
REMARK    3  A    between atoms: C_6  and  C_7 
REMARK       I    between atoms: C_7  and  N_8 
REMARK    4  A    between atoms: N_8  and  C_9 
REMARK    5  A    between atoms: C_9  and  N_10 
REMARK    6  A    between atoms: N_10  and  C_11 
REMARK    7  A    between atoms: C_14  and  N_15 
REMARK    8  A    between atoms: N_18  and  C_20 
REMARK    9  A    between atoms: C_20  and  C_21 
ROOT
HETATM    1  C   UNL     1      21.501  47.558  48.780  1.00  0.00     0.034 A 
HETATM    2  C   UNL     1      22.402  48.537  49.197  1.00  0.00     0.032 A 
HETATM    3  C   UNL     1      23.713  48.201  49.561  1.00  0.00     0.031 A 
HETATM    4  C   UNL     1      24.193  46.884  49.505  1.00  0.00     0.030 A 
HETATM    5  C   UNL     1      23.276  45.922  49.049  1.00  0.00     0.031 A 
HETATM    6  C   UNL     1      21.951  46.247  48.695  1.00  0.00     0.032 A 
ENDROOT
BRANCH   1   7
HETATM    7  N   UNL     1      20.158  47.963  48.597  1.00  0.00    -0.333 N 
HETATM    8  H   UNL     1      19.494  47.362  49.076  1.00  0.00     0.168 HD
BRANCH   7   9
HETATM    9  C   UNL     1      19.610  48.580  47.528  1.00  0.00     0.179 C 
HETATM   10  S   UNL     1      19.391  47.700  46.119  1.00  0.00    -0.040 SA
BRANCH   9  11
HETATM   11  N   UNL     1      19.158  49.861  47.549  1.00  0.00    -0.299 N 
HETATM   12  C   UNL     1      18.911  50.605  48.698  1.00  0.00     0.257 C 
HETATM   13  O   UNL     1      19.686  50.693  49.647  1.00  0.00    -0.267 OA
HETATM   14  H   UNL     1      18.486  49.967  46.806  1.00  0.00     0.171 HD
BRANCH  12  15
HETATM   15  C   UNL     1      17.646  51.423  48.723  1.00  0.00     0.035 A 
HETATM   16  C   UNL     1      17.371  52.422  49.668  1.00  0.00     0.053 A 
HETATM   17  C   UNL     1      16.175  53.149  49.619  1.00  0.00     0.070 A 
HETATM   18  C   UNL     1      15.260  52.920  48.598  1.00  0.00     0.037 A 
HETATM   19  C   UNL     1      15.521  51.937  47.645  1.00  0.00     0.004 A 
HETATM   20  C   UNL     1      16.701  51.190  47.710  1.00  0.00     0.017 A 
BRANCH  17  21
HETATM   21  O   UNL     1      16.042  54.110  50.584  1.00  0.00    -0.347 OA
BRANCH  21  22
HETATM   22  C   UNL     1      14.860  54.921  50.531  1.00  0.00     0.120 C 
HETATM   23  C   UNL     1      15.263  56.379  50.344  1.00  0.00     0.040 C 
HETATM   24  C   UNL     1      14.140  54.740  51.866  1.00  0.00     0.040 C 
ENDBRANCH  21  22
ENDBRANCH  17  21
ENDBRANCH  12  15
ENDBRANCH   9  11
ENDBRANCH   7   9
ENDBRANCH   1   7
BRANCH   4  25
HETATM   25  N   UNL     1      25.473  46.568  49.948  1.00  0.00    -0.378 N 
HETATM   26  C   UNL     1      25.997  45.198  49.769  1.00  0.00     0.150 C 
HETATM   27  C   UNL     1      25.897  44.408  51.091  1.00  0.00     0.255 C 
HETATM   28  N   UNL     1      26.589  45.168  52.224  1.00  0.00    -0.064 N 
HETATM   29  H   UNL     1      27.578  45.281  51.955  1.00  0.00     0.280 HD
HETATM   30  C   UNL     1      26.015  46.578  52.365  1.00  0.00     0.255 C 
HETATM   31  C   UNL     1      26.130  47.329  51.023  1.00  0.00     0.150 C 
BRANCH  28  32
HETATM   32  C   UNL     1      26.588  44.412  53.528  1.00  0.00     0.276 C 
BRANCH  32  33
HETATM   33  C   UNL     1      27.957  44.194  54.104  1.00  0.00     0.006 A 
HETATM   34  C   UNL     1      28.471  45.091  55.046  1.00  0.00     0.124 A 
HETATM   35  F   UNL     1      27.746  46.173  55.372  1.00  0.00    -0.206 F 
HETATM   36  C   UNL     1      29.722  44.912  55.624  1.00  0.00     0.043 A 
HETATM   37  C   UNL     1      30.485  43.805  55.263  1.00  0.00     0.003 A 
HETATM   38  C   UNL     1      29.991  42.891  54.331  1.00  0.00     0.001 A 
HETATM   39  C   UNL     1      28.731  43.080  53.754  1.00  0.00     0.012 A 
ENDBRANCH  32  33
ENDBRANCH  28  32
ENDBRANCH   4  25
TORSDOF 9
ENDMDL
MODEL 8
REMARK VINA RESULT:      -8.8      4.312     11.086
REMARK  9 active torsions:
REMARK  status: ('A' for Active; 'I' for Inactive)
REMARK    1  A    between atoms: C_2  and  O_3 
REMARK    2  A    between atoms: O_3  and  C_4 
REMARK    3  A    between atoms: C_6  and  C_7 
REMARK       I    between atoms: C_7  and  N_8 
REMARK    4  A    between atoms: N_8  and  C_9 
REMARK    5  A    between atoms: C_9  and  N_10 
REMARK    6  A    between atoms: N_10  and  C_11 
REMARK    7  A    between atoms: C_14  and  N_15 
REMARK    8  A    between atoms: N_18  and  C_20 
REMARK    9  A    between atoms: C_20  and  C_21 
ROOT
HETATM    1  C   UNL     1      24.797  43.974  49.323  1.00  0.00     0.034 A 
HETATM    2  C   UNL     1      24.421  45.145  49.981  1.00  0.00     0.032 A 
HETATM    3  C   UNL     1      24.719  45.335  51.338  1.00  0.00     0.031 A 
HETATM    4  C   UNL     1      25.422  44.383  52.092  1.00  0.00     0.030 A 
HETATM    5  C   UNL     1      25.819  43.229  51.396  1.00  0.00     0.031 A 
HETATM    6  C   UNL     1      25.512  43.022  50.037  1.00  0.00     0.032 A 
ENDROOT
BRANCH   1   7
HETATM    7  N   UNL     1      24.308  43.797  48.007  1.00  0.00    -0.333 N 
HETATM    8  H   UNL     1      24.822  44.336  47.318  1.00  0.00     0.168 HD
BRANCH   7   9
HETATM    9  C   UNL     1      23.041  43.541  47.615  1.00  0.00     0.179 C 
HETATM   10  S   UNL     1      22.650  41.987  47.128  1.00  0.00    -0.040 SA
BRANCH   9  11
HETATM   11  N   UNL     1      22.041  44.459  47.658  1.00  0.00    -0.299 N 
HETATM   12  C   UNL     1      22.013  45.649  46.936  1.00  0.00     0.257 C 
HETATM   13  O   UNL     1      22.260  45.737  45.736  1.00  0.00    -0.267 OA
HETATM   14  H   UNL     1      21.710  44.516  48.607  1.00  0.00     0.171 HD
BRANCH  12  15
HETATM   15  C   UNL     1      21.557  46.883  47.671  1.00  0.00     0.035 A 
HETATM   16  C   UNL     1      20.215  47.263  47.815  1.00  0.00     0.053 A 
HETATM   17  C   UNL     1      19.868  48.420  48.524  1.00  0.00     0.070 A 
HETATM   18  C   UNL     1      20.854  49.187  49.136  1.00  0.00     0.037 A 
HETATM   19  C   UNL     1      22.193  48.819  49.008  1.00  0.00     0.004 A 
HETATM   20  C   UNL     1      22.542  47.680  48.276  1.00  0.00     0.017 A 
BRANCH  17  21
HETATM   21  O   UNL     1      18.525  48.664  48.612  1.00  0.00    -0.347 OA
BRANCH  21  22
HETATM   22  C   UNL     1      17.657  47.790  47.877  1.00  0.00     0.120 C 
HETATM   23  C   UNL     1      17.052  48.556  46.707  1.00  0.00     0.040 C 
HETATM   24  C   UNL     1      16.560  47.344  48.841  1.00  0.00     0.040 C 
ENDBRANCH  21  22
ENDBRANCH  17  21
ENDBRANCH  12  15
ENDBRANCH   9  11
ENDBRANCH   7   9
ENDBRANCH   1   7
BRANCH   4  25
HETATM   25  N   UNL     1      25.634  44.563  53.455  1.00  0.00    -0.378 N 
HETATM   26  C   UNL     1      25.495  45.909  54.051  1.00  0.00     0.150 C 
HETATM   27  C   UNL     1      26.884  46.545  54.269  1.00  0.00     0.255 C 
HETATM   28  N   UNL     1      27.776  45.615  55.096  1.00  0.00    -0.064 N 
HETATM   29  H   UNL     1      27.307  45.471  56.002  1.00  0.00     0.280 HD
HETATM   30  C   UNL     1      27.883  44.238  54.441  1.00  0.00     0.255 C 
HETATM   31  C   UNL     1      26.475  43.642  54.236  1.00  0.00     0.150 C 
BRANCH  28  32
HETATM   32  C   UNL     1      29.124  46.213  55.405  1.00  0.00     0.276 C 
BRANCH  32  33
HETATM   33  C   UNL     1      30.048  45.282  56.135  1.00  0.00     0.006 A 
HETATM   34  C   UNL     1      30.304  45.474  57.497  1.00  0.00     0.124 A 
HETATM   35  F   UNL     1      29.760  46.536  58.113  1.00  0.00    -0.206 F 
HETATM   36  C   UNL     1      31.131  44.621  58.216  1.00  0.00     0.043 A 
HETATM   37  C   UNL     1      31.718  43.537  57.569  1.00  0.00     0.003 A 
HETATM   38  C   UNL     1      31.472  43.319  56.212  1.00  0.00     0.001 A 
HETATM   39  C   UNL     1      30.639  44.184  55.496  1.00  0.00     0.012 A 
ENDBRANCH  32  33
ENDBRANCH  28  32
ENDBRANCH   4  25
TORSDOF 9
ENDMDL
MODEL 9
REMARK VINA RESULT:      -8.8      5.332     12.751
REMARK  9 active torsions:
REMARK  status: ('A' for Active; 'I' for Inactive)
REMARK    1  A    between atoms: C_2  and  O_3 
REMARK    2  A    between atoms: O_3  and  C_4 
REMARK    3  A    between atoms: C_6  and  C_7 
REMARK       I    between atoms: C_7  and  N_8 
REMARK    4  A    between atoms: N_8  and  C_9 
REMARK    5  A    between atoms: C_9  and  N_10 
REMARK    6  A    between atoms: N_10  and  C_11 
REMARK    7  A    between atoms: C_14  and  N_15 
REMARK    8  A    between atoms: N_18  and  C_20 
REMARK    9  A    between atoms: C_20  and  C_21 
ROOT
HETATM    1  C   UNL     1      22.308  50.176  48.650  1.00  0.00     0.034 A 
HETATM    2  C   UNL     1      23.678  50.414  48.541  1.00  0.00     0.032 A 
HETATM    3  C   UNL     1      24.609  49.404  48.828  1.00  0.00     0.031 A 
HETATM    4  C   UNL     1      24.219  48.113  49.211  1.00  0.00     0.030 A 
HETATM    5  C   UNL     1      22.834  47.890  49.280  1.00  0.00     0.031 A 
HETATM    6  C   UNL     1      21.891  48.901  49.009  1.00  0.00     0.032 A 
ENDROOT
BRANCH   1   7
HETATM    7  N   UNL     1      21.454  51.295  48.507  1.00  0.00    -0.333 N 
HETATM    8  H   UNL     1      21.737  52.085  49.078  1.00  0.00     0.168 HD
BRANCH   7   9
HETATM    9  C   UNL     1      20.131  51.306  48.239  1.00  0.00     0.179 C 
HETATM   10  S   UNL     1      19.526  50.201  47.134  1.00  0.00    -0.040 SA
BRANCH   9  11
HETATM   11  N   UNL     1      19.243  52.119  48.868  1.00  0.00    -0.299 N 
HETATM   12  C   UNL     1      18.089  51.693  49.521  1.00  0.00     0.257 C 
HETATM   13  O   UNL     1      18.050  50.762  50.321  1.00  0.00    -0.267 OA
HETATM   14  H   UNL     1      19.152  52.962  48.325  1.00  0.00     0.171 HD
BRANCH  12  15
HETATM   15  C   UNL     1      16.837  52.499  49.288  1.00  0.00     0.035 A 
HETATM   16  C   UNL     1      16.405  53.542  50.120  1.00  0.00     0.053 A 
HETATM   17  C   UNL     1      15.234  54.254  49.832  1.00  0.00     0.070 A 
HETATM   18  C   UNL     1      14.504  53.963  48.684  1.00  0.00     0.037 A 
HETATM   19  C   UNL     1      14.923  52.933  47.843  1.00  0.00     0.004 A 
HETATM   20  C   UNL     1      16.077  52.203  48.146  1.00  0.00     0.017 A 
BRANCH  17  21
HETATM   21  O   UNL     1      14.939  55.263  50.707  1.00  0.00    -0.347 OA
BRANCH  21  22
HETATM   22  C   UNL     1      13.847  55.039  51.610  1.00  0.00     0.120 C 
HETATM   23  C   UNL     1      12.660  55.891  51.178  1.00  0.00     0.040 C 
HETATM   24  C   UNL     1      14.326  55.463  52.997  1.00  0.00     0.040 C 
ENDBRANCH  21  22
ENDBRANCH  17  21
ENDBRANCH  12  15
ENDBRANCH   9  11
ENDBRANCH   7   9
ENDBRANCH   1   7
BRANCH   4  25
HETATM   25  N   UNL     1      25.164  47.155  49.567  1.00  0.00    -0.378 N 
HETATM   26  C   UNL     1      24.759  45.743  49.723  1.00  0.00     0.150 C 
HETATM   27  C   UNL     1      24.591  45.394  51.217  1.00  0.00     0.255 C 
HETATM   28  N   UNL     1      25.864  45.739  51.994  1.00  0.00    -0.064 N 
HETATM   29  H   UNL     1      26.629  45.183  51.586  1.00  0.00     0.280 HD
HETATM   30  C   UNL     1      26.242  47.207  51.797  1.00  0.00     0.255 C 
HETATM   31  C   UNL     1      26.394  47.513  50.293  1.00  0.00     0.150 C 
BRANCH  28  32
HETATM   32  C   UNL     1      25.788  45.353  53.449  1.00  0.00     0.276 C 
BRANCH  32  33
HETATM   33  C   UNL     1      27.108  44.948  54.039  1.00  0.00     0.006 A 
HETATM   34  C   UNL     1      27.650  43.692  53.744  1.00  0.00     0.124 A 
HETATM   35  F   UNL     1      26.941  42.845  52.982  1.00  0.00    -0.206 F 
HETATM   36  C   UNL     1      28.880  43.288  54.247  1.00  0.00     0.043 A 
HETATM   37  C   UNL     1      29.600  44.157  55.062  1.00  0.00     0.003 A 
HETATM   38  C   UNL     1      29.084  45.418  55.364  1.00  0.00     0.001 A 
HETATM   39  C   UNL     1      27.845  45.817  54.854  1.00  0.00     0.012 A 
ENDBRANCH  32  33
ENDBRANCH  28  32
ENDBRANCH   4  25
TORSDOF 9
ENDMDL
MODEL 10
REMARK VINA RESULT:      -8.6      4.842     12.456
REMARK  9 active torsions:
REMARK  status: ('A' for Active; 'I' for Inactive)
REMARK    1  A    between atoms: C_2  and  O_3 
REMARK    2  A    between atoms: O_3  and  C_4 
REMARK    3  A    between atoms: C_6  and  C_7 
REMARK       I    between atoms: C_7  and  N_8 
REMARK    4  A    between atoms: N_8  and  C_9 
REMARK    5  A    between atoms: C_9  and  N_10 
REMARK    6  A    between atoms: N_10  and  C_11 
REMARK    7  A    between atoms: C_14  and  N_15 
REMARK    8  A    between atoms: N_18  and  C_20 
REMARK    9  A    between atoms: C_20  and  C_21 
ROOT
HETATM    1  C   UNL     1      21.615  47.098  48.638  1.00  0.00     0.034 A 
HETATM    2  C   UNL     1      22.405  48.150  49.100  1.00  0.00     0.032 A 
HETATM    3  C   UNL     1      23.721  47.926  49.532  1.00  0.00     0.031 A 
HETATM    4  C   UNL     1      24.314  46.655  49.502  1.00  0.00     0.030 A 
HETATM    5  C   UNL     1      23.508  45.620  49.000  1.00  0.00     0.031 A 
HETATM    6  C   UNL     1      22.181  45.831  48.577  1.00  0.00     0.032 A 
ENDROOT
BRANCH   1   7
HETATM    7  N   UNL     1      20.253  47.387  48.385  1.00  0.00    -0.333 N 
HETATM    8  H   UNL     1      19.632  46.629  48.650  1.00  0.00     0.168 HD
BRANCH   7   9
HETATM    9  C   UNL     1      19.731  48.158  47.408  1.00  0.00     0.179 C 
HETATM   10  S   UNL     1      19.403  47.458  45.921  1.00  0.00    -0.040 SA
BRANCH   9  11
HETATM   11  N   UNL     1      19.388  49.462  47.580  1.00  0.00    -0.299 N 
HETATM   12  C   UNL     1      18.931  50.019  48.771  1.00  0.00     0.257 C 
HETATM   13  O   UNL     1      19.462  49.846  49.865  1.00  0.00    -0.267 OA
HETATM   14  H   UNL     1      18.924  49.776  46.744  1.00  0.00     0.171 HD
BRANCH  12  15
HETATM   15  C   UNL     1      17.764  50.968  48.676  1.00  0.00     0.035 A 
HETATM   16  C   UNL     1      16.873  51.016  47.594  1.00  0.00     0.053 A 
HETATM   17  C   UNL     1      15.803  51.919  47.583  1.00  0.00     0.070 A 
HETATM   18  C   UNL     1      15.583  52.754  48.674  1.00  0.00     0.037 A 
HETATM   19  C   UNL     1      16.455  52.714  49.761  1.00  0.00     0.004 A 
HETATM   20  C   UNL     1      17.541  51.833  49.760  1.00  0.00     0.017 A 
BRANCH  17  21
HETATM   21  O   UNL     1      14.995  51.847  46.482  1.00  0.00    -0.347 OA
BRANCH  21  22
HETATM   22  C   UNL     1      15.635  51.945  45.201  1.00  0.00     0.120 C 
HETATM   23  C   UNL     1      15.967  53.406  44.921  1.00  0.00     0.040 C 
HETATM   24  C   UNL     1      14.638  51.423  44.169  1.00  0.00     0.040 C 
ENDBRANCH  21  22
ENDBRANCH  17  21
ENDBRANCH  12  15
ENDBRANCH   9  11
ENDBRANCH   7   9
ENDBRANCH   1   7
BRANCH   4  25
HETATM   25  N   UNL     1      25.592  46.449  50.011  1.00  0.00    -0.378 N 
HETATM   26  C   UNL     1      26.177  45.092  50.004  1.00  0.00     0.150 C 
HETATM   27  C   UNL     1      26.069  44.453  51.405  1.00  0.00     0.255 C 
HETATM   28  N   UNL     1      26.694  45.368  52.461  1.00  0.00    -0.064 N 
HETATM   29  H   UNL     1      27.685  45.493  52.206  1.00  0.00     0.280 HD
HETATM   30  C   UNL     1      26.058  46.757  52.424  1.00  0.00     0.255 C 
HETATM   31  C   UNL     1      26.184  47.355  51.008  1.00  0.00     0.150 C 
BRANCH  28  32
HETATM   32  C   UNL     1      26.685  44.765  53.842  1.00  0.00     0.276 C 
BRANCH  32  33
HETATM   33  C   UNL     1      28.053  44.487  54.393  1.00  0.00     0.006 A 
HETATM   34  C   UNL     1      28.636  45.377  55.301  1.00  0.00     0.124 A 
HETATM   35  F   UNL     1      27.978  46.504  55.615  1.00  0.00    -0.206 F 
HETATM   36  C   UNL     1      29.889  45.145  55.855  1.00  0.00     0.043 A 
HETATM   37  C   UNL     1      30.584  43.990  55.505  1.00  0.00     0.003 A 
HETATM   38  C   UNL     1      30.020  43.083  54.607  1.00  0.00     0.001 A 
HETATM   39  C   UNL     1      28.759  43.325  54.054  1.00  0.00     0.012 A 
ENDBRANCH  32  33
ENDBRANCH  28  32
ENDBRANCH   4  25
TORSDOF 9
ENDMDL
