MODEL 1
REMARK VINA RESULT:      -8.3      0.000      0.000
REMARK  6 active torsions:
REMARK  status: ('A' for Active; 'I' for Inactive)
REMARK    1  A    between atoms: C_2  and  N_3 
REMARK    2  A    between atoms: C_2  and  C_16 
REMARK    3  A    between atoms: N_3  and  C_6 
REMARK    4  A    between atoms: C_16  and  C_17 
REMARK       I    between atoms: C_17  and  N_18 
REMARK    5  A    between atoms: N_18  and  C_19 
REMARK    6  A    between atoms: C_22  and  O_23 
ROOT
HETATM    1  C   UNL     1      28.226  41.363  52.082  1.00  0.00     0.040 C 
HETATM    2  C   UNL     1      27.689  42.642  51.449  1.00  0.00     0.191 C 
ENDROOT
BRANCH   2   3
HETATM    3  N   UNL     1      27.685  43.754  52.474  1.00  0.00    -0.063 N 
HETATM    4  H   UNL     1      28.608  44.230  52.356  1.00  0.00     0.278 HD
HETATM    5  H   UNL     1      26.983  44.459  52.227  1.00  0.00     0.278 HD
BRANCH   3   6
HETATM    6  C   UNL     1      27.577  43.402  53.936  1.00  0.00     0.221 C 
HETATM    7  C   UNL     1      28.774  43.838  54.736  1.00  0.00    -0.011 A 
HETATM    8  C   UNL     1      28.873  45.135  55.259  1.00  0.00     0.009 A 
HETATM    9  C   UNL     1      29.827  42.926  54.958  1.00  0.00     0.011 A 
HETATM   10  C   UNL     1      30.022  45.502  55.974  1.00  0.00     0.019 A 
HETATM   11  S   UNL     1      27.615  46.387  55.088  1.00  0.00    -0.129 SA
HETATM   12  C   UNL     1      31.061  44.595  56.179  1.00  0.00     0.001 A 
HETATM   13  C   UNL     1      30.962  43.305  55.673  1.00  0.00     0.001 A 
HETATM   14  C   UNL     1      26.187  45.493  54.416  1.00  0.00     0.082 C 
HETATM   15  C   UNL     1      26.279  43.981  54.507  1.00  0.00     0.048 C 
ENDBRANCH   3   6
ENDBRANCH   2   3
BRANCH   2  16
HETATM   16  C   UNL     1      26.263  42.404  50.919  1.00  0.00     0.135 C 
BRANCH  16  17
HETATM   17  C   UNL     1      25.450  43.683  50.924  1.00  0.00     0.224 C 
HETATM   18  N   UNL     1      25.818  44.561  49.931  1.00  0.00    -0.327 N 
HETATM   19  H   UNL     1      26.540  44.270  49.281  1.00  0.00     0.169 HD
HETATM   20  O   UNL     1      24.526  43.794  51.726  1.00  0.00    -0.273 OA
BRANCH  18  21
HETATM   21  C   UNL     1      25.299  45.853  49.693  1.00  0.00     0.034 A 
HETATM   22  C   UNL     1      23.963  46.119  49.389  1.00  0.00     0.032 A 
HETATM   23  C   UNL     1      23.525  47.438  49.206  1.00  0.00     0.039 A 
HETATM   24  C   UNL     1      24.419  48.499  49.331  1.00  0.00     0.068 A 
HETATM   25  C   UNL     1      25.759  48.237  49.600  1.00  0.00     0.039 A 
HETATM   26  C   UNL     1      26.197  46.923  49.792  1.00  0.00     0.032 A 
BRANCH  24  27
HETATM   27  O   UNL     1      24.098  49.816  49.167  1.00  0.00    -0.356 OA
HETATM   28  C   UNL     1      23.456  50.124  47.933  1.00  0.00     0.210 C 
ENDBRANCH  24  27
ENDBRANCH  18  21
ENDBRANCH  16  17
ENDBRANCH   2  16
TORSDOF 6
ENDMDL
MODEL 2
REMARK VINA RESULT:      -8.0      3.314      6.731
REMARK  6 active torsions:
REMARK  status: ('A' for Active; 'I' for Inactive)
REMARK    1  A    between atoms: C_2  and  N_3 
REMARK    2  A    between atoms: C_2  and  C_16 
REMARK    3  A    between atoms: N_3  and  C_6 
REMARK    4  A    between atoms: C_16  and  C_17 
REMARK       I    between atoms: C_17  and  N_18 
REMARK    5  A    between atoms: N_18  and  C_19 
REMARK    6  A    between atoms: C_22  and  O_23 
ROOT
HETATM    1  C   UNL     1      26.314  40.052  50.140  1.00  0.00     0.040 C 
HETATM    2  C   UNL     1      26.647  41.147  51.148  1.00  0.00     0.191 C 
ENDROOT
BRANCH   2   3
HETATM    3  N   UNL     1      26.127  42.475  50.647  1.00  0.00    -0.063 N 
HETATM    4  H   UNL     1      26.895  43.155  50.847  1.00  0.00     0.278 HD
HETATM    5  H   UNL     1      26.040  42.457  49.625  1.00  0.00     0.278 HD
BRANCH   3   6
HETATM    6  C   UNL     1      24.880  43.054  51.265  1.00  0.00     0.221 C 
HETATM    7  C   UNL     1      25.100  44.412  51.873  1.00  0.00    -0.011 A 
HETATM    8  C   UNL     1      25.022  45.581  51.102  1.00  0.00     0.009 A 
HETATM    9  C   UNL     1      25.403  44.515  53.246  1.00  0.00     0.011 A 
HETATM   10  C   UNL     1      25.264  46.821  51.708  1.00  0.00     0.019 A 
HETATM   11  S   UNL     1      24.621  45.615  49.365  1.00  0.00    -0.129 SA
HETATM   12  C   UNL     1      25.571  46.910  53.066  1.00  0.00     0.001 A 
HETATM   13  C   UNL     1      25.639  45.757  53.836  1.00  0.00     0.001 A 
HETATM   14  C   UNL     1      24.069  43.925  49.003  1.00  0.00     0.082 C 
HETATM   15  C   UNL     1      23.757  43.080  50.224  1.00  0.00     0.048 C 
ENDBRANCH   3   6
ENDBRANCH   2   3
BRANCH   2  16
HETATM   16  C   UNL     1      28.172  41.219  51.355  1.00  0.00     0.135 C 
BRANCH  16  17
HETATM   17  C   UNL     1      28.519  41.629  52.772  1.00  0.00     0.224 C 
HETATM   18  N   UNL     1      29.027  42.904  52.857  1.00  0.00    -0.327 N 
HETATM   19  H   UNL     1      29.083  43.452  52.006  1.00  0.00     0.169 HD
HETATM   20  O   UNL     1      28.261  40.856  53.693  1.00  0.00    -0.273 OA
BRANCH  18  21
HETATM   21  C   UNL     1      29.494  43.566  54.014  1.00  0.00     0.034 A 
HETATM   22  C   UNL     1      30.583  43.141  54.776  1.00  0.00     0.032 A 
HETATM   23  C   UNL     1      31.003  43.881  55.890  1.00  0.00     0.039 A 
HETATM   24  C   UNL     1      30.339  45.053  56.246  1.00  0.00     0.068 A 
HETATM   25  C   UNL     1      29.231  45.462  55.510  1.00  0.00     0.039 A 
HETATM   26  C   UNL     1      28.816  44.731  54.394  1.00  0.00     0.032 A 
BRANCH  24  27
HETATM   27  O   UNL     1      30.663  45.842  57.313  1.00  0.00    -0.356 OA
HETATM   28  C   UNL     1      29.949  45.547  58.511  1.00  0.00     0.210 C 
ENDBRANCH  24  27
ENDBRANCH  18  21
ENDBRANCH  16  17
ENDBRANCH   2  16
TORSDOF 6
ENDMDL
MODEL 3
REMARK VINA RESULT:      -8.0      2.578      5.708
REMARK  6 active torsions:
REMARK  status: ('A' for Active; 'I' for Inactive)
REMARK    1  A    between atoms: C_2  and  N_3 
REMARK    2  A    between atoms: C_2  and  C_16 
REMARK    3  A    between atoms: N_3  and  C_6 
REMARK    4  A    between atoms: C_16  and  C_17 
REMARK       I    between atoms: C_17  and  N_18 
REMARK    5  A    between atoms: N_18  and  C_19 
REMARK    6  A    between atoms: C_22  and  O_23 
ROOT
HETATM    1  C   UNL     1      25.502  47.244  50.804  1.00  0.00     0.040 C 
HETATM    2  C   UNL     1      25.304  45.817  51.304  1.00  0.00     0.191 C 
ENDROOT
BRANCH   2   3
HETATM    3  N   UNL     1      26.544  45.358  52.037  1.00  0.00    -0.063 N 
HETATM    4  H   UNL     1      26.992  44.664  51.396  1.00  0.00     0.278 HD
HETATM    5  H   UNL     1      27.216  46.130  52.112  1.00  0.00     0.278 HD
BRANCH   3   6
HETATM    6  C   UNL     1      26.395  44.666  53.368  1.00  0.00     0.221 C 
HETATM    7  C   UNL     1      27.708  44.210  53.944  1.00  0.00    -0.011 A 
HETATM    8  C   UNL     1      28.512  45.070  54.705  1.00  0.00     0.009 A 
HETATM    9  C   UNL     1      28.147  42.891  53.706  1.00  0.00     0.011 A 
HETATM   10  C   UNL     1      29.741  44.607  55.196  1.00  0.00     0.019 A 
HETATM   11  S   UNL     1      28.081  46.751  55.114  1.00  0.00    -0.129 SA
HETATM   12  C   UNL     1      30.169  43.303  54.947  1.00  0.00     0.001 A 
HETATM   13  C   UNL     1      29.370  42.444  54.204  1.00  0.00     0.001 A 
HETATM   14  C   UNL     1      26.344  46.899  54.611  1.00  0.00     0.082 C 
HETATM   15  C   UNL     1      25.643  45.581  54.339  1.00  0.00     0.048 C 
ENDBRANCH   3   6
ENDBRANCH   2   3
BRANCH   2  16
HETATM   16  C   UNL     1      25.015  44.883  50.113  1.00  0.00     0.135 C 
BRANCH  16  17
HETATM   17  C   UNL     1      26.236  44.066  49.742  1.00  0.00     0.224 C 
HETATM   18  N   UNL     1      25.995  42.712  49.725  1.00  0.00    -0.327 N 
HETATM   19  H   UNL     1      25.051  42.393  49.912  1.00  0.00     0.169 HD
HETATM   20  O   UNL     1      27.269  44.653  49.430  1.00  0.00    -0.273 OA
BRANCH  18  21
HETATM   21  C   UNL     1      26.925  41.679  49.472  1.00  0.00     0.034 A 
HETATM   22  C   UNL     1      27.384  41.330  48.201  1.00  0.00     0.032 A 
HETATM   23  C   UNL     1      28.338  40.315  48.044  1.00  0.00     0.039 A 
HETATM   24  C   UNL     1      28.843  39.646  49.157  1.00  0.00     0.068 A 
HETATM   25  C   UNL     1      28.363  39.967  50.424  1.00  0.00     0.039 A 
HETATM   26  C   UNL     1      27.418  40.985  50.584  1.00  0.00     0.032 A 
BRANCH  24  27
HETATM   27  O   UNL     1      29.767  38.642  49.114  1.00  0.00    -0.356 OA
HETATM   28  C   UNL     1      29.748  37.764  50.236  1.00  0.00     0.210 C 
ENDBRANCH  24  27
ENDBRANCH  18  21
ENDBRANCH  16  17
ENDBRANCH   2  16
TORSDOF 6
ENDMDL
MODEL 4
REMARK VINA RESULT:      -8.0      1.980      3.248
REMARK  6 active torsions:
REMARK  status: ('A' for Active; 'I' for Inactive)
REMARK    1  A    between atoms: C_2  and  N_3 
REMARK    2  A    between atoms: C_2  and  C_16 
REMARK    3  A    between atoms: N_3  and  C_6 
REMARK    4  A    between atoms: C_16  and  C_17 
REMARK       I    between atoms: C_17  and  N_18 
REMARK    5  A    between atoms: N_18  and  C_19 
REMARK    6  A    between atoms: C_22  and  O_23 
ROOT
HETATM    1  C   UNL     1      24.435  44.695  51.125  1.00  0.00     0.040 C 
HETATM    2  C   UNL     1      25.898  44.995  50.814  1.00  0.00     0.191 C 
ENDROOT
BRANCH   2   3
HETATM    3  N   UNL     1      26.586  45.515  52.055  1.00  0.00    -0.063 N 
HETATM    4  H   UNL     1      27.607  45.464  51.836  1.00  0.00     0.278 HD
HETATM    5  H   UNL     1      26.384  46.513  52.178  1.00  0.00     0.278 HD
BRANCH   3   6
HETATM    6  C   UNL     1      26.398  44.781  53.359  1.00  0.00     0.221 C 
HETATM    7  C   UNL     1      27.689  44.267  53.936  1.00  0.00    -0.011 A 
HETATM    8  C   UNL     1      28.506  45.078  54.737  1.00  0.00     0.009 A 
HETATM    9  C   UNL     1      28.095  42.946  53.657  1.00  0.00     0.011 A 
HETATM   10  C   UNL     1      29.714  44.563  55.228  1.00  0.00     0.019 A 
HETATM   11  S   UNL     1      28.116  46.755  55.200  1.00  0.00    -0.129 SA
HETATM   12  C   UNL     1      30.109  43.257  54.939  1.00  0.00     0.001 A 
HETATM   13  C   UNL     1      29.298  42.447  54.155  1.00  0.00     0.001 A 
HETATM   14  C   UNL     1      26.392  46.970  54.679  1.00  0.00     0.082 C 
HETATM   15  C   UNL     1      25.659  45.682  54.351  1.00  0.00     0.048 C 
ENDBRANCH   3   6
ENDBRANCH   2   3
BRANCH   2  16
HETATM   16  C   UNL     1      25.987  46.036  49.682  1.00  0.00     0.135 C 
BRANCH  16  17
HETATM   17  C   UNL     1      25.151  47.261  49.991  1.00  0.00     0.224 C 
HETATM   18  N   UNL     1      24.254  47.570  48.994  1.00  0.00    -0.327 N 
HETATM   19  H   UNL     1      24.201  46.951  48.193  1.00  0.00     0.169 HD
HETATM   20  O   UNL     1      25.283  47.809  51.083  1.00  0.00    -0.273 OA
BRANCH  18  21
HETATM   21  C   UNL     1      23.371  48.670  48.946  1.00  0.00     0.034 A 
HETATM   22  C   UNL     1      23.778  49.998  48.800  1.00  0.00     0.032 A 
HETATM   23  C   UNL     1      22.829  51.027  48.722  1.00  0.00     0.039 A 
HETATM   24  C   UNL     1      21.468  50.735  48.787  1.00  0.00     0.068 A 
HETATM   25  C   UNL     1      21.059  49.418  48.968  1.00  0.00     0.039 A 
HETATM   26  C   UNL     1      22.003  48.388  49.036  1.00  0.00     0.032 A 
BRANCH  24  27
HETATM   27  O   UNL     1      20.466  51.662  48.728  1.00  0.00    -0.356 OA
HETATM   28  C   UNL     1      19.513  51.576  49.784  1.00  0.00     0.210 C 
ENDBRANCH  24  27
ENDBRANCH  18  21
ENDBRANCH  16  17
ENDBRANCH   2  16
TORSDOF 6
ENDMDL
MODEL 5
REMARK VINA RESULT:      -7.6      3.426      7.428
REMARK  6 active torsions:
REMARK  status: ('A' for Active; 'I' for Inactive)
REMARK    1  A    between atoms: C_2  and  N_3 
REMARK    2  A    between atoms: C_2  and  C_16 
REMARK    3  A    between atoms: N_3  and  C_6 
REMARK    4  A    between atoms: C_16  and  C_17 
REMARK       I    between atoms: C_17  and  N_18 
REMARK    5  A    between atoms: N_18  and  C_19 
REMARK    6  A    between atoms: C_22  and  O_23 
ROOT
HETATM    1  C   UNL     1      26.967  39.922  49.584  1.00  0.00     0.040 C 
HETATM    2  C   UNL     1      26.971  40.504  50.994  1.00  0.00     0.191 C 
ENDROOT
BRANCH   2   3
HETATM    3  N   UNL     1      26.124  41.756  51.030  1.00  0.00    -0.063 N 
HETATM    4  H   UNL     1      25.138  41.410  51.061  1.00  0.00     0.278 HD
HETATM    5  H   UNL     1      26.265  42.251  51.918  1.00  0.00     0.278 HD
BRANCH   3   6
HETATM    6  C   UNL     1      26.196  42.723  49.877  1.00  0.00     0.221 C 
HETATM    7  C   UNL     1      24.842  43.095  49.336  1.00  0.00    -0.011 A 
HETATM    8  C   UNL     1      24.088  44.133  49.902  1.00  0.00     0.009 A 
HETATM    9  C   UNL     1      24.313  42.379  48.243  1.00  0.00     0.011 A 
HETATM   10  C   UNL     1      22.820  44.423  49.380  1.00  0.00     0.019 A 
HETATM   11  S   UNL     1      24.633  45.145  51.265  1.00  0.00    -0.129 SA
HETATM   12  C   UNL     1      22.302  43.702  48.304  1.00  0.00     0.001 A 
HETATM   13  C   UNL     1      23.051  42.681  47.733  1.00  0.00     0.001 A 
HETATM   14  C   UNL     1      26.385  44.720  51.462  1.00  0.00     0.082 C 
HETATM   15  C   UNL     1      26.993  43.961  50.296  1.00  0.00     0.048 C 
ENDBRANCH   3   6
ENDBRANCH   2   3
BRANCH   2  16
HETATM   16  C   UNL     1      28.415  40.827  51.420  1.00  0.00     0.135 C 
BRANCH  16  17
HETATM   17  C   UNL     1      28.457  41.466  52.794  1.00  0.00     0.224 C 
HETATM   18  N   UNL     1      29.284  42.563  52.855  1.00  0.00    -0.327 N 
HETATM   19  H   UNL     1      29.742  42.863  52.001  1.00  0.00     0.169 HD
HETATM   20  O   UNL     1      27.727  41.020  53.676  1.00  0.00    -0.273 OA
BRANCH  18  21
HETATM   21  C   UNL     1      29.585  43.348  53.990  1.00  0.00     0.034 A 
HETATM   22  C   UNL     1      30.701  43.155  54.805  1.00  0.00     0.032 A 
HETATM   23  C   UNL     1      30.944  44.007  55.891  1.00  0.00     0.039 A 
HETATM   24  C   UNL     1      30.074  45.060  56.167  1.00  0.00     0.068 A 
HETATM   25  C   UNL     1      28.941  45.235  55.378  1.00  0.00     0.039 A 
HETATM   26  C   UNL     1      28.702  44.392  54.289  1.00  0.00     0.032 A 
BRANCH  24  27
HETATM   27  O   UNL     1      30.214  45.941  57.201  1.00  0.00    -0.356 OA
HETATM   28  C   UNL     1      29.020  46.195  57.935  1.00  0.00     0.210 C 
ENDBRANCH  24  27
ENDBRANCH  18  21
ENDBRANCH  16  17
ENDBRANCH   2  16
TORSDOF 6
ENDMDL
MODEL 6
REMARK VINA RESULT:      -7.4      2.291      2.984
REMARK  6 active torsions:
REMARK  status: ('A' for Active; 'I' for Inactive)
REMARK    1  A    between atoms: C_2  and  N_3 
REMARK    2  A    between atoms: C_2  and  C_16 
REMARK    3  A    between atoms: N_3  and  C_6 
REMARK    4  A    between atoms: C_16  and  C_17 
REMARK       I    between atoms: C_17  and  N_18 
REMARK    5  A    between atoms: N_18  and  C_19 
REMARK    6  A    between atoms: C_22  and  O_23 
ROOT
HETATM    1  C   UNL     1      25.967  42.948  51.186  1.00  0.00     0.040 C 
HETATM    2  C   UNL     1      27.039  43.999  50.916  1.00  0.00     0.191 C 
ENDROOT
BRANCH   2   3
HETATM    3  N   UNL     1      27.201  44.883  52.132  1.00  0.00    -0.063 N 
HETATM    4  H   UNL     1      28.196  45.202  52.099  1.00  0.00     0.278 HD
HETATM    5  H   UNL     1      26.640  45.735  52.026  1.00  0.00     0.278 HD
BRANCH   3   6
HETATM    6  C   UNL     1      26.995  44.290  53.503  1.00  0.00     0.221 C 
HETATM    7  C   UNL     1      28.251  44.266  54.329  1.00  0.00    -0.011 A 
HETATM    8  C   UNL     1      28.651  45.376  55.086  1.00  0.00     0.009 A 
HETATM    9  C   UNL     1      29.053  43.106  54.335  1.00  0.00     0.011 A 
HETATM   10  C   UNL     1      29.845  45.315  55.818  1.00  0.00     0.019 A 
HETATM   11  S   UNL     1      27.731  46.899  55.202  1.00  0.00    -0.129 SA
HETATM   12  C   UNL     1      30.635  44.165  55.810  1.00  0.00     0.001 A 
HETATM   13  C   UNL     1      30.237  43.059  55.070  1.00  0.00     0.001 A 
HETATM   14  C   UNL     1      26.138  46.516  54.422  1.00  0.00     0.082 C 
HETATM   15  C   UNL     1      25.866  45.038  54.218  1.00  0.00     0.048 C 
ENDBRANCH   3   6
ENDBRANCH   2   3
BRANCH   2  16
HETATM   16  C   UNL     1      26.642  44.847  49.693  1.00  0.00     0.135 C 
BRANCH  16  17
HETATM   17  C   UNL     1      25.296  45.513  49.895  1.00  0.00     0.224 C 
HETATM   18  N   UNL     1      24.364  45.144  48.953  1.00  0.00    -0.327 N 
HETATM   19  H   UNL     1      24.633  44.454  48.260  1.00  0.00     0.169 HD
HETATM   20  O   UNL     1      25.133  46.234  50.876  1.00  0.00    -0.273 OA
BRANCH  18  21
HETATM   21  C   UNL     1      23.039  45.618  48.826  1.00  0.00     0.034 A 
HETATM   22  C   UNL     1      22.701  46.955  48.612  1.00  0.00     0.032 A 
HETATM   23  C   UNL     1      21.360  47.333  48.459  1.00  0.00     0.039 A 
HETATM   24  C   UNL     1      20.349  46.376  48.515  1.00  0.00     0.068 A 
HETATM   25  C   UNL     1      20.678  45.047  48.764  1.00  0.00     0.039 A 
HETATM   26  C   UNL     1      22.016  44.666  48.908  1.00  0.00     0.032 A 
BRANCH  24  27
HETATM   27  O   UNL     1      19.015  46.639  48.386  1.00  0.00    -0.356 OA
HETATM   28  C   UNL     1      18.253  45.585  47.803  1.00  0.00     0.210 C 
ENDBRANCH  24  27
ENDBRANCH  18  21
ENDBRANCH  16  17
ENDBRANCH   2  16
TORSDOF 6
ENDMDL
MODEL 7
REMARK VINA RESULT:      -7.3      3.809      6.187
REMARK  6 active torsions:
REMARK  status: ('A' for Active; 'I' for Inactive)
REMARK    1  A    between atoms: C_2  and  N_3 
REMARK    2  A    between atoms: C_2  and  C_16 
REMARK    3  A    between atoms: N_3  and  C_6 
REMARK    4  A    between atoms: C_16  and  C_17 
REMARK       I    between atoms: C_17  and  N_18 
REMARK    5  A    between atoms: N_18  and  C_19 
REMARK    6  A    between atoms: C_22  and  O_23 
ROOT
HETATM    1  C   UNL     1      24.784  48.631  49.169  1.00  0.00     0.040 C 
HETATM    2  C   UNL     1      23.680  47.711  49.679  1.00  0.00     0.191 C 
ENDROOT
BRANCH   2   3
HETATM    3  N   UNL     1      24.293  46.535  50.406  1.00  0.00    -0.063 N 
HETATM    4  H   UNL     1      23.826  46.526  51.341  1.00  0.00     0.278 HD
HETATM    5  H   UNL     1      24.013  45.657  49.955  1.00  0.00     0.278 HD
BRANCH   3   6
HETATM    6  C   UNL     1      25.776  46.532  50.676  1.00  0.00     0.221 C 
HETATM    7  C   UNL     1      26.115  46.167  52.096  1.00  0.00    -0.011 A 
HETATM    8  C   UNL     1      26.240  44.829  52.497  1.00  0.00     0.009 A 
HETATM    9  C   UNL     1      26.301  47.190  53.048  1.00  0.00     0.011 A 
HETATM   10  C   UNL     1      26.529  44.538  53.838  1.00  0.00     0.019 A 
HETATM   11  S   UNL     1      26.062  43.431  51.406  1.00  0.00    -0.129 SA
HETATM   12  C   UNL     1      26.702  45.558  54.773  1.00  0.00     0.001 A 
HETATM   13  C   UNL     1      26.591  46.885  54.378  1.00  0.00     0.001 A 
HETATM   14  C   UNL     1      26.020  44.164  49.747  1.00  0.00     0.082 C 
HETATM   15  C   UNL     1      26.477  45.609  49.676  1.00  0.00     0.048 C 
ENDBRANCH   3   6
ENDBRANCH   2   3
BRANCH   2  16
HETATM   16  C   UNL     1      22.826  47.217  48.496  1.00  0.00     0.135 C 
BRANCH  16  17
HETATM   17  C   UNL     1      21.648  48.136  48.243  1.00  0.00     0.224 C 
HETATM   18  N   UNL     1      21.492  49.096  49.216  1.00  0.00    -0.327 N 
HETATM   19  H   UNL     1      22.176  49.131  49.964  1.00  0.00     0.169 HD
HETATM   20  O   UNL     1      21.006  48.003  47.204  1.00  0.00    -0.273 OA
BRANCH  18  21
HETATM   21  C   UNL     1      20.471  50.067  49.307  1.00  0.00     0.034 A 
HETATM   22  C   UNL     1      20.504  51.303  48.660  1.00  0.00     0.032 A 
HETATM   23  C   UNL     1      19.427  52.194  48.774  1.00  0.00     0.039 A 
HETATM   24  C   UNL     1      18.309  51.852  49.531  1.00  0.00     0.068 A 
HETATM   25  C   UNL     1      18.287  50.635  50.207  1.00  0.00     0.039 A 
HETATM   26  C   UNL     1      19.355  49.742  50.087  1.00  0.00     0.032 A 
BRANCH  24  27
HETATM   27  O   UNL     1      17.213  52.647  49.712  1.00  0.00    -0.356 OA
HETATM   28  C   UNL     1      15.968  52.022  49.416  1.00  0.00     0.210 C 
ENDBRANCH  24  27
ENDBRANCH  18  21
ENDBRANCH  16  17
ENDBRANCH   2  16
TORSDOF 6
ENDMDL
MODEL 8
REMARK VINA RESULT:      -7.3      1.359      1.884
REMARK  6 active torsions:
REMARK  status: ('A' for Active; 'I' for Inactive)
REMARK    1  A    between atoms: C_2  and  N_3 
REMARK    2  A    between atoms: C_2  and  C_16 
REMARK    3  A    between atoms: N_3  and  C_6 
REMARK    4  A    between atoms: C_16  and  C_17 
REMARK       I    between atoms: C_17  and  N_18 
REMARK    5  A    between atoms: N_18  and  C_19 
REMARK    6  A    between atoms: C_22  and  O_23 
ROOT
HETATM    1  C   UNL     1      27.533  42.274  50.545  1.00  0.00     0.040 C 
HETATM    2  C   UNL     1      26.662  43.524  50.501  1.00  0.00     0.191 C 
ENDROOT
BRANCH   2   3
HETATM    3  N   UNL     1      26.870  44.334  51.761  1.00  0.00    -0.063 N 
HETATM    4  H   UNL     1      27.839  44.717  51.674  1.00  0.00     0.278 HD
HETATM    5  H   UNL     1      26.253  45.154  51.759  1.00  0.00     0.278 HD
BRANCH   3   6
HETATM    6  C   UNL     1      26.809  43.639  53.097  1.00  0.00     0.221 C 
HETATM    7  C   UNL     1      28.103  43.717  53.860  1.00  0.00    -0.011 A 
HETATM    8  C   UNL     1      28.410  44.820  54.670  1.00  0.00     0.009 A 
HETATM    9  C   UNL     1      29.035  42.664  53.752  1.00  0.00     0.011 A 
HETATM   10  C   UNL     1      29.641  44.860  55.339  1.00  0.00     0.019 A 
HETATM   11  S   UNL     1      27.325  46.211  54.929  1.00  0.00    -0.129 SA
HETATM   12  C   UNL     1      30.559  43.816  55.218  1.00  0.00     0.001 A 
HETATM   13  C   UNL     1      30.255  42.717  54.426  1.00  0.00     0.001 A 
HETATM   14  C   UNL     1      25.748  45.686  54.200  1.00  0.00     0.082 C 
HETATM   15  C   UNL     1      25.641  44.200  53.913  1.00  0.00     0.048 C 
ENDBRANCH   3   6
ENDBRANCH   2   3
BRANCH   2  16
HETATM   16  C   UNL     1      25.181  43.123  50.366  1.00  0.00     0.135 C 
BRANCH  16  17
HETATM   17  C   UNL     1      24.270  44.331  50.452  1.00  0.00     0.224 C 
HETATM   18  N   UNL     1      24.353  45.150  49.350  1.00  0.00    -0.327 N 
HETATM   19  H   UNL     1      24.958  44.863  48.588  1.00  0.00     0.169 HD
HETATM   20  O   UNL     1      23.516  44.437  51.416  1.00  0.00    -0.273 OA
BRANCH  18  21
HETATM   21  C   UNL     1      23.681  46.374  49.139  1.00  0.00     0.034 A 
HETATM   22  C   UNL     1      24.020  47.574  49.767  1.00  0.00     0.032 A 
HETATM   23  C   UNL     1      23.323  48.753  49.468  1.00  0.00     0.039 A 
HETATM   24  C   UNL     1      22.286  48.741  48.538  1.00  0.00     0.068 A 
HETATM   25  C   UNL     1      21.922  47.541  47.935  1.00  0.00     0.039 A 
HETATM   26  C   UNL     1      22.622  46.365  48.224  1.00  0.00     0.032 A 
BRANCH  24  27
HETATM   27  O   UNL     1      21.541  49.829  48.182  1.00  0.00    -0.356 OA
HETATM   28  C   UNL     1      21.228  50.714  49.254  1.00  0.00     0.210 C 
ENDBRANCH  24  27
ENDBRANCH  18  21
ENDBRANCH  16  17
ENDBRANCH   2  16
TORSDOF 6
ENDMDL
MODEL 9
REMARK VINA RESULT:      -7.2      5.091     10.721
REMARK  6 active torsions:
REMARK  status: ('A' for Active; 'I' for Inactive)
REMARK    1  A    between atoms: C_2  and  N_3 
REMARK    2  A    between atoms: C_2  and  C_16 
REMARK    3  A    between atoms: N_3  and  C_6 
REMARK    4  A    between atoms: C_16  and  C_17 
REMARK       I    between atoms: C_17  and  N_18 
REMARK    5  A    between atoms: N_18  and  C_19 
REMARK    6  A    between atoms: C_22  and  O_23 
ROOT
HETATM    1  C   UNL     1      19.890  52.007  48.558  1.00  0.00     0.040 C 
HETATM    2  C   UNL     1      20.852  50.932  48.062  1.00  0.00     0.191 C 
ENDROOT
BRANCH   2   3
HETATM    3  N   UNL     1      20.094  49.647  47.813  1.00  0.00    -0.063 N 
HETATM    4  H   UNL     1      19.561  49.818  46.930  1.00  0.00     0.278 HD
HETATM    5  H   UNL     1      20.749  48.889  47.592  1.00  0.00     0.278 HD
BRANCH   3   6
HETATM    6  C   UNL     1      19.084  49.183  48.832  1.00  0.00     0.221 C 
HETATM    7  C   UNL     1      17.699  49.038  48.263  1.00  0.00    -0.011 A 
HETATM    8  C   UNL     1      17.294  47.861  47.617  1.00  0.00     0.009 A 
HETATM    9  C   UNL     1      16.790  50.110  48.371  1.00  0.00     0.011 A 
HETATM   10  C   UNL     1      16.002  47.784  47.078  1.00  0.00     0.019 A 
HETATM   11  S   UNL     1      18.317  46.413  47.427  1.00  0.00    -0.129 SA
HETATM   12  C   UNL     1      15.114  48.854  47.183  1.00  0.00     0.001 A 
HETATM   13  C   UNL     1      15.507  50.017  47.832  1.00  0.00     0.001 A 
HETATM   14  C   UNL     1      19.749  46.739  48.492  1.00  0.00     0.082 C 
HETATM   15  C   UNL     1      19.568  47.880  49.475  1.00  0.00     0.048 C 
ENDBRANCH   3   6
ENDBRANCH   2   3
BRANCH   2  16
HETATM   16  C   UNL     1      21.960  50.702  49.106  1.00  0.00     0.135 C 
BRANCH  16  17
HETATM   17  C   UNL     1      22.897  49.589  48.680  1.00  0.00     0.224 C 
HETATM   18  N   UNL     1      23.180  48.704  49.694  1.00  0.00    -0.327 N 
HETATM   19  H   UNL     1      22.722  48.840  50.588  1.00  0.00     0.169 HD
HETATM   20  O   UNL     1      23.251  49.529  47.505  1.00  0.00    -0.273 OA
BRANCH  18  21
HETATM   21  C   UNL     1      24.053  47.594  49.645  1.00  0.00     0.034 A 
HETATM   22  C   UNL     1      25.403  47.640  49.997  1.00  0.00     0.032 A 
HETATM   23  C   UNL     1      26.188  46.480  49.955  1.00  0.00     0.039 A 
HETATM   24  C   UNL     1      25.628  45.265  49.565  1.00  0.00     0.068 A 
HETATM   25  C   UNL     1      24.291  45.221  49.179  1.00  0.00     0.039 A 
HETATM   26  C   UNL     1      23.504  46.375  49.229  1.00  0.00     0.032 A 
BRANCH  24  27
HETATM   27  O   UNL     1      26.305  44.082  49.483  1.00  0.00    -0.356 OA
HETATM   28  C   UNL     1      27.257  43.867  50.520  1.00  0.00     0.210 C 
ENDBRANCH  24  27
ENDBRANCH  18  21
ENDBRANCH  16  17
ENDBRANCH   2  16
TORSDOF 6
ENDMDL
MODEL 10
REMARK VINA RESULT:      -7.1      2.835      4.558
REMARK  6 active torsions:
REMARK  status: ('A' for Active; 'I' for Inactive)
REMARK    1  A    between atoms: C_2  and  N_3 
REMARK    2  A    between atoms: C_2  and  C_16 
REMARK    3  A    between atoms: N_3  and  C_6 
REMARK    4  A    between atoms: C_16  and  C_17 
REMARK       I    between atoms: C_17  and  N_18 
REMARK    5  A    between atoms: N_18  and  C_19 
REMARK    6  A    between atoms: C_22  and  O_23 
ROOT
HETATM    1  C   UNL     1      25.942  46.637  53.125  1.00  0.00     0.040 C 
HETATM    2  C   UNL     1      25.097  46.181  51.940  1.00  0.00     0.191 C 
ENDROOT
BRANCH   2   3
HETATM    3  N   UNL     1      25.429  44.745  51.602  1.00  0.00    -0.063 N 
HETATM    4  H   UNL     1      25.325  44.228  52.504  1.00  0.00     0.278 HD
HETATM    5  H   UNL     1      24.712  44.355  50.981  1.00  0.00     0.278 HD
BRANCH   3   6
HETATM    6  C   UNL     1      26.804  44.414  51.082  1.00  0.00     0.221 C 
HETATM    7  C   UNL     1      27.554  43.457  51.968  1.00  0.00    -0.011 A 
HETATM    8  C   UNL     1      27.391  42.069  51.850  1.00  0.00     0.009 A 
HETATM    9  C   UNL     1      28.432  43.965  52.948  1.00  0.00     0.011 A 
HETATM   10  C   UNL     1      28.090  41.220  52.718  1.00  0.00     0.019 A 
HETATM   11  S   UNL     1      26.342  41.279  50.645  1.00  0.00    -0.129 SA
HETATM   12  C   UNL     1      28.950  41.733  53.689  1.00  0.00     0.001 A 
HETATM   13  C   UNL     1      29.123  43.106  53.802  1.00  0.00     0.001 A 
HETATM   14  C   UNL     1      25.867  42.621  49.520  1.00  0.00     0.082 C 
HETATM   15  C   UNL     1      26.696  43.885  49.649  1.00  0.00     0.048 C 
ENDBRANCH   3   6
ENDBRANCH   2   3
BRANCH   2  16
HETATM   16  C   UNL     1      25.367  47.089  50.726  1.00  0.00     0.135 C 
BRANCH  16  17
HETATM   17  C   UNL     1      24.106  47.325  49.920  1.00  0.00     0.224 C 
HETATM   18  N   UNL     1      23.714  48.643  49.901  1.00  0.00    -0.327 N 
HETATM   19  H   UNL     1      24.303  49.322  50.372  1.00  0.00     0.169 HD
HETATM   20  O   UNL     1      23.603  46.379  49.317  1.00  0.00    -0.273 OA
BRANCH  18  21
HETATM   21  C   UNL     1      22.563  49.187  49.290  1.00  0.00     0.034 A 
HETATM   22  C   UNL     1      21.420  48.451  48.974  1.00  0.00     0.032 A 
HETATM   23  C   UNL     1      20.305  49.081  48.402  1.00  0.00     0.039 A 
HETATM   24  C   UNL     1      20.325  50.450  48.147  1.00  0.00     0.068 A 
HETATM   25  C   UNL     1      21.475  51.182  48.428  1.00  0.00     0.039 A 
HETATM   26  C   UNL     1      22.585  50.558  49.007  1.00  0.00     0.032 A 
BRANCH  24  27
HETATM   27  O   UNL     1      19.299  51.157  47.589  1.00  0.00    -0.356 OA
HETATM   28  C   UNL     1      18.976  52.372  48.259  1.00  0.00     0.210 C 
ENDBRANCH  24  27
ENDBRANCH  18  21
ENDBRANCH  16  17
ENDBRANCH   2  16
TORSDOF 6
ENDMDL
