MODEL 1
REMARK VINA RESULT:      -9.0      0.000      0.000
REMARK  6 active torsions:
REMARK  status: ('A' for Active; 'I' for Inactive)
REMARK    1  A    between atoms: C_4  and  C_5 
REMARK    2  A    between atoms: C_10  and  C_11 
REMARK    3  A    between atoms: C_11  and  N_12 
REMARK    4  A    between atoms: N_12  and  C_14 
REMARK    5  A    between atoms: C_14  and  C_15 
REMARK       I    between atoms: C_15  and  N_16 
REMARK    6  A    between atoms: N_16  and  C_17 
ROOT
HETATM    1  N   UNL     1      26.298  46.471  50.892  1.00  0.00    -0.063 N 
HETATM    2  H   UNL     1      27.184  46.986  51.006  1.00  0.00     0.280 HD
HETATM    3  C   UNL     1      26.639  45.192  50.180  1.00  0.00     0.270 C 
ENDROOT
BRANCH   1   4
HETATM    4  C   UNL     1      25.367  47.322  50.070  1.00  0.00     0.277 C 
BRANCH   4   5
HETATM    5  C   UNL     1      26.041  48.419  49.337  1.00  0.00     0.018 A 
HETATM    6  C   UNL     1      25.444  49.442  48.547  1.00  0.00     0.120 A 
HETATM    7  N   UNL     1      26.362  50.262  48.026  1.00  0.00    -0.172 NA
HETATM    8  N   UNL     1      27.535  49.767  48.441  1.00  0.00    -0.288 N 
HETATM    9  H   UNL     1      28.389  50.227  48.136  1.00  0.00     0.188 HD
HETATM   10  C   UNL     1      27.397  48.676  49.253  1.00  0.00     0.120 A 
BRANCH   6  11
HETATM   11  C   UNL     1      23.981  49.650  48.319  1.00  0.00     0.106 A 
HETATM   12  O   UNL     1      23.103  48.665  47.950  1.00  0.00    -0.313 OA
HETATM   13  C   UNL     1      21.874  49.243  47.820  1.00  0.00     0.050 A 
HETATM   14  C   UNL     1      20.765  48.371  47.382  1.00  0.00     0.076 C 
HETATM   15  C   UNL     1      21.946  50.583  48.125  1.00  0.00     0.035 A 
HETATM   16  C   UNL     1      23.298  50.843  48.454  1.00  0.00     0.042 A 
ENDBRANCH   6  11
ENDBRANCH   4   5
ENDBRANCH   1   4
BRANCH   1  17
HETATM   17  C   UNL     1      25.811  46.223  52.332  1.00  0.00     0.337 C 
BRANCH  17  18
HETATM   18  C   UNL     1      25.282  44.797  52.488  1.00  0.00     0.248 C 
HETATM   19  N   UNL     1      25.956  43.853  53.200  1.00  0.00    -0.326 N 
HETATM   20  H   UNL     1      25.384  43.027  53.373  1.00  0.00     0.169 HD
HETATM   21  O   UNL     1      24.172  44.522  52.016  1.00  0.00    -0.271 OA
BRANCH  19  22
HETATM   22  C   UNL     1      27.270  43.800  53.700  1.00  0.00     0.040 A 
HETATM   23  C   UNL     1      28.154  42.927  53.053  1.00  0.00     0.072 A 
HETATM   24  C   UNL     1      29.480  42.826  53.472  1.00  0.00     0.121 A 
HETATM   25  F   UNL     1      30.298  41.966  52.852  1.00  0.00    -0.206 F 
HETATM   26  C   UNL     1      29.963  43.596  54.516  1.00  0.00     0.084 A 
HETATM   27  C   UNL     1      29.093  44.477  55.136  1.00  0.00     0.121 A 
HETATM   28  F   UNL     1      29.541  45.255  56.130  1.00  0.00    -0.206 F 
HETATM   29  C   UNL     1      27.758  44.589  54.742  1.00  0.00     0.072 A 
ENDBRANCH  19  22
ENDBRANCH  17  18
ENDBRANCH   1  17
TORSDOF 6
ENDMDL
MODEL 2
REMARK VINA RESULT:      -9.0      3.447      7.817
REMARK  6 active torsions:
REMARK  status: ('A' for Active; 'I' for Inactive)
REMARK    1  A    between atoms: C_4  and  C_5 
REMARK    2  A    between atoms: C_10  and  C_11 
REMARK    3  A    between atoms: C_11  and  N_12 
REMARK    4  A    between atoms: N_12  and  C_14 
REMARK    5  A    between atoms: C_14  and  C_15 
REMARK       I    between atoms: C_15  and  N_16 
REMARK    6  A    between atoms: N_16  and  C_17 
ROOT
HETATM    1  N   UNL     1      25.778  43.202  50.240  1.00  0.00    -0.063 N 
HETATM    2  H   UNL     1      25.626  43.251  51.259  1.00  0.00     0.280 HD
HETATM    3  C   UNL     1      24.961  42.042  49.745  1.00  0.00     0.270 C 
ENDROOT
BRANCH   1   4
HETATM    4  C   UNL     1      27.247  42.977  50.000  1.00  0.00     0.277 C 
BRANCH   4   5
HETATM    5  C   UNL     1      27.858  41.966  50.894  1.00  0.00     0.018 A 
HETATM    6  C   UNL     1      28.273  42.127  52.246  1.00  0.00     0.120 A 
HETATM    7  N   UNL     1      28.791  40.998  52.740  1.00  0.00    -0.172 NA
HETATM    8  N   UNL     1      28.745  40.129  51.723  1.00  0.00    -0.288 N 
HETATM    9  H   UNL     1      29.120  39.194  51.869  1.00  0.00     0.188 HD
HETATM   10  C   UNL     1      28.169  40.652  50.599  1.00  0.00     0.120 A 
BRANCH   6  11
HETATM   11  C   UNL     1      28.139  43.363  53.076  1.00  0.00     0.106 A 
HETATM   12  O   UNL     1      27.092  44.244  52.999  1.00  0.00    -0.313 OA
HETATM   13  C   UNL     1      27.338  45.247  53.889  1.00  0.00     0.050 A 
HETATM   14  C   UNL     1      26.352  46.346  53.951  1.00  0.00     0.076 C 
HETATM   15  C   UNL     1      28.518  45.010  54.557  1.00  0.00     0.035 A 
HETATM   16  C   UNL     1      29.029  43.795  54.040  1.00  0.00     0.042 A 
ENDBRANCH   6  11
ENDBRANCH   4   5
ENDBRANCH   1   4
BRANCH   1  17
HETATM   17  C   UNL     1      25.256  44.550  49.710  1.00  0.00     0.337 C 
BRANCH  17  18
HETATM   18  C   UNL     1      24.578  45.346  50.825  1.00  0.00     0.248 C 
HETATM   19  N   UNL     1      24.480  46.704  50.783  1.00  0.00    -0.326 N 
HETATM   20  H   UNL     1      23.837  47.060  51.490  1.00  0.00     0.169 HD
HETATM   21  O   UNL     1      24.040  44.728  51.751  1.00  0.00    -0.271 OA
BRANCH  19  22
HETATM   22  C   UNL     1      25.108  47.676  49.984  1.00  0.00     0.040 A 
HETATM   23  C   UNL     1      24.270  48.506  49.229  1.00  0.00     0.072 A 
HETATM   24  C   UNL     1      24.808  49.508  48.422  1.00  0.00     0.121 A 
HETATM   25  F   UNL     1      23.986  50.272  47.692  1.00  0.00    -0.206 F 
HETATM   26  C   UNL     1      26.174  49.725  48.363  1.00  0.00     0.084 A 
HETATM   27  C   UNL     1      26.998  48.919  49.131  1.00  0.00     0.121 A 
HETATM   28  F   UNL     1      28.321  49.126  49.116  1.00  0.00    -0.206 F 
HETATM   29  C   UNL     1      26.483  47.902  49.938  1.00  0.00     0.072 A 
ENDBRANCH  19  22
ENDBRANCH  17  18
ENDBRANCH   1  17
TORSDOF 6
ENDMDL
MODEL 3
REMARK VINA RESULT:      -9.0      0.187      1.610
REMARK  6 active torsions:
REMARK  status: ('A' for Active; 'I' for Inactive)
REMARK    1  A    between atoms: C_4  and  C_5 
REMARK    2  A    between atoms: C_10  and  C_11 
REMARK    3  A    between atoms: C_11  and  N_12 
REMARK    4  A    between atoms: N_12  and  C_14 
REMARK    5  A    between atoms: C_14  and  C_15 
REMARK       I    between atoms: C_15  and  N_16 
REMARK    6  A    between atoms: N_16  and  C_17 
ROOT
HETATM    1  N   UNL     1      26.397  46.393  50.787  1.00  0.00    -0.063 N 
HETATM    2  H   UNL     1      27.293  46.896  50.879  1.00  0.00     0.280 HD
HETATM    3  C   UNL     1      26.711  45.089  50.111  1.00  0.00     0.270 C 
ENDROOT
BRANCH   1   4
HETATM    4  C   UNL     1      25.476  47.236  49.945  1.00  0.00     0.277 C 
BRANCH   4   5
HETATM    5  C   UNL     1      26.139  48.390  49.293  1.00  0.00     0.018 A 
HETATM    6  C   UNL     1      25.535  49.445  48.553  1.00  0.00     0.120 A 
HETATM    7  N   UNL     1      26.445  50.314  48.101  1.00  0.00    -0.172 NA
HETATM    8  N   UNL     1      27.620  49.820  48.510  1.00  0.00    -0.288 N 
HETATM    9  H   UNL     1      28.469  50.316  48.251  1.00  0.00     0.188 HD
HETATM   10  C   UNL     1      27.490  48.680  49.253  1.00  0.00     0.120 A 
BRANCH   6  11
HETATM   11  C   UNL     1      24.072  49.635  48.307  1.00  0.00     0.106 A 
HETATM   12  O   UNL     1      23.198  48.627  47.992  1.00  0.00    -0.313 OA
HETATM   13  C   UNL     1      21.969  49.193  47.824  1.00  0.00     0.050 A 
HETATM   14  C   UNL     1      20.863  48.293  47.433  1.00  0.00     0.076 C 
HETATM   15  C   UNL     1      22.036  50.548  48.051  1.00  0.00     0.035 A 
HETATM   16  C   UNL     1      23.386  50.831  48.369  1.00  0.00     0.042 A 
ENDBRANCH   6  11
ENDBRANCH   4   5
ENDBRANCH   1   4
BRANCH   1  17
HETATM   17  C   UNL     1      25.917  46.197  52.236  1.00  0.00     0.337 C 
BRANCH  17  18
HETATM   18  C   UNL     1      25.389  44.777  52.445  1.00  0.00     0.248 C 
HETATM   19  N   UNL     1      26.090  43.844  53.147  1.00  0.00    -0.326 N 
HETATM   20  H   UNL     1      25.522  43.025  53.362  1.00  0.00     0.169 HD
HETATM   21  O   UNL     1      24.259  44.498  52.027  1.00  0.00    -0.271 OA
BRANCH  19  22
HETATM   22  C   UNL     1      27.424  43.796  53.590  1.00  0.00     0.040 A 
HETATM   23  C   UNL     1      27.735  44.550  54.729  1.00  0.00     0.072 A 
HETATM   24  C   UNL     1      29.030  44.545  55.247  1.00  0.00     0.121 A 
HETATM   25  F   UNL     1      29.307  45.294  56.322  1.00  0.00    -0.206 F 
HETATM   26  C   UNL     1      30.031  43.784  54.669  1.00  0.00     0.084 A 
HETATM   27  C   UNL     1      29.713  43.019  53.559  1.00  0.00     0.121 A 
HETATM   28  F   UNL     1      30.654  42.250  52.997  1.00  0.00    -0.206 F 
HETATM   29  C   UNL     1      28.426  43.015  53.015  1.00  0.00     0.072 A 
ENDBRANCH  19  22
ENDBRANCH  17  18
ENDBRANCH   1  17
TORSDOF 6
ENDMDL
MODEL 4
REMARK VINA RESULT:      -8.7      1.603      2.173
REMARK  6 active torsions:
REMARK  status: ('A' for Active; 'I' for Inactive)
REMARK    1  A    between atoms: C_4  and  C_5 
REMARK    2  A    between atoms: C_10  and  C_11 
REMARK    3  A    between atoms: C_11  and  N_12 
REMARK    4  A    between atoms: N_12  and  C_14 
REMARK    5  A    between atoms: C_14  and  C_15 
REMARK       I    between atoms: C_15  and  N_16 
REMARK    6  A    between atoms: N_16  and  C_17 
ROOT
HETATM    1  N   UNL     1      25.692  45.676  49.925  1.00  0.00    -0.063 N 
HETATM    2  H   UNL     1      26.414  45.708  49.189  1.00  0.00     0.280 HD
HETATM    3  C   UNL     1      24.420  45.244  49.252  1.00  0.00     0.270 C 
ENDROOT
BRANCH   1   4
HETATM    4  C   UNL     1      25.560  47.058  50.506  1.00  0.00     0.277 C 
BRANCH   4   5
HETATM    5  C   UNL     1      26.042  48.138  49.614  1.00  0.00     0.018 A 
HETATM    6  C   UNL     1      25.270  49.102  48.906  1.00  0.00     0.120 A 
HETATM    7  N   UNL     1      26.044  49.924  48.189  1.00  0.00    -0.172 NA
HETATM    8  N   UNL     1      27.292  49.485  48.399  1.00  0.00    -0.288 N 
HETATM    9  H   UNL     1      28.057  49.956  47.920  1.00  0.00     0.188 HD
HETATM   10  C   UNL     1      27.349  48.432  49.268  1.00  0.00     0.120 A 
BRANCH   6  11
HETATM   11  C   UNL     1      23.784  49.254  48.946  1.00  0.00     0.106 A 
HETATM   12  O   UNL     1      23.119  50.226  49.646  1.00  0.00    -0.313 OA
HETATM   13  C   UNL     1      21.783  50.025  49.455  1.00  0.00     0.050 A 
HETATM   14  C   UNL     1      20.859  50.939  50.158  1.00  0.00     0.076 C 
HETATM   15  C   UNL     1      21.582  48.950  48.619  1.00  0.00     0.035 A 
HETATM   16  C   UNL     1      22.867  48.460  48.286  1.00  0.00     0.042 A 
ENDBRANCH   6  11
ENDBRANCH   4   5
ENDBRANCH   1   4
BRANCH   1  17
HETATM   17  C   UNL     1      26.208  44.624  50.923  1.00  0.00     0.337 C 
BRANCH  17  18
HETATM   18  C   UNL     1      25.175  44.363  52.020  1.00  0.00     0.248 C 
HETATM   19  N   UNL     1      25.307  44.882  53.271  1.00  0.00    -0.326 N 
HETATM   20  H   UNL     1      24.451  44.783  53.816  1.00  0.00     0.169 HD
HETATM   21  O   UNL     1      24.155  43.725  51.733  1.00  0.00    -0.271 OA
BRANCH  19  22
HETATM   22  C   UNL     1      26.388  45.486  53.939  1.00  0.00     0.040 A 
HETATM   23  C   UNL     1      27.434  44.641  54.333  1.00  0.00     0.072 A 
HETATM   24  C   UNL     1      28.553  45.159  54.985  1.00  0.00     0.121 A 
HETATM   25  F   UNL     1      29.527  44.326  55.373  1.00  0.00    -0.206 F 
HETATM   26  C   UNL     1      28.672  46.515  55.237  1.00  0.00     0.084 A 
HETATM   27  C   UNL     1      27.649  47.350  54.822  1.00  0.00     0.121 A 
HETATM   28  F   UNL     1      27.752  48.670  55.026  1.00  0.00    -0.206 F 
HETATM   29  C   UNL     1      26.513  46.854  54.177  1.00  0.00     0.072 A 
ENDBRANCH  19  22
ENDBRANCH  17  18
ENDBRANCH   1  17
TORSDOF 6
ENDMDL
MODEL 5
REMARK VINA RESULT:      -8.6     11.563     13.369
REMARK  6 active torsions:
REMARK  status: ('A' for Active; 'I' for Inactive)
REMARK    1  A    between atoms: C_4  and  C_5 
REMARK    2  A    between atoms: C_10  and  C_11 
REMARK    3  A    between atoms: C_11  and  N_12 
REMARK    4  A    between atoms: N_12  and  C_14 
REMARK    5  A    between atoms: C_14  and  C_15 
REMARK       I    between atoms: C_15  and  N_16 
REMARK    6  A    between atoms: N_16  and  C_17 
ROOT
HETATM    1  N   UNL     1      32.425  49.145  41.079  1.00  0.00    -0.063 N 
HETATM    2  H   UNL     1      33.096  49.738  40.567  1.00  0.00     0.280 HD
HETATM    3  C   UNL     1      33.092  47.811  41.261  1.00  0.00     0.270 C 
ENDROOT
BRANCH   1   4
HETATM    4  C   UNL     1      31.180  49.024  40.242  1.00  0.00     0.277 C 
BRANCH   4   5
HETATM    5  C   UNL     1      31.089  50.014  39.144  1.00  0.00     0.018 A 
HETATM    6  C   UNL     1      29.924  50.461  38.459  1.00  0.00     0.120 A 
HETATM    7  N   UNL     1      30.222  51.361  37.516  1.00  0.00    -0.172 NA
HETATM    8  N   UNL     1      31.554  51.475  37.563  1.00  0.00    -0.288 N 
HETATM    9  H   UNL     1      32.010  52.100  36.901  1.00  0.00     0.188 HD
HETATM   10  C   UNL     1      32.122  50.709  38.541  1.00  0.00     0.120 A 
BRANCH   6  11
HETATM   11  C   UNL     1      28.516  50.044  38.736  1.00  0.00     0.106 A 
HETATM   12  O   UNL     1      28.153  49.070  39.629  1.00  0.00    -0.313 OA
HETATM   13  C   UNL     1      26.794  48.963  39.585  1.00  0.00     0.050 A 
HETATM   14  C   UNL     1      26.173  47.933  40.444  1.00  0.00     0.076 C 
HETATM   15  C   UNL     1      26.276  49.874  38.693  1.00  0.00     0.035 A 
HETATM   16  C   UNL     1      27.381  50.574  38.153  1.00  0.00     0.042 A 
ENDBRANCH   6  11
ENDBRANCH   4   5
ENDBRANCH   1   4
BRANCH   1  17
HETATM   17  C   UNL     1      32.211  49.876  42.417  1.00  0.00     0.337 C 
BRANCH  17  18
HETATM   18  C   UNL     1      32.858  51.261  42.389  1.00  0.00     0.248 C 
HETATM   19  N   UNL     1      32.133  52.390  42.158  1.00  0.00    -0.326 N 
HETATM   20  H   UNL     1      32.667  53.233  42.366  1.00  0.00     0.169 HD
HETATM   21  O   UNL     1      34.061  51.358  42.660  1.00  0.00    -0.271 OA
BRANCH  19  22
HETATM   22  C   UNL     1      30.830  52.597  41.670  1.00  0.00     0.040 A 
HETATM   23  C   UNL     1      30.674  53.593  40.697  1.00  0.00     0.072 A 
HETATM   24  C   UNL     1      29.419  53.852  40.147  1.00  0.00     0.121 A 
HETATM   25  F   UNL     1      29.294  54.826  39.236  1.00  0.00    -0.206 F 
HETATM   26  C   UNL     1      28.306  53.123  40.525  1.00  0.00     0.084 A 
HETATM   27  C   UNL     1      28.468  52.122  41.468  1.00  0.00     0.121 A 
HETATM   28  F   UNL     1      27.413  51.381  41.831  1.00  0.00    -0.206 F 
HETATM   29  C   UNL     1      29.713  51.850  42.042  1.00  0.00     0.072 A 
ENDBRANCH  19  22
ENDBRANCH  17  18
ENDBRANCH   1  17
TORSDOF 6
ENDMDL
MODEL 6
REMARK VINA RESULT:      -8.1      5.317      8.256
REMARK  6 active torsions:
REMARK  status: ('A' for Active; 'I' for Inactive)
REMARK    1  A    between atoms: C_4  and  C_5 
REMARK    2  A    between atoms: C_10  and  C_11 
REMARK    3  A    between atoms: C_11  and  N_12 
REMARK    4  A    between atoms: N_12  and  C_14 
REMARK    5  A    between atoms: C_14  and  C_15 
REMARK       I    between atoms: C_15  and  N_16 
REMARK    6  A    between atoms: N_16  and  C_17 
ROOT
HETATM    1  N   UNL     1      27.392  43.449  53.165  1.00  0.00    -0.063 N 
HETATM    2  H   UNL     1      26.509  43.644  53.660  1.00  0.00     0.280 HD
HETATM    3  C   UNL     1      27.738  42.018  53.463  1.00  0.00     0.270 C 
ENDROOT
BRANCH   1   4
HETATM    4  C   UNL     1      28.441  44.387  53.701  1.00  0.00     0.277 C 
BRANCH   4   5
HETATM    5  C   UNL     1      27.893  45.591  54.368  1.00  0.00     0.018 A 
HETATM    6  C   UNL     1      28.257  46.136  55.631  1.00  0.00     0.120 A 
HETATM    7  N   UNL     1      27.545  47.230  55.920  1.00  0.00    -0.172 NA
HETATM    8  N   UNL     1      26.712  47.377  54.883  1.00  0.00    -0.288 N 
HETATM    9  H   UNL     1      26.047  48.147  54.902  1.00  0.00     0.188 HD
HETATM   10  C   UNL     1      26.898  46.435  53.911  1.00  0.00     0.120 A 
BRANCH   6  11
HETATM   11  C   UNL     1      29.318  45.620  56.550  1.00  0.00     0.106 A 
HETATM   12  O   UNL     1      30.223  44.644  56.224  1.00  0.00    -0.313 OA
HETATM   13  C   UNL     1      31.007  44.433  57.320  1.00  0.00     0.050 A 
HETATM   14  C   UNL     1      32.039  43.381  57.215  1.00  0.00     0.076 C 
HETATM   15  C   UNL     1      30.634  45.280  58.339  1.00  0.00     0.035 A 
HETATM   16  C   UNL     1      29.554  46.048  57.841  1.00  0.00     0.042 A 
ENDBRANCH   6  11
ENDBRANCH   4   5
ENDBRANCH   1   4
BRANCH   1  17
HETATM   17  C   UNL     1      27.055  43.669  51.679  1.00  0.00     0.337 C 
BRANCH  17  18
HETATM   18  C   UNL     1      25.745  42.972  51.310  1.00  0.00     0.248 C 
HETATM   19  N   UNL     1      25.721  41.837  50.560  1.00  0.00    -0.326 N 
HETATM   20  H   UNL     1      24.802  41.394  50.571  1.00  0.00     0.169 HD
HETATM   21  O   UNL     1      24.688  43.415  51.774  1.00  0.00    -0.271 OA
BRANCH  19  22
HETATM   22  C   UNL     1      26.696  41.199  49.773  1.00  0.00     0.040 A 
HETATM   23  C   UNL     1      27.310  40.068  50.327  1.00  0.00     0.072 A 
HETATM   24  C   UNL     1      28.276  39.364  49.608  1.00  0.00     0.121 A 
HETATM   25  F   UNL     1      28.865  38.302  50.171  1.00  0.00    -0.206 F 
HETATM   26  C   UNL     1      28.635  39.746  48.327  1.00  0.00     0.084 A 
HETATM   27  C   UNL     1      28.007  40.848  47.772  1.00  0.00     0.121 A 
HETATM   28  F   UNL     1      28.314  41.222  46.523  1.00  0.00    -0.206 F 
HETATM   29  C   UNL     1      27.045  41.576  48.476  1.00  0.00     0.072 A 
ENDBRANCH  19  22
ENDBRANCH  17  18
ENDBRANCH   1  17
TORSDOF 6
ENDMDL
MODEL 7
REMARK VINA RESULT:      -8.0      3.633      8.463
REMARK  6 active torsions:
REMARK  status: ('A' for Active; 'I' for Inactive)
REMARK    1  A    between atoms: C_4  and  C_5 
REMARK    2  A    between atoms: C_10  and  C_11 
REMARK    3  A    between atoms: C_11  and  N_12 
REMARK    4  A    between atoms: N_12  and  C_14 
REMARK    5  A    between atoms: C_14  and  C_15 
REMARK       I    between atoms: C_15  and  N_16 
REMARK    6  A    between atoms: N_16  and  C_17 
ROOT
HETATM    1  N   UNL     1      25.863  45.013  52.493  1.00  0.00    -0.063 N 
HETATM    2  H   UNL     1      25.222  45.784  52.733  1.00  0.00     0.280 HD
HETATM    3  C   UNL     1      25.449  43.840  53.335  1.00  0.00     0.270 C 
ENDROOT
BRANCH   1   4
HETATM    4  C   UNL     1      27.264  45.454  52.822  1.00  0.00     0.277 C 
BRANCH   4   5
HETATM    5  C   UNL     1      27.371  46.252  54.066  1.00  0.00     0.018 A 
HETATM    6  C   UNL     1      28.214  46.019  55.188  1.00  0.00     0.120 A 
HETATM    7  N   UNL     1      28.038  46.944  56.138  1.00  0.00    -0.172 NA
HETATM    8  N   UNL     1      27.078  47.744  55.660  1.00  0.00    -0.288 N 
HETATM    9  H   UNL     1      26.759  48.517  56.240  1.00  0.00     0.188 HD
HETATM   10  C   UNL     1      26.661  47.389  54.408  1.00  0.00     0.120 A 
BRANCH   6  11
HETATM   11  C   UNL     1      29.218  44.921  55.334  1.00  0.00     0.106 A 
HETATM   12  O   UNL     1      30.127  44.827  56.355  1.00  0.00    -0.313 OA
HETATM   13  C   UNL     1      30.877  43.710  56.131  1.00  0.00     0.050 A 
HETATM   14  C   UNL     1      31.963  43.426  57.092  1.00  0.00     0.076 C 
HETATM   15  C   UNL     1      30.445  43.070  54.991  1.00  0.00     0.035 A 
HETATM   16  C   UNL     1      29.374  43.844  54.484  1.00  0.00     0.042 A 
ENDBRANCH   6  11
ENDBRANCH   4   5
ENDBRANCH   1   4
BRANCH   1  17
HETATM   17  C   UNL     1      25.621  44.767  50.993  1.00  0.00     0.337 C 
BRANCH  17  18
HETATM   18  C   UNL     1      24.167  45.058  50.622  1.00  0.00     0.248 C 
HETATM   19  N   UNL     1      23.817  46.134  49.865  1.00  0.00    -0.326 N 
HETATM   20  H   UNL     1      22.851  46.076  49.546  1.00  0.00     0.169 HD
HETATM   21  O   UNL     1      23.296  44.246  50.960  1.00  0.00    -0.271 OA
BRANCH  19  22
HETATM   22  C   UNL     1      24.520  47.290  49.480  1.00  0.00     0.040 A 
HETATM   23  C   UNL     1      23.776  48.296  48.850  1.00  0.00     0.072 A 
HETATM   24  C   UNL     1      24.389  49.484  48.452  1.00  0.00     0.121 A 
HETATM   25  F   UNL     1      23.660  50.419  47.830  1.00  0.00    -0.206 F 
HETATM   26  C   UNL     1      25.734  49.710  48.686  1.00  0.00     0.084 A 
HETATM   27  C   UNL     1      26.461  48.724  49.332  1.00  0.00     0.121 A 
HETATM   28  F   UNL     1      27.757  48.928  49.598  1.00  0.00    -0.206 F 
HETATM   29  C   UNL     1      25.872  47.521  49.731  1.00  0.00     0.072 A 
ENDBRANCH  19  22
ENDBRANCH  17  18
ENDBRANCH   1  17
TORSDOF 6
ENDMDL
MODEL 8
REMARK VINA RESULT:      -8.0      3.971      7.294
REMARK  6 active torsions:
REMARK  status: ('A' for Active; 'I' for Inactive)
REMARK    1  A    between atoms: C_4  and  C_5 
REMARK    2  A    between atoms: C_10  and  C_11 
REMARK    3  A    between atoms: C_11  and  N_12 
REMARK    4  A    between atoms: N_12  and  C_14 
REMARK    5  A    between atoms: C_14  and  C_15 
REMARK       I    between atoms: C_15  and  N_16 
REMARK    6  A    between atoms: N_16  and  C_17 
ROOT
HETATM    1  N   UNL     1      27.345  42.587  52.905  1.00  0.00    -0.063 N 
HETATM    2  H   UNL     1      26.848  42.830  53.776  1.00  0.00     0.280 HD
HETATM    3  C   UNL     1      27.858  41.187  53.087  1.00  0.00     0.270 C 
ENDROOT
BRANCH   1   4
HETATM    4  C   UNL     1      28.477  43.564  52.730  1.00  0.00     0.277 C 
BRANCH   4   5
HETATM    5  C   UNL     1      29.192  43.894  53.984  1.00  0.00     0.018 A 
HETATM    6  C   UNL     1      28.952  44.981  54.872  1.00  0.00     0.120 A 
HETATM    7  N   UNL     1      29.800  44.969  55.906  1.00  0.00    -0.172 NA
HETATM    8  N   UNL     1      30.596  43.917  55.682  1.00  0.00    -0.288 N 
HETATM    9  H   UNL     1      31.347  43.729  56.342  1.00  0.00     0.188 HD
HETATM   10  C   UNL     1      30.257  43.221  54.555  1.00  0.00     0.120 A 
BRANCH   6  11
HETATM   11  C   UNL     1      27.882  46.016  54.741  1.00  0.00     0.106 A 
HETATM   12  O   UNL     1      27.708  47.068  55.601  1.00  0.00    -0.313 OA
HETATM   13  C   UNL     1      26.624  47.774  55.167  1.00  0.00     0.050 A 
HETATM   14  C   UNL     1      26.217  48.943  55.974  1.00  0.00     0.076 C 
HETATM   15  C   UNL     1      26.114  47.202  54.023  1.00  0.00     0.035 A 
HETATM   16  C   UNL     1      26.927  46.078  53.745  1.00  0.00     0.042 A 
ENDBRANCH   6  11
ENDBRANCH   4   5
ENDBRANCH   1   4
BRANCH   1  17
HETATM   17  C   UNL     1      26.267  42.675  51.810  1.00  0.00     0.337 C 
BRANCH  17  18
HETATM   18  C   UNL     1      26.904  42.679  50.420  1.00  0.00     0.248 C 
HETATM   19  N   UNL     1      26.895  43.786  49.627  1.00  0.00    -0.326 N 
HETATM   20  H   UNL     1      27.523  43.688  48.830  1.00  0.00     0.169 HD
HETATM   21  O   UNL     1      27.510  41.669  50.043  1.00  0.00    -0.271 OA
BRANCH  19  22
HETATM   22  C   UNL     1      26.175  44.993  49.692  1.00  0.00     0.040 A 
HETATM   23  C   UNL     1      26.916  46.154  49.946  1.00  0.00     0.072 A 
HETATM   24  C   UNL     1      26.285  47.396  50.009  1.00  0.00     0.121 A 
HETATM   25  F   UNL     1      27.013  48.487  50.278  1.00  0.00    -0.206 F 
HETATM   26  C   UNL     1      24.922  47.518  49.800  1.00  0.00     0.084 A 
HETATM   27  C   UNL     1      24.196  46.372  49.523  1.00  0.00     0.121 A 
HETATM   28  F   UNL     1      22.882  46.465  49.288  1.00  0.00    -0.206 F 
HETATM   29  C   UNL     1      24.804  45.115  49.466  1.00  0.00     0.072 A 
ENDBRANCH  19  22
ENDBRANCH  17  18
ENDBRANCH   1  17
TORSDOF 6
ENDMDL
MODEL 9
REMARK VINA RESULT:      -7.9     11.542     13.806
REMARK  6 active torsions:
REMARK  status: ('A' for Active; 'I' for Inactive)
REMARK    1  A    between atoms: C_4  and  C_5 
REMARK    2  A    between atoms: C_10  and  C_11 
REMARK    3  A    between atoms: C_11  and  N_12 
REMARK    4  A    between atoms: N_12  and  C_14 
REMARK    5  A    between atoms: C_14  and  C_15 
REMARK       I    between atoms: C_15  and  N_16 
REMARK    6  A    between atoms: N_16  and  C_17 
ROOT
HETATM    1  N   UNL     1      30.145  52.153  39.973  1.00  0.00    -0.063 N 
HETATM    2  H   UNL     1      29.464  52.692  39.415  1.00  0.00     0.280 HD
HETATM    3  C   UNL     1      31.002  53.162  40.685  1.00  0.00     0.270 C 
ENDROOT
BRANCH   1   4
HETATM    4  C   UNL     1      30.961  51.315  39.025  1.00  0.00     0.277 C 
BRANCH   4   5
HETATM    5  C   UNL     1      31.071  49.891  39.418  1.00  0.00     0.018 A 
HETATM    6  C   UNL     1      31.871  49.324  40.450  1.00  0.00     0.120 A 
HETATM    7  N   UNL     1      31.723  47.997  40.516  1.00  0.00    -0.172 NA
HETATM    8  N   UNL     1      30.870  47.700  39.529  1.00  0.00    -0.288 N 
HETATM    9  H   UNL     1      30.629  46.723  39.374  1.00  0.00     0.188 HD
HETATM   10  C   UNL     1      30.426  48.804  38.856  1.00  0.00     0.120 A 
BRANCH   6  11
HETATM   11  C   UNL     1      32.758  50.067  41.397  1.00  0.00     0.106 A 
HETATM   12  O   UNL     1      32.344  50.615  42.583  1.00  0.00    -0.313 OA
HETATM   13  C   UNL     1      33.426  51.224  43.149  1.00  0.00     0.050 A 
HETATM   14  C   UNL     1      33.206  51.928  44.430  1.00  0.00     0.076 C 
HETATM   15  C   UNL     1      34.536  51.052  42.354  1.00  0.00     0.035 A 
HETATM   16  C   UNL     1      34.108  50.302  41.232  1.00  0.00     0.042 A 
ENDBRANCH   6  11
ENDBRANCH   4   5
ENDBRANCH   1   4
BRANCH   1  17
HETATM   17  C   UNL     1      29.280  51.334  40.947  1.00  0.00     0.337 C 
BRANCH  17  18
HETATM   18  C   UNL     1      27.842  51.854  40.966  1.00  0.00     0.248 C 
HETATM   19  N   UNL     1      26.808  51.133  40.452  1.00  0.00    -0.326 N 
HETATM   20  H   UNL     1      25.905  51.523  40.717  1.00  0.00     0.169 HD
HETATM   21  O   UNL     1      27.608  52.928  41.534  1.00  0.00    -0.271 OA
BRANCH  19  22
HETATM   22  C   UNL     1      26.764  49.998  39.622  1.00  0.00     0.040 A 
HETATM   23  C   UNL     1      26.975  48.759  40.241  1.00  0.00     0.072 A 
HETATM   24  C   UNL     1      26.930  47.580  39.496  1.00  0.00     0.121 A 
HETATM   25  F   UNL     1      27.159  46.411  40.108  1.00  0.00    -0.206 F 
HETATM   26  C   UNL     1      26.656  47.600  38.140  1.00  0.00     0.084 A 
HETATM   27  C   UNL     1      26.423  48.824  37.536  1.00  0.00     0.121 A 
HETATM   28  F   UNL     1      26.127  48.869  36.231  1.00  0.00    -0.206 F 
HETATM   29  C   UNL     1      26.473  50.019  38.259  1.00  0.00     0.072 A 
ENDBRANCH  19  22
ENDBRANCH  17  18
ENDBRANCH   1  17
TORSDOF 6
ENDMDL
MODEL 10
REMARK VINA RESULT:      -7.9      3.506      5.082
REMARK  6 active torsions:
REMARK  status: ('A' for Active; 'I' for Inactive)
REMARK    1  A    between atoms: C_4  and  C_5 
REMARK    2  A    between atoms: C_10  and  C_11 
REMARK    3  A    between atoms: C_11  and  N_12 
REMARK    4  A    between atoms: N_12  and  C_14 
REMARK    5  A    between atoms: C_14  and  C_15 
REMARK       I    between atoms: C_15  and  N_16 
REMARK    6  A    between atoms: N_16  and  C_17 
ROOT
HETATM    1  N   UNL     1      24.626  44.285  49.198  1.00  0.00    -0.063 N 
HETATM    2  H   UNL     1      24.648  43.944  48.225  1.00  0.00     0.280 HD
HETATM    3  C   UNL     1      23.514  45.293  49.269  1.00  0.00     0.270 C 
ENDROOT
BRANCH   1   4
HETATM    4  C   UNL     1      25.958  44.918  49.497  1.00  0.00     0.277 C 
BRANCH   4   5
HETATM    5  C   UNL     1      26.007  45.645  50.788  1.00  0.00     0.018 A 
HETATM    6  C   UNL     1      26.027  47.052  51.002  1.00  0.00     0.120 A 
HETATM    7  N   UNL     1      26.079  47.351  52.304  1.00  0.00    -0.172 NA
HETATM    8  N   UNL     1      26.123  46.166  52.925  1.00  0.00    -0.288 N 
HETATM    9  H   UNL     1      26.193  46.154  53.940  1.00  0.00     0.188 HD
HETATM   10  C   UNL     1      26.055  45.109  52.061  1.00  0.00     0.120 A 
BRANCH   6  11
HETATM   11  C   UNL     1      25.965  48.113  49.951  1.00  0.00     0.106 A 
HETATM   12  O   UNL     1      24.812  48.718  49.524  1.00  0.00    -0.313 OA
HETATM   13  C   UNL     1      25.157  49.608  48.549  1.00  0.00     0.050 A 
HETATM   14  C   UNL     1      24.058  50.356  47.904  1.00  0.00     0.076 C 
HETATM   15  C   UNL     1      26.520  49.600  48.361  1.00  0.00     0.035 A 
HETATM   16  C   UNL     1      27.040  48.645  49.267  1.00  0.00     0.042 A 
ENDBRANCH   6  11
ENDBRANCH   4   5
ENDBRANCH   1   4
BRANCH   1  17
HETATM   17  C   UNL     1      24.327  43.029  50.037  1.00  0.00     0.337 C 
BRANCH  17  18
HETATM   18  C   UNL     1      23.750  41.916  49.162  1.00  0.00     0.248 C 
HETATM   19  N   UNL     1      24.502  40.859  48.752  1.00  0.00    -0.326 N 
HETATM   20  H   UNL     1      23.929  40.117  48.350  1.00  0.00     0.169 HD
HETATM   21  O   UNL     1      22.544  41.944  48.888  1.00  0.00    -0.271 OA
BRANCH  19  22
HETATM   22  C   UNL     1      25.889  40.624  48.754  1.00  0.00     0.040 A 
HETATM   23  C   UNL     1      26.594  41.009  47.606  1.00  0.00     0.072 A 
HETATM   24  C   UNL     1      27.975  40.829  47.531  1.00  0.00     0.121 A 
HETATM   25  F   UNL     1      28.620  41.184  46.412  1.00  0.00    -0.206 F 
HETATM   26  C   UNL     1      28.686  40.292  48.589  1.00  0.00     0.084 A 
HETATM   27  C   UNL     1      27.991  39.937  49.733  1.00  0.00     0.121 A 
HETATM   28  F   UNL     1      28.658  39.442  50.783  1.00  0.00    -0.206 F 
HETATM   29  C   UNL     1      26.606  40.097  49.828  1.00  0.00     0.072 A 
ENDBRANCH  19  22
ENDBRANCH  17  18
ENDBRANCH   1  17
TORSDOF 6
ENDMDL
