MODEL 1
REMARK VINA RESULT:      -8.4      0.000      0.000
REMARK  5 active torsions:
REMARK  status: ('A' for Active; 'I' for Inactive)
REMARK    1  A    between atoms: C_3  and  N_4 
REMARK       I    between atoms: N_4  and  C_5 
REMARK       I    between atoms: C_5  and  N_6 
REMARK    2  A    between atoms: N_6  and  C_7 
REMARK    3  A    between atoms: C_7  and  C_8 
REMARK    4  A    between atoms: C_8  and  O_9 
REMARK    5  A    between atoms: O_9  and  C_10 
ROOT
HETATM    1  N   UNL     1      24.806  46.717  50.447  1.00  0.00    -0.307 N 
HETATM    2  C   UNL     1      25.177  46.626  51.770  1.00  0.00     0.320 C 
HETATM    3  N   UNL     1      25.129  45.315  52.197  1.00  0.00    -0.340 N 
HETATM    4  O   UNL     1      25.559  47.539  52.488  1.00  0.00    -0.247 OA
HETATM    5  H   UNL     1      25.030  45.877  49.932  1.00  0.00     0.170 HD
HETATM    6  H   UNL     1      24.479  44.700  51.726  1.00  0.00     0.164 HD
ENDROOT
BRANCH   3   7
HETATM    7  C   UNL     1      25.494  44.946  53.556  1.00  0.00     0.156 C 
BRANCH   7   8
HETATM    8  C   UNL     1      26.759  44.070  53.639  1.00  0.00     0.142 C 
HETATM    9  C   UNL     1      26.892  43.125  52.447  1.00  0.00     0.042 C 
BRANCH   8  10
HETATM   10  O   UNL     1      27.933  44.899  53.650  1.00  0.00    -0.345 OA
BRANCH  10  11
HETATM   11  C   UNL     1      28.886  44.696  54.609  1.00  0.00     0.070 A 
HETATM   12  C   UNL     1      29.136  45.507  55.717  1.00  0.00     0.060 A 
HETATM   13  C   UNL     1      30.160  45.171  56.606  1.00  0.00     0.036 A 
HETATM   14 CL   UNL     1      30.466  46.181  57.968  1.00  0.00    -0.084 Cl
HETATM   15  C   UNL     1      30.939  44.035  56.404  1.00  0.00     0.024 A 
HETATM   16  C   UNL     1      30.695  43.225  55.299  1.00  0.00     0.004 A 
HETATM   17  C   UNL     1      29.673  43.558  54.407  1.00  0.00     0.037 A 
ENDBRANCH  10  11
ENDBRANCH   8  10
ENDBRANCH   7   8
ENDBRANCH   3   7
BRANCH   1  18
HETATM   18  C   UNL     1      24.725  47.906  49.683  1.00  0.00     0.059 A 
HETATM   19  C   UNL     1      25.806  48.627  49.155  1.00  0.00    -0.032 A 
HETATM   20  C   UNL     1      27.253  48.299  49.393  1.00  0.00     0.050 C 
HETATM   21  C   UNL     1      25.528  49.758  48.368  1.00  0.00     0.028 A 
HETATM   22  C   UNL     1      24.215  50.165  48.189  1.00  0.00     0.117 A 
HETATM   23  N   UNL     1      23.163  49.537  48.741  1.00  0.00    -0.271 NA
HETATM   24  C   UNL     1      23.446  48.431  49.468  1.00  0.00     0.146 A 
ENDBRANCH   1  18
TORSDOF 5
ENDMDL
MODEL 2
REMARK VINA RESULT:      -8.4      3.619      8.428
REMARK  5 active torsions:
REMARK  status: ('A' for Active; 'I' for Inactive)
REMARK    1  A    between atoms: C_3  and  N_4 
REMARK       I    between atoms: N_4  and  C_5 
REMARK       I    between atoms: C_5  and  N_6 
REMARK    2  A    between atoms: N_6  and  C_7 
REMARK    3  A    between atoms: C_7  and  C_8 
REMARK    4  A    between atoms: C_8  and  O_9 
REMARK    5  A    between atoms: O_9  and  C_10 
ROOT
HETATM    1  N   UNL     1      28.863  45.686  54.822  1.00  0.00    -0.307 N 
HETATM    2  C   UNL     1      27.573  45.301  54.538  1.00  0.00     0.320 C 
HETATM    3  N   UNL     1      27.027  46.117  53.570  1.00  0.00    -0.340 N 
HETATM    4  O   UNL     1      26.974  44.342  55.006  1.00  0.00    -0.247 OA
HETATM    5  H   UNL     1      29.317  46.110  54.025  1.00  0.00     0.170 HD
HETATM    6  H   UNL     1      27.385  47.060  53.506  1.00  0.00     0.164 HD
ENDROOT
BRANCH   3   7
HETATM    7  C   UNL     1      25.674  45.908  53.076  1.00  0.00     0.156 C 
BRANCH   7   8
HETATM    8  C   UNL     1      25.597  45.714  51.549  1.00  0.00     0.142 C 
HETATM    9  C   UNL     1      25.226  44.283  51.162  1.00  0.00     0.042 C 
BRANCH   8  10
HETATM   10  O   UNL     1      24.589  46.574  50.993  1.00  0.00    -0.345 OA
BRANCH  10  11
HETATM   11  C   UNL     1      24.964  47.591  50.161  1.00  0.00     0.070 A 
HETATM   12  C   UNL     1      24.114  48.427  49.435  1.00  0.00     0.060 A 
HETATM   13  C   UNL     1      24.652  49.419  48.612  1.00  0.00     0.036 A 
HETATM   14 CL   UNL     1      23.595  50.444  47.716  1.00  0.00    -0.084 Cl
HETATM   15  C   UNL     1      26.029  49.588  48.502  1.00  0.00     0.024 A 
HETATM   16  C   UNL     1      26.881  48.755  49.221  1.00  0.00     0.004 A 
HETATM   17  C   UNL     1      26.347  47.761  50.044  1.00  0.00     0.037 A 
ENDBRANCH  10  11
ENDBRANCH   8  10
ENDBRANCH   7   8
ENDBRANCH   3   7
BRANCH   1  18
HETATM   18  C   UNL     1      29.723  45.086  55.774  1.00  0.00     0.059 A 
HETATM   19  C   UNL     1      30.471  43.913  55.592  1.00  0.00    -0.032 A 
HETATM   20  C   UNL     1      30.413  43.041  54.370  1.00  0.00     0.050 C 
HETATM   21  C   UNL     1      31.319  43.498  56.634  1.00  0.00     0.028 A 
HETATM   22  C   UNL     1      31.346  44.210  57.822  1.00  0.00     0.117 A 
HETATM   23  N   UNL     1      30.588  45.296  58.054  1.00  0.00    -0.271 NA
HETATM   24  C   UNL     1      29.802  45.701  57.029  1.00  0.00     0.146 A 
ENDBRANCH   1  18
TORSDOF 5
ENDMDL
MODEL 3
REMARK VINA RESULT:      -8.3      1.571      1.910
REMARK  5 active torsions:
REMARK  status: ('A' for Active; 'I' for Inactive)
REMARK    1  A    between atoms: C_3  and  N_4 
REMARK       I    between atoms: N_4  and  C_5 
REMARK       I    between atoms: C_5  and  N_6 
REMARK    2  A    between atoms: N_6  and  C_7 
REMARK    3  A    between atoms: C_7  and  C_8 
REMARK    4  A    between atoms: C_8  and  O_9 
REMARK    5  A    between atoms: O_9  and  C_10 
ROOT
HETATM    1  N   UNL     1      26.065  47.032  50.762  1.00  0.00    -0.307 N 
HETATM    2  C   UNL     1      26.276  45.700  50.486  1.00  0.00     0.320 C 
HETATM    3  N   UNL     1      26.742  45.042  51.606  1.00  0.00    -0.340 N 
HETATM    4  O   UNL     1      26.041  45.123  49.434  1.00  0.00    -0.247 OA
HETATM    5  H   UNL     1      25.822  47.185  51.731  1.00  0.00     0.170 HD
HETATM    6  H   UNL     1      27.257  45.590  52.281  1.00  0.00     0.164 HD
ENDROOT
BRANCH   3   7
HETATM    7  C   UNL     1      27.026  43.615  51.583  1.00  0.00     0.156 C 
BRANCH   7   8
HETATM    8  C   UNL     1      27.705  43.101  52.867  1.00  0.00     0.142 C 
HETATM    9  C   UNL     1      27.857  41.581  52.875  1.00  0.00     0.042 C 
BRANCH   8  10
HETATM   10  O   UNL     1      29.026  43.655  52.981  1.00  0.00    -0.345 OA
BRANCH  10  11
HETATM   11  C   UNL     1      29.473  44.070  54.205  1.00  0.00     0.070 A 
HETATM   12  C   UNL     1      30.483  43.479  54.965  1.00  0.00     0.060 A 
HETATM   13  C   UNL     1      30.819  44.016  56.211  1.00  0.00     0.036 A 
HETATM   14 CL   UNL     1      32.063  43.278  57.145  1.00  0.00    -0.084 Cl
HETATM   15  C   UNL     1      30.158  45.135  56.709  1.00  0.00     0.024 A 
HETATM   16  C   UNL     1      29.147  45.726  55.956  1.00  0.00     0.004 A 
HETATM   17  C   UNL     1      28.808  45.192  54.711  1.00  0.00     0.037 A 
ENDBRANCH  10  11
ENDBRANCH   8  10
ENDBRANCH   7   8
ENDBRANCH   3   7
BRANCH   1  18
HETATM   18  C   UNL     1      25.604  48.011  49.849  1.00  0.00     0.059 A 
HETATM   19  C   UNL     1      26.401  48.910  49.125  1.00  0.00    -0.032 A 
HETATM   20  C   UNL     1      27.890  49.043  49.270  1.00  0.00     0.050 C 
HETATM   21  C   UNL     1      25.768  49.776  48.216  1.00  0.00     0.028 A 
HETATM   22  C   UNL     1      24.386  49.764  48.106  1.00  0.00     0.117 A 
HETATM   23  N   UNL     1      23.590  48.965  48.837  1.00  0.00    -0.271 NA
HETATM   24  C   UNL     1      24.218  48.116  49.683  1.00  0.00     0.146 A 
ENDBRANCH   1  18
TORSDOF 5
ENDMDL
MODEL 4
REMARK VINA RESULT:      -8.1      4.178      7.711
REMARK  5 active torsions:
REMARK  status: ('A' for Active; 'I' for Inactive)
REMARK    1  A    between atoms: C_3  and  N_4 
REMARK       I    between atoms: N_4  and  C_5 
REMARK       I    between atoms: C_5  and  N_6 
REMARK    2  A    between atoms: N_6  and  C_7 
REMARK    3  A    between atoms: C_7  and  C_8 
REMARK    4  A    between atoms: C_8  and  O_9 
REMARK    5  A    between atoms: O_9  and  C_10 
ROOT
HETATM    1  N   UNL     1      30.438  43.466  54.401  1.00  0.00    -0.307 N 
HETATM    2  C   UNL     1      29.324  42.811  53.926  1.00  0.00     0.320 C 
HETATM    3  N   UNL     1      29.531  42.381  52.632  1.00  0.00    -0.340 N 
HETATM    4  O   UNL     1      28.298  42.567  54.545  1.00  0.00    -0.247 OA
HETATM    5  H   UNL     1      31.289  43.123  53.979  1.00  0.00     0.170 HD
HETATM    6  H   UNL     1      30.185  42.908  52.070  1.00  0.00     0.164 HD
ENDROOT
BRANCH   3   7
HETATM    7  C   UNL     1      28.509  41.641  51.906  1.00  0.00     0.156 C 
BRANCH   7   8
HETATM    8  C   UNL     1      27.597  42.533  51.043  1.00  0.00     0.142 C 
HETATM    9  C   UNL     1      27.055  41.799  49.818  1.00  0.00     0.042 C 
BRANCH   8  10
HETATM   10  O   UNL     1      26.460  42.964  51.810  1.00  0.00    -0.345 OA
BRANCH  10  11
HETATM   11  C   UNL     1      26.260  44.301  52.013  1.00  0.00     0.070 A 
HETATM   12  C   UNL     1      26.389  45.314  51.062  1.00  0.00     0.060 A 
HETATM   13  C   UNL     1      26.161  46.644  51.429  1.00  0.00     0.036 A 
HETATM   14 CL   UNL     1      26.328  47.889  50.250  1.00  0.00    -0.084 Cl
HETATM   15  C   UNL     1      25.808  46.976  52.734  1.00  0.00     0.024 A 
HETATM   16  C   UNL     1      25.681  45.969  53.686  1.00  0.00     0.004 A 
HETATM   17  C   UNL     1      25.909  44.639  53.324  1.00  0.00     0.037 A 
ENDBRANCH  10  11
ENDBRANCH   8  10
ENDBRANCH   7   8
ENDBRANCH   3   7
BRANCH   1  18
HETATM   18  C   UNL     1      30.579  44.053  55.681  1.00  0.00     0.059 A 
HETATM   19  C   UNL     1      29.941  45.218  56.134  1.00  0.00    -0.032 A 
HETATM   20  C   UNL     1      29.060  46.094  55.291  1.00  0.00     0.050 C 
HETATM   21  C   UNL     1      30.158  45.619  57.464  1.00  0.00     0.028 A 
HETATM   22  C   UNL     1      31.034  44.902  58.263  1.00  0.00     0.117 A 
HETATM   23  N   UNL     1      31.715  43.825  57.837  1.00  0.00    -0.271 NA
HETATM   24  C   UNL     1      31.469  43.432  56.565  1.00  0.00     0.146 A 
ENDBRANCH   1  18
TORSDOF 5
ENDMDL
MODEL 5
REMARK VINA RESULT:      -8.1      3.170      7.419
REMARK  5 active torsions:
REMARK  status: ('A' for Active; 'I' for Inactive)
REMARK    1  A    between atoms: C_3  and  N_4 
REMARK       I    between atoms: N_4  and  C_5 
REMARK       I    between atoms: C_5  and  N_6 
REMARK    2  A    between atoms: N_6  and  C_7 
REMARK    3  A    between atoms: C_7  and  C_8 
REMARK    4  A    between atoms: C_8  and  O_9 
REMARK    5  A    between atoms: O_9  and  C_10 
ROOT
HETATM    1  N   UNL     1      28.821  45.837  55.026  1.00  0.00    -0.307 N 
HETATM    2  C   UNL     1      27.546  45.411  54.732  1.00  0.00     0.320 C 
HETATM    3  N   UNL     1      26.949  46.261  53.825  1.00  0.00    -0.340 N 
HETATM    4  O   UNL     1      26.998  44.398  55.145  1.00  0.00    -0.247 OA
HETATM    5  H   UNL     1      29.243  46.331  54.252  1.00  0.00     0.170 HD
HETATM    6  H   UNL     1      27.262  47.222  53.818  1.00  0.00     0.164 HD
ENDROOT
BRANCH   3   7
HETATM    7  C   UNL     1      25.600  46.020  53.335  1.00  0.00     0.156 C 
BRANCH   7   8
HETATM    8  C   UNL     1      25.533  45.745  51.820  1.00  0.00     0.142 C 
HETATM    9  C   UNL     1      25.077  46.968  51.026  1.00  0.00     0.042 C 
BRANCH   8  10
HETATM   10  O   UNL     1      26.835  45.386  51.327  1.00  0.00    -0.345 OA
BRANCH  10  11
HETATM   11  C   UNL     1      27.096  44.080  51.021  1.00  0.00     0.070 A 
HETATM   12  C   UNL     1      27.761  43.154  51.826  1.00  0.00     0.060 A 
HETATM   13  C   UNL     1      27.964  41.851  51.365  1.00  0.00     0.036 A 
HETATM   14 CL   UNL     1      28.790  40.716  52.364  1.00  0.00    -0.084 Cl
HETATM   15  C   UNL     1      27.512  41.458  50.108  1.00  0.00     0.024 A 
HETATM   16  C   UNL     1      26.851  42.379  49.300  1.00  0.00     0.004 A 
HETATM   17  C   UNL     1      26.647  43.683  49.757  1.00  0.00     0.037 A 
ENDBRANCH  10  11
ENDBRANCH   8  10
ENDBRANCH   7   8
ENDBRANCH   3   7
BRANCH   1  18
HETATM   18  C   UNL     1      29.722  45.218  55.926  1.00  0.00     0.059 A 
HETATM   19  C   UNL     1      30.478  44.063  55.680  1.00  0.00    -0.032 A 
HETATM   20  C   UNL     1      30.388  43.230  54.433  1.00  0.00     0.050 C 
HETATM   21  C   UNL     1      31.367  43.626  56.677  1.00  0.00     0.028 A 
HETATM   22  C   UNL     1      31.427  44.300  57.887  1.00  0.00     0.117 A 
HETATM   23  N   UNL     1      30.664  45.366  58.181  1.00  0.00    -0.271 NA
HETATM   24  C   UNL     1      29.837  45.793  57.197  1.00  0.00     0.146 A 
ENDBRANCH   1  18
TORSDOF 5
ENDMDL
MODEL 6
REMARK VINA RESULT:      -8.0      6.557      9.920
REMARK  5 active torsions:
REMARK  status: ('A' for Active; 'I' for Inactive)
REMARK    1  A    between atoms: C_3  and  N_4 
REMARK       I    between atoms: N_4  and  C_5 
REMARK       I    between atoms: C_5  and  N_6 
REMARK    2  A    between atoms: N_6  and  C_7 
REMARK    3  A    between atoms: C_7  and  C_8 
REMARK    4  A    between atoms: C_8  and  O_9 
REMARK    5  A    between atoms: O_9  and  C_10 
ROOT
HETATM    1  N   UNL     1      23.051  47.945  49.502  1.00  0.00    -0.307 N 
HETATM    2  C   UNL     1      22.125  47.487  48.592  1.00  0.00     0.320 C 
HETATM    3  N   UNL     1      20.954  47.134  49.230  1.00  0.00    -0.340 N 
HETATM    4  O   UNL     1      22.254  47.439  47.377  1.00  0.00    -0.247 OA
HETATM    5  H   UNL     1      22.614  48.378  50.304  1.00  0.00     0.170 HD
HETATM    6  H   UNL     1      21.025  46.838  50.193  1.00  0.00     0.164 HD
ENDROOT
BRANCH   3   7
HETATM    7  C   UNL     1      19.806  46.637  48.486  1.00  0.00     0.156 C 
BRANCH   7   8
HETATM    8  C   UNL     1      18.627  47.628  48.436  1.00  0.00     0.142 C 
HETATM    9  C   UNL     1      17.272  46.924  48.494  1.00  0.00     0.042 C 
BRANCH   8  10
HETATM   10  O   UNL     1      18.685  48.521  49.561  1.00  0.00    -0.345 OA
BRANCH  10  11
HETATM   11  C   UNL     1      18.640  49.870  49.345  1.00  0.00     0.070 A 
HETATM   12  C   UNL     1      17.647  50.748  49.782  1.00  0.00     0.060 A 
HETATM   13  C   UNL     1      17.735  52.107  49.469  1.00  0.00     0.036 A 
HETATM   14 CL   UNL     1      16.503  53.184  50.007  1.00  0.00    -0.084 Cl
HETATM   15  C   UNL     1      18.803  52.602  48.724  1.00  0.00     0.024 A 
HETATM   16  C   UNL     1      19.794  51.729  48.284  1.00  0.00     0.004 A 
HETATM   17  C   UNL     1      19.708  50.370  48.594  1.00  0.00     0.037 A 
ENDBRANCH  10  11
ENDBRANCH   8  10
ENDBRANCH   7   8
ENDBRANCH   3   7
BRANCH   1  18
HETATM   18  C   UNL     1      24.366  48.378  49.209  1.00  0.00     0.059 A 
HETATM   19  C   UNL     1      24.720  49.574  48.566  1.00  0.00    -0.032 A 
HETATM   20  C   UNL     1      23.743  50.563  47.997  1.00  0.00     0.050 C 
HETATM   21  C   UNL     1      26.087  49.865  48.412  1.00  0.00     0.028 A 
HETATM   22  C   UNL     1      27.037  48.947  48.833  1.00  0.00     0.117 A 
HETATM   23  N   UNL     1      26.728  47.762  49.387  1.00  0.00    -0.271 NA
HETATM   24  C   UNL     1      25.409  47.512  49.558  1.00  0.00     0.146 A 
ENDBRANCH   1  18
TORSDOF 5
ENDMDL
MODEL 7
REMARK VINA RESULT:      -7.8      3.229      5.589
REMARK  5 active torsions:
REMARK  status: ('A' for Active; 'I' for Inactive)
REMARK    1  A    between atoms: C_3  and  N_4 
REMARK       I    between atoms: N_4  and  C_5 
REMARK       I    between atoms: C_5  and  N_6 
REMARK    2  A    between atoms: N_6  and  C_7 
REMARK    3  A    between atoms: C_7  and  C_8 
REMARK    4  A    between atoms: C_8  and  O_9 
REMARK    5  A    between atoms: O_9  and  C_10 
ROOT
HETATM    1  N   UNL     1      26.173  42.363  51.784  1.00  0.00    -0.307 N 
HETATM    2  C   UNL     1      26.385  43.716  51.641  1.00  0.00     0.320 C 
HETATM    3  N   UNL     1      25.610  44.425  52.534  1.00  0.00    -0.340 N 
HETATM    4  O   UNL     1      27.181  44.256  50.885  1.00  0.00    -0.247 OA
HETATM    5  H   UNL     1      25.916  42.118  52.730  1.00  0.00     0.170 HD
HETATM    6  H   UNL     1      24.747  43.996  52.837  1.00  0.00     0.164 HD
ENDROOT
BRANCH   3   7
HETATM    7  C   UNL     1      25.665  45.878  52.599  1.00  0.00     0.156 C 
BRANCH   7   8
HETATM    8  C   UNL     1      26.616  46.411  53.688  1.00  0.00     0.142 C 
HETATM    9  C   UNL     1      26.095  47.692  54.338  1.00  0.00     0.042 C 
BRANCH   8  10
HETATM   10  O   UNL     1      26.762  45.438  54.735  1.00  0.00    -0.345 OA
BRANCH  10  11
HETATM   11  C   UNL     1      28.007  45.179  55.237  1.00  0.00     0.070 A 
HETATM   12  C   UNL     1      28.612  45.810  56.325  1.00  0.00     0.060 A 
HETATM   13  C   UNL     1      29.903  45.442  56.711  1.00  0.00     0.036 A 
HETATM   14 CL   UNL     1      30.645  46.229  58.052  1.00  0.00    -0.084 Cl
HETATM   15  C   UNL     1      30.601  44.451  56.025  1.00  0.00     0.024 A 
HETATM   16  C   UNL     1      30.002  43.821  54.937  1.00  0.00     0.004 A 
HETATM   17  C   UNL     1      28.712  44.188  54.547  1.00  0.00     0.037 A 
ENDBRANCH  10  11
ENDBRANCH   8  10
ENDBRANCH   7   8
ENDBRANCH   3   7
BRANCH   1  18
HETATM   18  C   UNL     1      26.785  41.337  51.025  1.00  0.00     0.059 A 
HETATM   19  C   UNL     1      28.015  40.722  51.304  1.00  0.00    -0.032 A 
HETATM   20  C   UNL     1      28.938  41.119  52.419  1.00  0.00     0.050 C 
HETATM   21  C   UNL     1      28.438  39.675  50.466  1.00  0.00     0.028 A 
HETATM   22  C   UNL     1      27.673  39.324  49.365  1.00  0.00     0.117 A 
HETATM   23  N   UNL     1      26.526  39.942  49.031  1.00  0.00    -0.271 NA
HETATM   24  C   UNL     1      26.117  40.925  49.866  1.00  0.00     0.146 A 
ENDBRANCH   1  18
TORSDOF 5
ENDMDL
MODEL 8
REMARK VINA RESULT:      -7.7      3.476      5.447
REMARK  5 active torsions:
REMARK  status: ('A' for Active; 'I' for Inactive)
REMARK    1  A    between atoms: C_3  and  N_4 
REMARK       I    between atoms: N_4  and  C_5 
REMARK       I    between atoms: C_5  and  N_6 
REMARK    2  A    between atoms: N_6  and  C_7 
REMARK    3  A    between atoms: C_7  and  C_8 
REMARK    4  A    between atoms: C_8  and  O_9 
REMARK    5  A    between atoms: O_9  and  C_10 
ROOT
HETATM    1  N   UNL     1      21.427  50.029  49.999  1.00  0.00    -0.307 N 
HETATM    2  C   UNL     1      22.039  49.050  49.249  1.00  0.00     0.320 C 
HETATM    3  N   UNL     1      23.234  48.675  49.826  1.00  0.00    -0.340 N 
HETATM    4  O   UNL     1      21.597  48.515  48.242  1.00  0.00    -0.247 OA
HETATM    5  H   UNL     1      21.659  49.957  50.979  1.00  0.00     0.170 HD
HETATM    6  H   UNL     1      23.711  49.366  50.390  1.00  0.00     0.164 HD
ENDROOT
BRANCH   3   7
HETATM    7  C   UNL     1      24.068  47.638  49.238  1.00  0.00     0.156 C 
BRANCH   7   8
HETATM    8  C   UNL     1      25.319  47.303  50.073  1.00  0.00     0.142 C 
HETATM    9  C   UNL     1      26.540  48.114  49.643  1.00  0.00     0.042 C 
BRANCH   8  10
HETATM   10  O   UNL     1      25.082  47.604  51.458  1.00  0.00    -0.345 OA
BRANCH  10  11
HETATM   11  C   UNL     1      25.703  46.857  52.420  1.00  0.00     0.070 A 
HETATM   12  C   UNL     1      26.360  47.341  53.551  1.00  0.00     0.060 A 
HETATM   13  C   UNL     1      26.961  46.446  54.441  1.00  0.00     0.036 A 
HETATM   14 CL   UNL     1      27.776  47.051  55.833  1.00  0.00    -0.084 Cl
HETATM   15  C   UNL     1      26.916  45.073  54.214  1.00  0.00     0.024 A 
HETATM   16  C   UNL     1      26.263  44.586  53.085  1.00  0.00     0.004 A 
HETATM   17  C   UNL     1      25.663  45.478  52.193  1.00  0.00     0.037 A 
ENDBRANCH  10  11
ENDBRANCH   8  10
ENDBRANCH   7   8
ENDBRANCH   3   7
BRANCH   1  18
HETATM   18  C   UNL     1      20.196  50.661  49.701  1.00  0.00     0.059 A 
HETATM   19  C   UNL     1      18.937  50.303  50.207  1.00  0.00    -0.032 A 
HETATM   20  C   UNL     1      18.675  49.117  51.092  1.00  0.00     0.050 C 
HETATM   21  C   UNL     1      17.828  51.086  49.844  1.00  0.00     0.028 A 
HETATM   22  C   UNL     1      17.991  52.138  48.956  1.00  0.00     0.117 A 
HETATM   23  N   UNL     1      19.171  52.462  48.398  1.00  0.00    -0.271 NA
HETATM   24  C   UNL     1      20.234  51.718  48.785  1.00  0.00     0.146 A 
ENDBRANCH   1  18
TORSDOF 5
ENDMDL
MODEL 9
REMARK VINA RESULT:      -7.7      4.055      7.535
REMARK  5 active torsions:
REMARK  status: ('A' for Active; 'I' for Inactive)
REMARK    1  A    between atoms: C_3  and  N_4 
REMARK       I    between atoms: N_4  and  C_5 
REMARK       I    between atoms: C_5  and  N_6 
REMARK    2  A    between atoms: N_6  and  C_7 
REMARK    3  A    between atoms: C_7  and  C_8 
REMARK    4  A    between atoms: C_8  and  O_9 
REMARK    5  A    between atoms: O_9  and  C_10 
ROOT
HETATM    1  N   UNL     1      30.234  43.413  54.467  1.00  0.00    -0.307 N 
HETATM    2  C   UNL     1      29.223  42.627  53.960  1.00  0.00     0.320 C 
HETATM    3  N   UNL     1      29.645  41.970  52.824  1.00  0.00    -0.340 N 
HETATM    4  O   UNL     1      28.114  42.458  54.446  1.00  0.00    -0.247 OA
HETATM    5  H   UNL     1      31.148  43.035  54.258  1.00  0.00     0.170 HD
HETATM    6  H   UNL     1      30.374  42.410  52.279  1.00  0.00     0.164 HD
ENDROOT
BRANCH   3   7
HETATM    7  C   UNL     1      28.767  41.058  52.105  1.00  0.00     0.156 C 
BRANCH   7   8
HETATM    8  C   UNL     1      28.063  41.703  50.896  1.00  0.00     0.142 C 
HETATM    9  C   UNL     1      27.770  40.694  49.787  1.00  0.00     0.042 C 
BRANCH   8  10
HETATM   10  O   UNL     1      26.802  42.261  51.299  1.00  0.00    -0.345 OA
BRANCH  10  11
HETATM   11  C   UNL     1      26.613  43.613  51.218  1.00  0.00     0.070 A 
HETATM   12  C   UNL     1      26.372  44.484  52.281  1.00  0.00     0.060 A 
HETATM   13  C   UNL     1      26.186  45.846  52.035  1.00  0.00     0.036 A 
HETATM   14 CL   UNL     1      25.884  46.914  53.353  1.00  0.00    -0.084 Cl
HETATM   15  C   UNL     1      26.234  46.352  50.739  1.00  0.00     0.024 A 
HETATM   16  C   UNL     1      26.471  45.487  49.674  1.00  0.00     0.004 A 
HETATM   17  C   UNL     1      26.657  44.124  49.917  1.00  0.00     0.037 A 
ENDBRANCH  10  11
ENDBRANCH   8  10
ENDBRANCH   7   8
ENDBRANCH   3   7
BRANCH   1  18
HETATM   18  C   UNL     1      30.155  44.238  55.614  1.00  0.00     0.059 A 
HETATM   19  C   UNL     1      30.905  44.095  56.791  1.00  0.00    -0.032 A 
HETATM   20  C   UNL     1      31.866  42.973  57.064  1.00  0.00     0.050 C 
HETATM   21  C   UNL     1      30.732  45.050  57.808  1.00  0.00     0.028 A 
HETATM   22  C   UNL     1      29.792  46.057  57.653  1.00  0.00     0.117 A 
HETATM   23  N   UNL     1      29.008  46.178  56.568  1.00  0.00    -0.271 NA
HETATM   24  C   UNL     1      29.210  45.270  55.584  1.00  0.00     0.146 A 
ENDBRANCH   1  18
TORSDOF 5
ENDMDL
MODEL 10
REMARK VINA RESULT:      -7.5      2.097      3.102
REMARK  5 active torsions:
REMARK  status: ('A' for Active; 'I' for Inactive)
REMARK    1  A    between atoms: C_3  and  N_4 
REMARK       I    between atoms: N_4  and  C_5 
REMARK       I    between atoms: C_5  and  N_6 
REMARK    2  A    between atoms: N_6  and  C_7 
REMARK    3  A    between atoms: C_7  and  C_8 
REMARK    4  A    between atoms: C_8  and  O_9 
REMARK    5  A    between atoms: O_9  and  C_10 
ROOT
HETATM    1  N   UNL     1      25.123  44.292  51.447  1.00  0.00    -0.307 N 
HETATM    2  C   UNL     1      26.325  43.653  51.246  1.00  0.00     0.320 C 
HETATM    3  N   UNL     1      26.450  42.577  52.099  1.00  0.00    -0.340 N 
HETATM    4  O   UNL     1      27.168  43.926  50.402  1.00  0.00    -0.247 OA
HETATM    5  H   UNL     1      24.406  43.659  51.772  1.00  0.00     0.170 HD
HETATM    6  H   UNL     1      25.951  42.624  52.977  1.00  0.00     0.164 HD
ENDROOT
BRANCH   3   7
HETATM    7  C   UNL     1      27.626  41.721  52.073  1.00  0.00     0.156 C 
BRANCH   7   8
HETATM    8  C   UNL     1      28.701  42.116  53.104  1.00  0.00     0.142 C 
HETATM    9  C   UNL     1      29.870  42.866  52.468  1.00  0.00     0.042 C 
BRANCH   8  10
HETATM   10  O   UNL     1      28.134  42.987  54.097  1.00  0.00    -0.345 OA
BRANCH  10  11
HETATM   11  C   UNL     1      28.966  43.740  54.878  1.00  0.00     0.070 A 
HETATM   12  C   UNL     1      30.076  43.283  55.590  1.00  0.00     0.060 A 
HETATM   13  C   UNL     1      30.825  44.178  56.359  1.00  0.00     0.036 A 
HETATM   14 CL   UNL     1      32.190  43.606  57.239  1.00  0.00    -0.084 Cl
HETATM   15  C   UNL     1      30.479  45.525  56.427  1.00  0.00     0.024 A 
HETATM   16  C   UNL     1      29.371  45.985  55.721  1.00  0.00     0.004 A 
HETATM   17  C   UNL     1      28.620  45.093  54.953  1.00  0.00     0.037 A 
ENDBRANCH  10  11
ENDBRANCH   8  10
ENDBRANCH   7   8
ENDBRANCH   3   7
BRANCH   1  18
HETATM   18  C   UNL     1      24.663  45.442  50.761  1.00  0.00     0.059 A 
HETATM   19  C   UNL     1      23.855  45.456  49.615  1.00  0.00    -0.032 A 
HETATM   20  C   UNL     1      23.410  44.232  48.866  1.00  0.00     0.050 C 
HETATM   21  C   UNL     1      23.448  46.701  49.104  1.00  0.00     0.028 A 
HETATM   22  C   UNL     1      23.902  47.868  49.698  1.00  0.00     0.117 A 
HETATM   23  N   UNL     1      24.735  47.889  50.753  1.00  0.00    -0.271 NA
HETATM   24  C   UNL     1      25.090  46.682  51.252  1.00  0.00     0.146 A 
ENDBRANCH   1  18
TORSDOF 5
ENDMDL
