MODEL 1
REMARK VINA RESULT:      -8.3      0.000      0.000
REMARK  4 active torsions:
REMARK  status: ('A' for Active; 'I' for Inactive)
REMARK    1  A    between atoms: O_2  and  C_3 
REMARK    2  A    between atoms: C_4  and  O_5 
REMARK    3  A    between atoms: C_9  and  C_10 
REMARK    4  A    between atoms: C_10  and  N_11 
ROOT
HETATM    1  N   UNL     1      27.557  42.782  52.682  1.00  0.00    -0.066 N 
HETATM    2  H   UNL     1      27.924  42.109  53.365  1.00  0.00     0.280 HD
HETATM    3  C   UNL     1      26.216  43.204  53.260  1.00  0.00     0.246 C 
HETATM    4  C   UNL     1      25.218  43.728  52.209  1.00  0.00     0.062 C 
HETATM    5  C   UNL     1      25.046  42.696  51.102  1.00  0.00     0.020 C 
HETATM    6  C   UNL     1      26.393  42.539  50.414  1.00  0.00     0.031 C 
HETATM    7  C   UNL     1      26.780  43.865  49.753  1.00  0.00     0.138 C 
HETATM    8  N   UNL     1      26.465  45.081  50.505  1.00  0.00    -0.317 N 
HETATM    9  C   UNL     1      25.647  45.062  51.638  1.00  0.00     0.020 A 
HETATM   10  C   UNL     1      25.262  46.219  52.204  1.00  0.00     0.026 A 
HETATM   11  C   UNL     1      26.930  46.279  49.940  1.00  0.00     0.247 A 
HETATM   12  O   UNL     1      27.678  46.326  48.969  1.00  0.00    -0.268 OA
HETATM   13  C   UNL     1      26.498  47.533  50.602  1.00  0.00     0.074 A 
HETATM   14  C   UNL     1      25.700  47.484  51.673  1.00  0.00     0.007 A 
HETATM   15  C   UNL     1      27.447  42.002  51.390  1.00  0.00     0.241 C 
ENDROOT
BRANCH   1  16
HETATM   16  C   UNL     1      28.654  43.835  52.660  1.00  0.00     0.273 C 
BRANCH  16  17
HETATM   17  C   UNL     1      28.989  44.412  54.010  1.00  0.00    -0.028 A 
HETATM   18  C   UNL     1      29.998  43.829  54.795  1.00  0.00     0.031 A 
HETATM   19  C   UNL     1      30.296  44.333  56.065  1.00  0.00     0.047 A 
HETATM   20  C   UNL     1      29.582  45.418  56.570  1.00  0.00     0.116 A 
HETATM   21 BR   UNL     1      31.656  43.478  57.069  1.00  0.00    -0.048 Br
HETATM   22  C   UNL     1      28.609  46.033  55.779  1.00  0.00     0.103 A 
HETATM   23  C   UNL     1      28.297  45.522  54.516  1.00  0.00     0.048 A 
BRANCH  20  24
HETATM   24  O   UNL     1      29.806  45.847  57.848  1.00  0.00    -0.357 OA
HETATM   25  H   UNL     1      30.541  45.317  58.209  1.00  0.00     0.218 HD
ENDBRANCH  20  24
BRANCH  22  26
HETATM   26  O   UNL     1      27.865  47.096  56.217  1.00  0.00    -0.353 OA
HETATM   27  C   UNL     1      27.142  47.731  55.155  1.00  0.00     0.210 C 
ENDBRANCH  22  26
ENDBRANCH  16  17
ENDBRANCH   1  16
TORSDOF 4
ENDMDL
MODEL 2
REMARK VINA RESULT:      -7.7     12.496     13.914
REMARK  4 active torsions:
REMARK  status: ('A' for Active; 'I' for Inactive)
REMARK    1  A    between atoms: O_2  and  C_3 
REMARK    2  A    between atoms: C_4  and  O_5 
REMARK    3  A    between atoms: C_9  and  C_10 
REMARK    4  A    between atoms: C_10  and  N_11 
ROOT
HETATM    1  N   UNL     1      30.787  48.209  41.010  1.00  0.00    -0.066 N 
HETATM    2  H   UNL     1      31.447  47.563  41.459  1.00  0.00     0.280 HD
HETATM    3  C   UNL     1      29.934  48.725  42.158  1.00  0.00     0.246 C 
HETATM    4  C   UNL     1      28.543  49.228  41.728  1.00  0.00     0.062 C 
HETATM    5  C   UNL     1      27.821  48.140  40.944  1.00  0.00     0.020 C 
HETATM    6  C   UNL     1      28.625  47.882  39.679  1.00  0.00     0.031 C 
HETATM    7  C   UNL     1      28.629  49.147  38.816  1.00  0.00     0.138 C 
HETATM    8  N   UNL     1      28.752  50.419  39.531  1.00  0.00    -0.317 N 
HETATM    9  C   UNL     1      28.629  50.505  40.920  1.00  0.00     0.020 A 
HETATM   10  C   UNL     1      28.597  51.710  41.515  1.00  0.00     0.026 A 
HETATM   11  C   UNL     1      28.871  51.559  38.720  1.00  0.00     0.247 A 
HETATM   12  O   UNL     1      29.017  51.514  37.502  1.00  0.00    -0.268 OA
HETATM   13  C   UNL     1      28.848  52.869  39.414  1.00  0.00     0.074 A 
HETATM   14  C   UNL     1      28.710  52.920  40.742  1.00  0.00     0.007 A 
HETATM   15  C   UNL     1      30.025  47.359  40.018  1.00  0.00     0.241 C 
ENDROOT
BRANCH   1  16
HETATM   16  C   UNL     1      31.725  49.209  40.353  1.00  0.00     0.273 C 
BRANCH  16  17
HETATM   17  C   UNL     1      32.688  49.874  41.302  1.00  0.00    -0.028 A 
HETATM   18  C   UNL     1      32.207  50.555  42.433  1.00  0.00     0.031 A 
HETATM   19  C   UNL     1      33.088  51.206  43.302  1.00  0.00     0.047 A 
HETATM   20  C   UNL     1      34.458  51.195  43.046  1.00  0.00     0.116 A 
HETATM   21 BR   UNL     1      32.359  52.120  44.794  1.00  0.00    -0.048 Br
HETATM   22  C   UNL     1      34.949  50.482  41.950  1.00  0.00     0.103 A 
HETATM   23  C   UNL     1      34.072  49.843  41.070  1.00  0.00     0.048 A 
BRANCH  20  24
HETATM   24  O   UNL     1      35.307  51.914  43.840  1.00  0.00    -0.357 OA
HETATM   25  H   UNL     1      35.916  52.398  43.252  1.00  0.00     0.218 HD
ENDBRANCH  20  24
BRANCH  22  26
HETATM   26  O   UNL     1      36.281  50.437  41.636  1.00  0.00    -0.353 OA
HETATM   27  C   UNL     1      36.542  50.884  40.300  1.00  0.00     0.210 C 
ENDBRANCH  22  26
ENDBRANCH  16  17
ENDBRANCH   1  16
TORSDOF 4
ENDMDL
MODEL 3
REMARK VINA RESULT:      -7.7     12.373     13.824
REMARK  4 active torsions:
REMARK  status: ('A' for Active; 'I' for Inactive)
REMARK    1  A    between atoms: O_2  and  C_3 
REMARK    2  A    between atoms: C_4  and  O_5 
REMARK    3  A    between atoms: C_9  and  C_10 
REMARK    4  A    between atoms: C_10  and  N_11 
ROOT
HETATM    1  N   UNL     1      31.721  48.581  41.222  1.00  0.00    -0.066 N 
HETATM    2  H   UNL     1      32.485  48.129  41.738  1.00  0.00     0.280 HD
HETATM    3  C   UNL     1      30.695  48.913  42.295  1.00  0.00     0.246 C 
HETATM    4  C   UNL     1      29.256  49.051  41.764  1.00  0.00     0.062 C 
HETATM    5  C   UNL     1      28.868  47.795  40.994  1.00  0.00     0.020 C 
HETATM    6  C   UNL     1      29.791  47.698  39.789  1.00  0.00     0.031 C 
HETATM    7  C   UNL     1      29.549  48.897  38.868  1.00  0.00     0.138 C 
HETATM    8  N   UNL     1      29.318  50.184  39.528  1.00  0.00    -0.317 N 
HETATM    9  C   UNL     1      29.087  50.283  40.902  1.00  0.00     0.020 A 
HETATM   10  C   UNL     1      28.729  51.464  41.436  1.00  0.00     0.026 A 
HETATM   11  C   UNL     1      29.214  51.291  38.671  1.00  0.00     0.247 A 
HETATM   12  O   UNL     1      29.445  51.243  37.467  1.00  0.00    -0.268 OA
HETATM   13  C   UNL     1      28.832  52.579  39.299  1.00  0.00     0.074 A 
HETATM   14  C   UNL     1      28.600  52.639  40.614  1.00  0.00     0.007 A 
HETATM   15  C   UNL     1      31.251  47.540  40.231  1.00  0.00     0.241 C 
ENDROOT
BRANCH   1  16
HETATM   16  C   UNL     1      32.434  49.756  40.571  1.00  0.00     0.273 C 
BRANCH  16  17
HETATM   17  C   UNL     1      33.456  50.427  41.450  1.00  0.00    -0.028 A 
HETATM   18  C   UNL     1      34.810  50.441  41.074  1.00  0.00     0.031 A 
HETATM   19  C   UNL     1      35.774  51.030  41.898  1.00  0.00     0.047 A 
HETATM   20  C   UNL     1      35.399  51.602  43.113  1.00  0.00     0.116 A 
HETATM   21 BR   UNL     1      37.581  50.988  41.330  1.00  0.00    -0.048 Br
HETATM   22  C   UNL     1      34.050  51.635  43.473  1.00  0.00     0.103 A 
HETATM   23  C   UNL     1      33.085  51.033  42.661  1.00  0.00     0.048 A 
BRANCH  20  24
HETATM   24  O   UNL     1      36.354  52.088  43.961  1.00  0.00    -0.357 OA
HETATM   25  H   UNL     1      36.239  51.637  44.818  1.00  0.00     0.218 HD
ENDBRANCH  20  24
BRANCH  22  26
HETATM   26  O   UNL     1      33.615  52.172  44.655  1.00  0.00    -0.353 OA
HETATM   27  C   UNL     1      32.203  52.013  44.840  1.00  0.00     0.210 C 
ENDBRANCH  22  26
ENDBRANCH  16  17
ENDBRANCH   1  16
TORSDOF 4
ENDMDL
MODEL 4
REMARK VINA RESULT:      -7.5     12.838     14.680
REMARK  4 active torsions:
REMARK  status: ('A' for Active; 'I' for Inactive)
REMARK    1  A    between atoms: O_2  and  C_3 
REMARK    2  A    between atoms: C_4  and  O_5 
REMARK    3  A    between atoms: C_9  and  C_10 
REMARK    4  A    between atoms: C_10  and  N_11 
ROOT
HETATM    1  N   UNL     1      32.135  49.074  40.039  1.00  0.00    -0.066 N 
HETATM    2  H   UNL     1      32.754  48.433  39.528  1.00  0.00     0.280 HD
HETATM    3  C   UNL     1      32.966  50.338  40.202  1.00  0.00     0.246 C 
HETATM    4  C   UNL     1      32.540  51.218  41.392  1.00  0.00     0.062 C 
HETATM    5  C   UNL     1      32.533  50.388  42.670  1.00  0.00     0.020 C 
HETATM    6  C   UNL     1      31.479  49.305  42.503  1.00  0.00     0.031 C 
HETATM    7  C   UNL     1      30.100  49.957  42.369  1.00  0.00     0.138 C 
HETATM    8  N   UNL     1      30.038  51.185  41.575  1.00  0.00    -0.317 N 
HETATM    9  C   UNL     1      31.189  51.863  41.164  1.00  0.00     0.020 A 
HETATM   10  C   UNL     1      31.083  53.064  40.570  1.00  0.00     0.026 A 
HETATM   11  C   UNL     1      28.752  51.706  41.365  1.00  0.00     0.247 A 
HETATM   12  O   UNL     1      27.722  51.119  41.682  1.00  0.00    -0.268 OA
HETATM   13  C   UNL     1      28.673  53.025  40.693  1.00  0.00     0.074 A 
HETATM   14  C   UNL     1      29.793  53.657  40.328  1.00  0.00     0.007 A 
HETATM   15  C   UNL     1      31.837  48.368  41.343  1.00  0.00     0.241 C 
ENDROOT
BRANCH   1  16
HETATM   16  C   UNL     1      30.935  49.160  39.110  1.00  0.00     0.273 C 
BRANCH  16  17
HETATM   17  C   UNL     1      29.925  48.058  39.294  1.00  0.00    -0.028 A 
HETATM   18  C   UNL     1      28.616  48.362  39.702  1.00  0.00     0.031 A 
HETATM   19  C   UNL     1      27.679  47.345  39.911  1.00  0.00     0.047 A 
HETATM   20  C   UNL     1      28.042  46.012  39.726  1.00  0.00     0.116 A 
HETATM   21 BR   UNL     1      25.940  47.835  40.481  1.00  0.00    -0.048 Br
HETATM   22  C   UNL     1      29.328  45.703  39.275  1.00  0.00     0.103 A 
HETATM   23  C   UNL     1      30.272  46.715  39.081  1.00  0.00     0.048 A 
BRANCH  20  24
HETATM   24  O   UNL     1      27.156  45.016  40.025  1.00  0.00    -0.357 OA
HETATM   25  H   UNL     1      27.290  44.302  39.374  1.00  0.00     0.218 HD
ENDBRANCH  20  24
BRANCH  22  26
HETATM   26  O   UNL     1      29.752  44.416  39.082  1.00  0.00    -0.353 OA
HETATM   27  C   UNL     1      29.558  43.974  37.733  1.00  0.00     0.210 C 
ENDBRANCH  22  26
ENDBRANCH  16  17
ENDBRANCH   1  16
TORSDOF 4
ENDMDL
MODEL 5
REMARK VINA RESULT:      -7.5      3.901      6.973
REMARK  4 active torsions:
REMARK  status: ('A' for Active; 'I' for Inactive)
REMARK    1  A    between atoms: O_2  and  C_3 
REMARK    2  A    between atoms: C_4  and  O_5 
REMARK    3  A    between atoms: C_9  and  C_10 
REMARK    4  A    between atoms: C_10  and  N_11 
ROOT
HETATM    1  N   UNL     1      25.552  45.025  49.594  1.00  0.00    -0.066 N 
HETATM    2  H   UNL     1      25.473  45.440  48.658  1.00  0.00     0.280 HD
HETATM    3  C   UNL     1      26.972  44.483  49.640  1.00  0.00     0.246 C 
HETATM    4  C   UNL     1      27.173  43.336  50.649  1.00  0.00     0.062 C 
HETATM    5  C   UNL     1      26.163  42.228  50.376  1.00  0.00     0.020 C 
HETATM    6  C   UNL     1      24.777  42.807  50.613  1.00  0.00     0.031 C 
HETATM    7  C   UNL     1      24.640  43.204  52.086  1.00  0.00     0.138 C 
HETATM    8  N   UNL     1      25.818  43.814  52.705  1.00  0.00    -0.317 N 
HETATM    9  C   UNL     1      27.068  43.817  52.080  1.00  0.00     0.020 A 
HETATM   10  C   UNL     1      28.150  44.251  52.750  1.00  0.00     0.026 A 
HETATM   11  C   UNL     1      25.639  44.278  54.018  1.00  0.00     0.247 A 
HETATM   12  O   UNL     1      24.550  44.321  54.580  1.00  0.00    -0.268 OA
HETATM   13  C   UNL     1      26.853  44.763  54.719  1.00  0.00     0.074 A 
HETATM   14  C   UNL     1      28.038  44.736  54.101  1.00  0.00     0.007 A 
HETATM   15  C   UNL     1      24.488  43.951  49.633  1.00  0.00     0.241 C 
ENDROOT
BRANCH   1  16
HETATM   16  C   UNL     1      25.245  46.213  50.491  1.00  0.00     0.273 C 
BRANCH  16  17
HETATM   17  C   UNL     1      24.896  47.477  49.751  1.00  0.00    -0.028 A 
HETATM   18  C   UNL     1      23.552  47.798  49.498  1.00  0.00     0.031 A 
HETATM   19  C   UNL     1      23.216  48.951  48.781  1.00  0.00     0.047 A 
HETATM   20  C   UNL     1      24.218  49.792  48.300  1.00  0.00     0.116 A 
HETATM   21 BR   UNL     1      21.381  49.302  48.463  1.00  0.00    -0.048 Br
HETATM   22  C   UNL     1      25.555  49.506  48.587  1.00  0.00     0.103 A 
HETATM   23  C   UNL     1      25.896  48.346  49.289  1.00  0.00     0.048 A 
BRANCH  20  24
HETATM   24  O   UNL     1      23.893  50.863  47.517  1.00  0.00    -0.357 OA
HETATM   25  H   UNL     1      23.421  50.520  46.736  1.00  0.00     0.218 HD
ENDBRANCH  20  24
BRANCH  22  26
HETATM   26  O   UNL     1      26.589  50.283  48.138  1.00  0.00    -0.353 OA
HETATM   27  C   UNL     1      27.821  49.994  48.809  1.00  0.00     0.210 C 
ENDBRANCH  22  26
ENDBRANCH  16  17
ENDBRANCH   1  16
TORSDOF 4
ENDMDL
MODEL 6
REMARK VINA RESULT:      -7.4      7.707      9.839
REMARK  4 active torsions:
REMARK  status: ('A' for Active; 'I' for Inactive)
REMARK    1  A    between atoms: O_2  and  C_3 
REMARK    2  A    between atoms: C_4  and  O_5 
REMARK    3  A    between atoms: C_9  and  C_10 
REMARK    4  A    between atoms: C_10  and  N_11 
ROOT
HETATM    1  N   UNL     1      19.163  46.747  47.587  1.00  0.00    -0.066 N 
HETATM    2  H   UNL     1      19.551  45.797  47.524  1.00  0.00     0.280 HD
HETATM    3  C   UNL     1      18.885  46.936  49.069  1.00  0.00     0.246 C 
HETATM    4  C   UNL     1      17.799  47.986  49.374  1.00  0.00     0.062 C 
HETATM    5  C   UNL     1      16.527  47.648  48.608  1.00  0.00     0.020 C 
HETATM    6  C   UNL     1      16.850  47.743  47.125  1.00  0.00     0.031 C 
HETATM    7  C   UNL     1      17.227  49.187  46.780  1.00  0.00     0.138 C 
HETATM    8  N   UNL     1      18.042  49.897  47.767  1.00  0.00    -0.317 N 
HETATM    9  C   UNL     1      18.264  49.390  49.050  1.00  0.00     0.020 A 
HETATM   10  C   UNL     1      18.889  50.146  49.969  1.00  0.00     0.026 A 
HETATM   11  C   UNL     1      18.476  51.176  47.385  1.00  0.00     0.247 A 
HETATM   12  O   UNL     1      18.327  51.635  46.257  1.00  0.00    -0.268 OA
HETATM   13  C   UNL     1      19.175  51.974  48.421  1.00  0.00     0.074 A 
HETATM   14  C   UNL     1      19.356  51.469  49.645  1.00  0.00     0.007 A 
HETATM   15  C   UNL     1      17.916  46.713  46.731  1.00  0.00     0.241 C 
ENDROOT
BRANCH   1  16
HETATM   16  C   UNL     1      20.283  47.583  46.989  1.00  0.00     0.273 C 
BRANCH  16  17
HETATM   17  C   UNL     1      21.509  47.692  47.858  1.00  0.00    -0.028 A 
HETATM   18  C   UNL     1      22.238  46.540  48.197  1.00  0.00     0.031 A 
HETATM   19  C   UNL     1      23.357  46.623  49.031  1.00  0.00     0.047 A 
HETATM   20  C   UNL     1      23.756  47.856  49.545  1.00  0.00     0.116 A 
HETATM   21 BR   UNL     1      24.274  45.021  49.460  1.00  0.00    -0.048 Br
HETATM   22  C   UNL     1      23.066  49.013  49.175  1.00  0.00     0.103 A 
HETATM   23  C   UNL     1      21.936  48.932  48.355  1.00  0.00     0.048 A 
BRANCH  20  24
HETATM   24  O   UNL     1      24.788  47.923  50.437  1.00  0.00    -0.357 OA
HETATM   25  H   UNL     1      25.551  48.313  49.972  1.00  0.00     0.218 HD
ENDBRANCH  20  24
BRANCH  22  26
HETATM   26  O   UNL     1      23.398  50.254  49.650  1.00  0.00    -0.353 OA
HETATM   27  C   UNL     1      22.967  51.305  48.777  1.00  0.00     0.210 C 
ENDBRANCH  22  26
ENDBRANCH  16  17
ENDBRANCH   1  16
TORSDOF 4
ENDMDL
MODEL 7
REMARK VINA RESULT:      -7.3     12.805     15.169
REMARK  4 active torsions:
REMARK  status: ('A' for Active; 'I' for Inactive)
REMARK    1  A    between atoms: O_2  and  C_3 
REMARK    2  A    between atoms: C_4  and  O_5 
REMARK    3  A    between atoms: C_9  and  C_10 
REMARK    4  A    between atoms: C_10  and  N_11 
ROOT
HETATM    1  N   UNL     1      30.908  48.631  41.729  1.00  0.00    -0.066 N 
HETATM    2  H   UNL     1      31.073  47.661  42.024  1.00  0.00     0.280 HD
HETATM    3  C   UNL     1      31.715  48.770  40.448  1.00  0.00     0.246 C 
HETATM    4  C   UNL     1      32.121  50.220  40.117  1.00  0.00     0.062 C 
HETATM    5  C   UNL     1      32.853  50.832  41.305  1.00  0.00     0.020 C 
HETATM    6  C   UNL     1      31.871  50.887  42.465  1.00  0.00     0.031 C 
HETATM    7  C   UNL     1      30.713  51.821  42.105  1.00  0.00     0.138 C 
HETATM    8  N   UNL     1      30.231  51.752  40.724  1.00  0.00    -0.317 N 
HETATM    9  C   UNL     1      30.928  51.066  39.727  1.00  0.00     0.020 A 
HETATM   10  C   UNL     1      30.529  51.158  38.447  1.00  0.00     0.026 A 
HETATM   11  C   UNL     1      29.096  52.528  40.442  1.00  0.00     0.247 A 
HETATM   12  O   UNL     1      28.442  53.113  41.299  1.00  0.00    -0.268 OA
HETATM   13  C   UNL     1      28.677  52.594  39.020  1.00  0.00     0.074 A 
HETATM   14  C   UNL     1      29.375  51.940  38.087  1.00  0.00     0.007 A 
HETATM   15  C   UNL     1      31.427  49.476  42.871  1.00  0.00     0.241 C 
ENDROOT
BRANCH   1  16
HETATM   16  C   UNL     1      29.395  48.665  41.591  1.00  0.00     0.273 C 
BRANCH  16  17
HETATM   17  C   UNL     1      28.871  48.028  40.331  1.00  0.00    -0.028 A 
HETATM   18  C   UNL     1      29.167  46.685  40.044  1.00  0.00     0.031 A 
HETATM   19  C   UNL     1      28.715  46.092  38.860  1.00  0.00     0.047 A 
HETATM   20  C   UNL     1      27.972  46.836  37.945  1.00  0.00     0.116 A 
HETATM   21 BR   UNL     1      29.175  44.283  38.536  1.00  0.00    -0.048 Br
HETATM   22  C   UNL     1      27.633  48.158  38.244  1.00  0.00     0.103 A 
HETATM   23  C   UNL     1      28.096  48.759  39.418  1.00  0.00     0.048 A 
BRANCH  20  24
HETATM   24  O   UNL     1      27.617  46.285  36.747  1.00  0.00    -0.357 OA
HETATM   25  H   UNL     1      28.424  45.911  36.347  1.00  0.00     0.218 HD
ENDBRANCH  20  24
BRANCH  22  26
HETATM   26  O   UNL     1      26.914  48.947  37.387  1.00  0.00    -0.353 OA
HETATM   27  C   UNL     1      26.168  49.960  38.073  1.00  0.00     0.210 C 
ENDBRANCH  22  26
ENDBRANCH  16  17
ENDBRANCH   1  16
TORSDOF 4
ENDMDL
MODEL 8
REMARK VINA RESULT:      -7.3     13.203     14.651
REMARK  4 active torsions:
REMARK  status: ('A' for Active; 'I' for Inactive)
REMARK    1  A    between atoms: O_2  and  C_3 
REMARK    2  A    between atoms: C_4  and  O_5 
REMARK    3  A    between atoms: C_9  and  C_10 
REMARK    4  A    between atoms: C_10  and  N_11 
ROOT
HETATM    1  N   UNL     1      27.243  51.107  40.687  1.00  0.00    -0.066 N 
HETATM    2  H   UNL     1      26.217  51.093  40.743  1.00  0.00     0.280 HD
HETATM    3  C   UNL     1      27.623  52.482  41.215  1.00  0.00     0.246 C 
HETATM    4  C   UNL     1      28.990  52.988  40.716  1.00  0.00     0.062 C 
HETATM    5  C   UNL     1      29.031  52.945  39.194  1.00  0.00     0.020 C 
HETATM    6  C   UNL     1      28.904  51.489  38.776  1.00  0.00     0.031 C 
HETATM    7  C   UNL     1      30.115  50.707  39.292  1.00  0.00     0.138 C 
HETATM    8  N   UNL     1      30.591  51.059  40.631  1.00  0.00    -0.317 N 
HETATM    9  C   UNL     1      30.136  52.195  41.306  1.00  0.00     0.020 A 
HETATM   10  C   UNL     1      30.713  52.560  42.464  1.00  0.00     0.026 A 
HETATM   11  C   UNL     1      31.626  50.255  41.135  1.00  0.00     0.247 A 
HETATM   12  O   UNL     1      32.022  49.233  40.584  1.00  0.00    -0.268 OA
HETATM   13  C   UNL     1      32.226  50.681  42.422  1.00  0.00     0.074 A 
HETATM   14  C   UNL     1      31.782  51.783  43.035  1.00  0.00     0.007 A 
HETATM   15  C   UNL     1      27.555  50.909  39.221  1.00  0.00     0.241 C 
ENDROOT
BRANCH   1  16
HETATM   16  C   UNL     1      27.620  49.915  41.552  1.00  0.00     0.273 C 
BRANCH  16  17
HETATM   17  C   UNL     1      27.348  48.576  40.919  1.00  0.00    -0.028 A 
HETATM   18  C   UNL     1      26.030  48.193  40.619  1.00  0.00     0.031 A 
HETATM   19  C   UNL     1      25.760  46.938  40.063  1.00  0.00     0.047 A 
HETATM   20  C   UNL     1      26.802  46.048  39.810  1.00  0.00     0.116 A 
HETATM   21 BR   UNL     1      23.954  46.488  39.707  1.00  0.00    -0.048 Br
HETATM   22  C   UNL     1      28.120  46.438  40.062  1.00  0.00     0.103 A 
HETATM   23  C   UNL     1      28.392  47.684  40.633  1.00  0.00     0.048 A 
BRANCH  20  24
HETATM   24  O   UNL     1      26.529  44.787  39.360  1.00  0.00    -0.357 OA
HETATM   25  H   UNL     1      25.733  44.844  38.799  1.00  0.00     0.218 HD
ENDBRANCH  20  24
BRANCH  22  26
HETATM   26  O   UNL     1      29.189  45.610  39.846  1.00  0.00    -0.353 OA
HETATM   27  C   UNL     1      30.340  46.318  39.371  1.00  0.00     0.210 C 
ENDBRANCH  22  26
ENDBRANCH  16  17
ENDBRANCH   1  16
TORSDOF 4
ENDMDL
MODEL 9
REMARK VINA RESULT:      -7.2      8.265     10.553
REMARK  4 active torsions:
REMARK  status: ('A' for Active; 'I' for Inactive)
REMARK    1  A    between atoms: O_2  and  C_3 
REMARK    2  A    between atoms: C_4  and  O_5 
REMARK    3  A    between atoms: C_9  and  C_10 
REMARK    4  A    between atoms: C_10  and  N_11 
ROOT
HETATM    1  N   UNL     1      18.633  47.018  47.208  1.00  0.00    -0.066 N 
HETATM    2  H   UNL     1      18.967  46.055  47.076  1.00  0.00     0.280 HD
HETATM    3  C   UNL     1      18.435  47.139  48.711  1.00  0.00     0.246 C 
HETATM    4  C   UNL     1      17.422  48.224  49.124  1.00  0.00     0.062 C 
HETATM    5  C   UNL     1      16.099  47.994  48.405  1.00  0.00     0.020 C 
HETATM    6  C   UNL     1      16.357  48.154  46.915  1.00  0.00     0.031 C 
HETATM    7  C   UNL     1      16.793  49.593  46.628  1.00  0.00     0.138 C 
HETATM    8  N   UNL     1      17.691  50.206  47.610  1.00  0.00    -0.317 N 
HETATM    9  C   UNL     1      17.945  49.618  48.851  1.00  0.00     0.020 A 
HETATM   10  C   UNL     1      18.652  50.290  49.777  1.00  0.00     0.026 A 
HETATM   11  C   UNL     1      18.173  51.480  47.274  1.00  0.00     0.247 A 
HETATM   12  O   UNL     1      17.996  52.008  46.180  1.00  0.00    -0.268 OA
HETATM   13  C   UNL     1      18.962  52.184  48.315  1.00  0.00     0.074 A 
HETATM   14  C   UNL     1      19.173  51.603  49.500  1.00  0.00     0.007 A 
HETATM   15  C   UNL     1      17.347  47.095  46.415  1.00  0.00     0.241 C 
ENDROOT
BRANCH   1  16
HETATM   16  C   UNL     1      19.767  47.828  46.600  1.00  0.00     0.273 C 
BRANCH  16  17
HETATM   17  C   UNL     1      20.975  47.971  47.489  1.00  0.00    -0.028 A 
HETATM   18  C   UNL     1      21.458  49.247  47.822  1.00  0.00     0.031 A 
HETATM   19  C   UNL     1      22.599  49.393  48.618  1.00  0.00     0.047 A 
HETATM   20  C   UNL     1      23.277  48.267  49.080  1.00  0.00     0.116 A 
HETATM   21 BR   UNL     1      23.200  51.148  49.005  1.00  0.00    -0.048 Br
HETATM   22  C   UNL     1      22.777  46.995  48.793  1.00  0.00     0.103 A 
HETATM   23  C   UNL     1      21.647  46.844  47.985  1.00  0.00     0.048 A 
BRANCH  20  24
HETATM   24  O   UNL     1      24.445  48.410  49.773  1.00  0.00    -0.357 OA
HETATM   25  H   UNL     1      24.599  47.579  50.260  1.00  0.00     0.218 HD
ENDBRANCH  20  24
BRANCH  22  26
HETATM   26  O   UNL     1      23.398  45.847  49.208  1.00  0.00    -0.353 OA
HETATM   27  C   UNL     1      23.328  44.804  48.228  1.00  0.00     0.210 C 
ENDBRANCH  22  26
ENDBRANCH  16  17
ENDBRANCH   1  16
TORSDOF 4
ENDMDL
MODEL 10
REMARK VINA RESULT:      -7.1     15.539     18.302
REMARK  4 active torsions:
REMARK  status: ('A' for Active; 'I' for Inactive)
REMARK    1  A    between atoms: O_2  and  C_3 
REMARK    2  A    between atoms: C_4  and  O_5 
REMARK    3  A    between atoms: C_9  and  C_10 
REMARK    4  A    between atoms: C_10  and  N_11 
ROOT
HETATM    1  N   UNL     1      39.961  49.480  67.311  1.00  0.00    -0.066 N 
HETATM    2  H   UNL     1      40.930  49.755  67.512  1.00  0.00     0.280 HD
HETATM    3  C   UNL     1      39.695  50.044  65.925  1.00  0.00     0.246 C 
HETATM    4  C   UNL     1      38.205  50.293  65.624  1.00  0.00     0.062 C 
HETATM    5  C   UNL     1      37.602  51.176  66.709  1.00  0.00     0.020 C 
HETATM    6  C   UNL     1      37.681  50.407  68.018  1.00  0.00     0.031 C 
HETATM    7  C   UNL     1      36.818  49.146  67.917  1.00  0.00     0.138 C 
HETATM    8  N   UNL     1      36.851  48.439  66.635  1.00  0.00    -0.317 N 
HETATM    9  C   UNL     1      37.431  48.999  65.494  1.00  0.00     0.020 A 
HETATM   10  C   UNL     1      37.302  48.381  64.307  1.00  0.00     0.026 A 
HETATM   11  C   UNL     1      36.148  47.225  66.597  1.00  0.00     0.247 A 
HETATM   12  O   UNL     1      35.659  46.691  67.587  1.00  0.00    -0.268 OA
HETATM   13  C   UNL     1      36.041  46.565  65.273  1.00  0.00     0.074 A 
HETATM   14  C   UNL     1      36.591  47.134  64.196  1.00  0.00     0.007 A 
HETATM   15  C   UNL     1      39.140  50.131  68.402  1.00  0.00     0.241 C 
ENDROOT
BRANCH   1  16
HETATM   16  C   UNL     1      40.033  47.967  67.431  1.00  0.00     0.273 C 
BRANCH  16  17
HETATM   17  C   UNL     1      40.896  47.301  66.392  1.00  0.00    -0.028 A 
HETATM   18  C   UNL     1      42.285  47.507  66.390  1.00  0.00     0.031 A 
HETATM   19  C   UNL     1      43.093  46.923  65.410  1.00  0.00     0.047 A 
HETATM   20  C   UNL     1      42.522  46.134  64.413  1.00  0.00     0.116 A 
HETATM   21 BR   UNL     1      44.955  47.268  65.464  1.00  0.00    -0.048 Br
HETATM   22  C   UNL     1      41.147  45.884  64.434  1.00  0.00     0.103 A 
HETATM   23  C   UNL     1      40.334  46.480  65.402  1.00  0.00     0.048 A 
BRANCH  20  24
HETATM   24  O   UNL     1      43.298  45.645  63.401  1.00  0.00    -0.357 OA
HETATM   25  H   UNL     1      44.189  46.028  63.506  1.00  0.00     0.218 HD
ENDBRANCH  20  24
BRANCH  22  26
HETATM   26  O   UNL     1      40.520  45.127  63.481  1.00  0.00    -0.353 OA
HETATM   27  C   UNL     1      39.340  44.487  63.981  1.00  0.00     0.210 C 
ENDBRANCH  22  26
ENDBRANCH  16  17
ENDBRANCH   1  16
TORSDOF 4
ENDMDL
