MODEL 1
REMARK VINA RESULT:      -7.4      0.000      0.000
REMARK  8 active torsions:
REMARK  status: ('A' for Active; 'I' for Inactive)
REMARK    1  A    between atoms: C_2  and  O_3 
REMARK    2  A    between atoms: O_3  and  C_4 
REMARK       I    between atoms: C_4  and  N_5 
REMARK    3  A    between atoms: C_8  and  N_9 
REMARK       I    between atoms: N_9  and  C_10 
REMARK    4  A    between atoms: C_10  and  C_11 
REMARK    5  A    between atoms: C_12  and  C_13 
REMARK    6  A    between atoms: N_18  and  C_19 
REMARK    7  A    between atoms: C_19  and  C_20 
REMARK    8  A    between atoms: C_20  and  O_21 
ROOT
HETATM    1  C   UNL     1      17.814  52.247  47.376  1.00  0.00     0.139 C 
HETATM    2  C   UNL     1      17.386  51.812  45.959  1.00  0.00     0.145 C 
HETATM    3  N   UNL     1      17.123  50.368  45.881  1.00  0.00    -0.335 N 
HETATM    4  C   UNL     1      18.077  49.490  46.397  1.00  0.00     0.255 C 
HETATM    5  O   UNL     1      18.046  48.277  46.215  1.00  0.00    -0.267 OA
HETATM    6  C   UNL     1      19.151  50.092  47.250  1.00  0.00     0.039 A 
HETATM    7  C   UNL     1      19.028  51.406  47.751  1.00  0.00    -0.027 A 
HETATM    8  C   UNL     1      20.266  49.316  47.588  1.00  0.00     0.017 A 
HETATM    9  C   UNL     1      21.262  49.844  48.410  1.00  0.00     0.001 A 
HETATM   10  C   UNL     1      21.144  51.142  48.905  1.00  0.00     0.001 A 
HETATM   11  C   UNL     1      20.033  51.922  48.583  1.00  0.00     0.009 A 
ENDROOT
BRANCH   1  12
HETATM   12  C   UNL     1      16.701  52.088  48.421  1.00  0.00     0.229 C 
HETATM   13  N   UNL     1      15.967  53.244  48.638  1.00  0.00    -0.356 N 
HETATM   14  H   UNL     1      16.136  53.999  47.986  1.00  0.00     0.162 HD
HETATM   15  O   UNL     1      16.505  51.046  49.037  1.00  0.00    -0.273 OA
BRANCH  13  16
HETATM   16  C   UNL     1      14.660  53.299  49.308  1.00  0.00     0.087 C 
HETATM   17  C   UNL     1      14.639  53.407  50.838  1.00  0.00     0.045 C 
HETATM   18  C   UNL     1      15.156  54.754  51.322  1.00  0.00     0.130 C 
HETATM   19  N   UNL     1      14.430  55.853  50.685  1.00  0.00    -0.328 N 
HETATM   20  C   UNL     1      14.224  57.066  51.328  1.00  0.00     0.362 C 
HETATM   21  C   UNL     1      14.337  55.811  49.232  1.00  0.00     0.130 C 
HETATM   22  O   UNL     1      13.843  58.082  50.759  1.00  0.00    -0.238 OA
HETATM   23  C   UNL     1      13.838  54.459  48.725  1.00  0.00     0.045 C 
BRANCH  20  24
HETATM   24  O   UNL     1      14.481  56.997  52.661  1.00  0.00    -0.304 OA
BRANCH  24  25
HETATM   25  C   UNL     1      15.361  57.995  53.195  1.00  0.00     0.176 C 
HETATM   26  C   UNL     1      16.017  57.479  54.460  1.00  0.00     0.034 C 
ENDBRANCH  24  25
ENDBRANCH  20  24
ENDBRANCH  13  16
ENDBRANCH   1  12
BRANCH   2  27
HETATM   27  C   UNL     1      16.396  52.693  45.218  1.00  0.00     0.006 A 
HETATM   28  S   UNL     1      16.757  53.479  43.736  1.00  0.00    -0.104 SA
HETATM   29  C   UNL     1      15.207  54.181  43.635  1.00  0.00     0.050 A 
HETATM   30  C   UNL     1      14.405  53.812  44.689  1.00  0.00     0.008 A 
HETATM   31  C   UNL     1      15.087  52.950  45.594  1.00  0.00     0.017 A 
ENDBRANCH   2  27
BRANCH   3  32
HETATM   32  C   UNL     1      15.799  49.824  45.570  1.00  0.00     0.153 C 
BRANCH  32  33
HETATM   33  C   UNL     1      14.995  49.418  46.803  1.00  0.00     0.187 C 
BRANCH  33  34
HETATM   34  O   UNL     1      14.472  48.102  46.594  1.00  0.00    -0.394 OA
HETATM   35  C   UNL     1      13.513  48.075  45.547  1.00  0.00     0.201 C 
ENDBRANCH  33  34
ENDBRANCH  32  33
ENDBRANCH   3  32
TORSDOF 8
ENDMDL
MODEL 2
REMARK VINA RESULT:      -7.3     14.054     17.163
REMARK  8 active torsions:
REMARK  status: ('A' for Active; 'I' for Inactive)
REMARK    1  A    between atoms: C_2  and  O_3 
REMARK    2  A    between atoms: O_3  and  C_4 
REMARK       I    between atoms: C_4  and  N_5 
REMARK    3  A    between atoms: C_8  and  N_9 
REMARK       I    between atoms: N_9  and  C_10 
REMARK    4  A    between atoms: C_10  and  C_11 
REMARK    5  A    between atoms: C_12  and  C_13 
REMARK    6  A    between atoms: N_18  and  C_19 
REMARK    7  A    between atoms: C_19  and  C_20 
REMARK    8  A    between atoms: C_20  and  O_21 
ROOT
HETATM    1  C   UNL     1      27.890  49.867  41.275  1.00  0.00     0.139 C 
HETATM    2  C   UNL     1      27.315  49.183  40.016  1.00  0.00     0.145 C 
HETATM    3  N   UNL     1      28.314  49.073  38.944  1.00  0.00    -0.335 N 
HETATM    4  C   UNL     1      29.043  50.210  38.596  1.00  0.00     0.255 C 
HETATM    5  O   UNL     1      29.757  50.275  37.600  1.00  0.00    -0.267 OA
HETATM    6  C   UNL     1      28.962  51.374  39.535  1.00  0.00     0.039 A 
HETATM    7  C   UNL     1      28.435  51.220  40.835  1.00  0.00    -0.027 A 
HETATM    8  C   UNL     1      29.460  52.615  39.124  1.00  0.00     0.017 A 
HETATM    9  C   UNL     1      29.427  53.705  39.995  1.00  0.00     0.001 A 
HETATM   10  C   UNL     1      28.906  53.557  41.280  1.00  0.00     0.001 A 
HETATM   11  C   UNL     1      28.414  52.321  41.704  1.00  0.00     0.009 A 
ENDROOT
BRANCH   1  12
HETATM   12  C   UNL     1      28.983  49.041  41.967  1.00  0.00     0.229 C 
HETATM   13  N   UNL     1      30.248  49.601  41.882  1.00  0.00    -0.356 N 
HETATM   14  H   UNL     1      30.285  50.546  41.522  1.00  0.00     0.162 HD
HETATM   15  O   UNL     1      28.763  47.964  42.511  1.00  0.00    -0.273 OA
BRANCH  13  16
HETATM   16  C   UNL     1      31.395  49.223  42.719  1.00  0.00     0.087 C 
HETATM   17  C   UNL     1      32.546  48.454  42.057  1.00  0.00     0.045 C 
HETATM   18  C   UNL     1      33.312  49.315  41.064  1.00  0.00     0.130 C 
HETATM   19  N   UNL     1      33.771  50.554  41.692  1.00  0.00    -0.328 N 
HETATM   20  C   UNL     1      34.939  51.189  41.293  1.00  0.00     0.362 C 
HETATM   21  C   UNL     1      32.765  51.331  42.403  1.00  0.00     0.130 C 
HETATM   22  O   UNL     1      35.234  52.336  41.612  1.00  0.00    -0.238 OA
HETATM   23  C   UNL     1      31.971  50.479  43.391  1.00  0.00     0.045 C 
BRANCH  20  24
HETATM   24  O   UNL     1      35.724  50.395  40.518  1.00  0.00    -0.304 OA
BRANCH  24  25
HETATM   25  C   UNL     1      37.015  50.914  40.172  1.00  0.00     0.176 C 
HETATM   26  C   UNL     1      37.062  51.233  38.691  1.00  0.00     0.034 C 
ENDBRANCH  24  25
ENDBRANCH  20  24
ENDBRANCH  13  16
ENDBRANCH   1  12
BRANCH   2  27
HETATM   27  C   UNL     1      26.437  47.961  40.215  1.00  0.00     0.006 A 
HETATM   28  S   UNL     1      24.850  47.825  39.576  1.00  0.00    -0.104 SA
HETATM   29  C   UNL     1      24.635  46.262  40.224  1.00  0.00     0.050 A 
HETATM   30  C   UNL     1      25.752  45.825  40.895  1.00  0.00     0.008 A 
HETATM   31  C   UNL     1      26.791  46.798  40.882  1.00  0.00     0.017 A 
ENDBRANCH   2  27
BRANCH   3  32
HETATM   32  C   UNL     1      28.788  47.782  38.439  1.00  0.00     0.153 C 
BRANCH  32  33
HETATM   33  C   UNL     1      30.144  47.361  39.002  1.00  0.00     0.187 C 
BRANCH  33  34
HETATM   34  O   UNL     1      29.978  46.138  39.726  1.00  0.00    -0.394 OA
HETATM   35  C   UNL     1      29.434  45.111  38.911  1.00  0.00     0.201 C 
ENDBRANCH  33  34
ENDBRANCH  32  33
ENDBRANCH   3  32
TORSDOF 8
ENDMDL
MODEL 3
REMARK VINA RESULT:      -7.0      3.428      7.979
REMARK  8 active torsions:
REMARK  status: ('A' for Active; 'I' for Inactive)
REMARK    1  A    between atoms: C_2  and  O_3 
REMARK    2  A    between atoms: O_3  and  C_4 
REMARK       I    between atoms: C_4  and  N_5 
REMARK    3  A    between atoms: C_8  and  N_9 
REMARK       I    between atoms: N_9  and  C_10 
REMARK    4  A    between atoms: C_10  and  C_11 
REMARK    5  A    between atoms: C_12  and  C_13 
REMARK    6  A    between atoms: N_18  and  C_19 
REMARK    7  A    between atoms: C_19  and  C_20 
REMARK    8  A    between atoms: C_20  and  O_21 
ROOT
HETATM    1  C   UNL     1      17.087  51.120  48.933  1.00  0.00     0.139 C 
HETATM    2  C   UNL     1      16.351  50.145  47.990  1.00  0.00     0.145 C 
HETATM    3  N   UNL     1      15.983  50.782  46.718  1.00  0.00    -0.335 N 
HETATM    4  C   UNL     1      15.332  52.015  46.756  1.00  0.00     0.255 C 
HETATM    5  O   UNL     1      14.817  52.537  45.771  1.00  0.00    -0.267 OA
HETATM    6  C   UNL     1      15.322  52.729  48.072  1.00  0.00     0.039 A 
HETATM    7  C   UNL     1      16.178  52.328  49.120  1.00  0.00    -0.027 A 
HETATM    8  C   UNL     1      14.483  53.836  48.239  1.00  0.00     0.017 A 
HETATM    9  C   UNL     1      14.482  54.538  49.445  1.00  0.00     0.001 A 
HETATM   10  C   UNL     1      15.326  54.144  50.483  1.00  0.00     0.001 A 
HETATM   11  C   UNL     1      16.174  53.047  50.324  1.00  0.00     0.009 A 
ENDROOT
BRANCH   1  12
HETATM   12  C   UNL     1      18.462  51.551  48.406  1.00  0.00     0.229 C 
HETATM   13  N   UNL     1      19.428  50.560  48.481  1.00  0.00    -0.356 N 
HETATM   14  H   UNL     1      19.089  49.636  48.718  1.00  0.00     0.162 HD
HETATM   15  O   UNL     1      18.695  52.682  47.994  1.00  0.00    -0.273 OA
BRANCH  13  16
HETATM   16  C   UNL     1      20.706  50.571  47.756  1.00  0.00     0.087 C 
HETATM   17  C   UNL     1      21.970  50.962  48.533  1.00  0.00     0.045 C 
HETATM   18  C   UNL     1      22.350  49.915  49.569  1.00  0.00     0.130 C 
HETATM   19  N   UNL     1      22.471  48.593  48.956  1.00  0.00    -0.328 N 
HETATM   20  C   UNL     1      23.354  47.638  49.441  1.00  0.00     0.362 C 
HETATM   21  C   UNL     1      21.347  48.150  48.143  1.00  0.00     0.130 C 
HETATM   22  O   UNL     1      23.320  46.454  49.123  1.00  0.00    -0.238 OA
HETATM   23  C   UNL     1      20.937  49.198  47.108  1.00  0.00     0.045 C 
BRANCH  20  24
HETATM   24  O   UNL     1      24.269  48.163  50.299  1.00  0.00    -0.304 OA
BRANCH  24  25
HETATM   25  C   UNL     1      25.646  47.886  50.014  1.00  0.00     0.176 C 
HETATM   26  C   UNL     1      26.224  48.987  49.148  1.00  0.00     0.034 C 
ENDBRANCH  24  25
ENDBRANCH  20  24
ENDBRANCH  13  16
ENDBRANCH   1  12
BRANCH   2  27
HETATM   27  C   UNL     1      16.888  48.730  47.878  1.00  0.00     0.006 A 
HETATM   28  S   UNL     1      17.568  47.870  49.198  1.00  0.00    -0.104 SA
HETATM   29  C   UNL     1      17.871  46.487  48.249  1.00  0.00     0.050 A 
HETATM   30  C   UNL     1      17.443  46.649  46.952  1.00  0.00     0.008 A 
HETATM   31  C   UNL     1      16.870  47.935  46.742  1.00  0.00     0.017 A 
ENDBRANCH   2  27
BRANCH   3  32
HETATM   32  C   UNL     1      16.525  50.340  45.430  1.00  0.00     0.153 C 
BRANCH  32  33
HETATM   33  C   UNL     1      17.795  51.077  45.013  1.00  0.00     0.187 C 
BRANCH  33  34
HETATM   34  O   UNL     1      17.783  51.239  43.591  1.00  0.00    -0.394 OA
HETATM   35  C   UNL     1      17.146  52.447  43.202  1.00  0.00     0.201 C 
ENDBRANCH  33  34
ENDBRANCH  32  33
ENDBRANCH   3  32
TORSDOF 8
ENDMDL
MODEL 4
REMARK VINA RESULT:      -6.9      6.149     11.534
REMARK  8 active torsions:
REMARK  status: ('A' for Active; 'I' for Inactive)
REMARK    1  A    between atoms: C_2  and  O_3 
REMARK    2  A    between atoms: O_3  and  C_4 
REMARK       I    between atoms: C_4  and  N_5 
REMARK    3  A    between atoms: C_8  and  N_9 
REMARK       I    between atoms: N_9  and  C_10 
REMARK    4  A    between atoms: C_10  and  C_11 
REMARK    5  A    between atoms: C_12  and  C_13 
REMARK    6  A    between atoms: N_18  and  C_19 
REMARK    7  A    between atoms: C_19  and  C_20 
REMARK    8  A    between atoms: C_20  and  O_21 
ROOT
HETATM    1  C   UNL     1      20.845  46.271  46.993  1.00  0.00     0.139 C 
HETATM    2  C   UNL     1      20.841  47.729  47.499  1.00  0.00     0.145 C 
HETATM    3  N   UNL     1      19.594  48.066  48.198  1.00  0.00    -0.335 N 
HETATM    4  C   UNL     1      18.381  47.757  47.580  1.00  0.00     0.255 C 
HETATM    5  O   UNL     1      17.295  48.161  47.984  1.00  0.00    -0.267 OA
HETATM    6  C   UNL     1      18.445  46.844  46.394  1.00  0.00     0.039 A 
HETATM    7  C   UNL     1      19.613  46.103  46.113  1.00  0.00    -0.027 A 
HETATM    8  C   UNL     1      17.311  46.697  45.588  1.00  0.00     0.017 A 
HETATM    9  C   UNL     1      17.337  45.826  44.498  1.00  0.00     0.001 A 
HETATM   10  C   UNL     1      18.489  45.093  44.216  1.00  0.00     0.001 A 
HETATM   11  C   UNL     1      19.623  45.225  45.019  1.00  0.00     0.009 A 
ENDROOT
BRANCH   1  12
HETATM   12  C   UNL     1      20.848  45.236  48.126  1.00  0.00     0.229 C 
HETATM   13  N   UNL     1      21.967  44.418  48.137  1.00  0.00    -0.356 N 
HETATM   14  H   UNL     1      22.715  44.692  47.511  1.00  0.00     0.162 HD
HETATM   15  O   UNL     1      19.925  45.116  48.924  1.00  0.00    -0.273 OA
BRANCH  13  16
HETATM   16  C   UNL     1      22.396  43.590  49.272  1.00  0.00     0.087 C 
HETATM   17  C   UNL     1      23.114  42.268  48.968  1.00  0.00     0.045 C 
HETATM   18  C   UNL     1      24.493  42.493  48.366  1.00  0.00     0.130 C 
HETATM   19  N   UNL     1      25.298  43.370  49.217  1.00  0.00    -0.328 N 
HETATM   20  C   UNL     1      26.679  43.257  49.287  1.00  0.00     0.362 C 
HETATM   21  C   UNL     1      24.682  44.628  49.616  1.00  0.00     0.130 C 
HETATM   22  O   UNL     1      27.408  44.107  49.785  1.00  0.00    -0.238 OA
HETATM   23  C   UNL     1      23.287  44.425  50.205  1.00  0.00     0.045 C 
BRANCH  20  24
HETATM   24  O   UNL     1      27.133  42.092  48.753  1.00  0.00    -0.304 OA
BRANCH  24  25
HETATM   25  C   UNL     1      27.741  41.165  49.662  1.00  0.00     0.176 C 
HETATM   26  C   UNL     1      26.820  39.983  49.886  1.00  0.00     0.034 C 
ENDBRANCH  24  25
ENDBRANCH  20  24
ENDBRANCH  13  16
ENDBRANCH   1  12
BRANCH   2  27
HETATM   27  C   UNL     1      22.110  48.256  48.143  1.00  0.00     0.006 A 
HETATM   28  S   UNL     1      22.768  49.805  47.804  1.00  0.00    -0.104 SA
HETATM   29  C   UNL     1      24.070  49.579  48.881  1.00  0.00     0.050 A 
HETATM   30  C   UNL     1      24.007  48.361  49.517  1.00  0.00     0.008 A 
HETATM   31  C   UNL     1      22.875  47.606  49.099  1.00  0.00     0.017 A 
ENDBRANCH   2  27
BRANCH   3  32
HETATM   32  C   UNL     1      19.559  48.427  49.617  1.00  0.00     0.153 C 
BRANCH  32  33
HETATM   33  C   UNL     1      19.496  49.932  49.867  1.00  0.00     0.187 C 
BRANCH  33  34
HETATM   34  O   UNL     1      18.242  50.241  50.484  1.00  0.00    -0.394 OA
HETATM   35  C   UNL     1      17.600  51.339  49.854  1.00  0.00     0.201 C 
ENDBRANCH  33  34
ENDBRANCH  32  33
ENDBRANCH   3  32
TORSDOF 8
ENDMDL
MODEL 5
REMARK VINA RESULT:      -6.9     27.641     30.226
REMARK  8 active torsions:
REMARK  status: ('A' for Active; 'I' for Inactive)
REMARK    1  A    between atoms: C_2  and  O_3 
REMARK    2  A    between atoms: O_3  and  C_4 
REMARK       I    between atoms: C_4  and  N_5 
REMARK    3  A    between atoms: C_8  and  N_9 
REMARK       I    between atoms: N_9  and  C_10 
REMARK    4  A    between atoms: C_10  and  C_11 
REMARK    5  A    between atoms: C_12  and  C_13 
REMARK    6  A    between atoms: N_18  and  C_19 
REMARK    7  A    between atoms: C_19  and  C_20 
REMARK    8  A    between atoms: C_20  and  O_21 
ROOT
HETATM    1  C   UNL     1      38.930  47.028  65.859  1.00  0.00     0.139 C 
HETATM    2  C   UNL     1      38.949  46.156  67.131  1.00  0.00     0.145 C 
HETATM    3  N   UNL     1      37.631  46.096  67.778  1.00  0.00    -0.335 N 
HETATM    4  C   UNL     1      36.950  47.291  68.012  1.00  0.00     0.255 C 
HETATM    5  O   UNL     1      35.942  47.369  68.707  1.00  0.00    -0.267 OA
HETATM    6  C   UNL     1      37.480  48.511  67.323  1.00  0.00     0.039 A 
HETATM    7  C   UNL     1      38.412  48.401  66.269  1.00  0.00    -0.027 A 
HETATM    8  C   UNL     1      37.003  49.769  67.708  1.00  0.00     0.017 A 
HETATM    9  C   UNL     1      37.457  50.917  67.057  1.00  0.00     0.001 A 
HETATM   10  C   UNL     1      38.379  50.812  66.016  1.00  0.00     0.001 A 
HETATM   11  C   UNL     1      38.854  49.562  65.618  1.00  0.00     0.009 A 
ENDROOT
BRANCH   1  12
HETATM   12  C   UNL     1      38.071  46.439  64.732  1.00  0.00     0.229 C 
HETATM   13  N   UNL     1      38.725  45.487  63.967  1.00  0.00    -0.356 N 
HETATM   14  H   UNL     1      39.620  45.176  64.325  1.00  0.00     0.162 HD
HETATM   15  O   UNL     1      36.924  46.806  64.504  1.00  0.00    -0.273 OA
BRANCH  13  16
HETATM   16  C   UNL     1      38.067  44.531  63.064  1.00  0.00     0.087 C 
HETATM   17  C   UNL     1      38.957  43.632  62.197  1.00  0.00     0.045 C 
HETATM   18  C   UNL     1      39.720  42.611  63.028  1.00  0.00     0.130 C 
HETATM   19  N   UNL     1      38.808  41.834  63.867  1.00  0.00    -0.328 N 
HETATM   20  C   UNL     1      39.075  40.517  64.217  1.00  0.00     0.362 C 
HETATM   21  C   UNL     1      37.875  42.595  64.687  1.00  0.00     0.130 C 
HETATM   22  O   UNL     1      38.478  39.912  65.100  1.00  0.00    -0.238 OA
HETATM   23  C   UNL     1      37.113  43.640  63.874  1.00  0.00     0.045 C 
BRANCH  20  24
HETATM   24  O   UNL     1      40.065  39.970  63.462  1.00  0.00    -0.304 OA
BRANCH  24  25
HETATM   25  C   UNL     1      40.567  38.697  63.891  1.00  0.00     0.176 C 
HETATM   26  C   UNL     1      41.852  38.886  64.670  1.00  0.00     0.034 C 
ENDBRANCH  24  25
ENDBRANCH  20  24
ENDBRANCH  13  16
ENDBRANCH   1  12
BRANCH   2  27
HETATM   27  C   UNL     1      39.705  44.841  67.075  1.00  0.00     0.006 A 
HETATM   28  S   UNL     1      41.114  44.602  66.124  1.00  0.00    -0.104 SA
HETATM   29  C   UNL     1      41.282  42.983  66.631  1.00  0.00     0.050 A 
HETATM   30  C   UNL     1      40.307  42.621  67.530  1.00  0.00     0.008 A 
HETATM   31  C   UNL     1      39.407  43.692  67.792  1.00  0.00     0.017 A 
ENDBRANCH   2  27
BRANCH   3  32
HETATM   32  C   UNL     1      36.875  44.847  67.911  1.00  0.00     0.153 C 
BRANCH  32  33
HETATM   33  C   UNL     1      35.686  44.743  66.959  1.00  0.00     0.187 C 
BRANCH  33  34
HETATM   34  O   UNL     1      35.051  43.475  67.157  1.00  0.00    -0.394 OA
HETATM   35  C   UNL     1      34.135  43.174  66.115  1.00  0.00     0.201 C 
ENDBRANCH  33  34
ENDBRANCH  32  33
ENDBRANCH   3  32
TORSDOF 8
ENDMDL
MODEL 6
REMARK VINA RESULT:      -6.6      3.498      8.716
REMARK  8 active torsions:
REMARK  status: ('A' for Active; 'I' for Inactive)
REMARK    1  A    between atoms: C_2  and  O_3 
REMARK    2  A    between atoms: O_3  and  C_4 
REMARK       I    between atoms: C_4  and  N_5 
REMARK    3  A    between atoms: C_8  and  N_9 
REMARK       I    between atoms: N_9  and  C_10 
REMARK    4  A    between atoms: C_10  and  C_11 
REMARK    5  A    between atoms: C_12  and  C_13 
REMARK    6  A    between atoms: N_18  and  C_19 
REMARK    7  A    between atoms: C_19  and  C_20 
REMARK    8  A    between atoms: C_20  and  O_21 
ROOT
HETATM    1  C   UNL     1      18.144  50.725  45.215  1.00  0.00     0.139 C 
HETATM    2  C   UNL     1      17.738  51.799  46.245  1.00  0.00     0.145 C 
HETATM    3  N   UNL     1      16.404  52.350  45.970  1.00  0.00    -0.335 N 
HETATM    4  C   UNL     1      16.116  52.779  44.674  1.00  0.00     0.255 C 
HETATM    5  O   UNL     1      15.112  53.422  44.384  1.00  0.00    -0.267 OA
HETATM    6  C   UNL     1      17.081  52.375  43.603  1.00  0.00     0.039 A 
HETATM    7  C   UNL     1      18.045  51.371  43.838  1.00  0.00    -0.027 A 
HETATM    8  C   UNL     1      16.988  52.974  42.343  1.00  0.00     0.017 A 
HETATM    9  C   UNL     1      17.855  52.589  41.319  1.00  0.00     0.001 A 
HETATM   10  C   UNL     1      18.809  51.598  41.548  1.00  0.00     0.001 A 
HETATM   11  C   UNL     1      18.905  50.986  42.799  1.00  0.00     0.009 A 
ENDROOT
BRANCH   1  12
HETATM   12  C   UNL     1      17.278  49.460  45.284  1.00  0.00     0.229 C 
HETATM   13  N   UNL     1      17.985  48.313  45.609  1.00  0.00    -0.356 N 
HETATM   14  H   UNL     1      18.939  48.459  45.914  1.00  0.00     0.162 HD
HETATM   15  O   UNL     1      16.078  49.457  45.035  1.00  0.00    -0.273 OA
BRANCH  13  16
HETATM   16  C   UNL     1      17.384  47.054  46.071  1.00  0.00     0.087 C 
HETATM   17  C   UNL     1      17.874  45.747  45.434  1.00  0.00     0.045 C 
HETATM   18  C   UNL     1      19.309  45.425  45.823  1.00  0.00     0.130 C 
HETATM   19  N   UNL     1      19.467  45.419  47.278  1.00  0.00    -0.328 N 
HETATM   20  C   UNL     1      20.393  44.601  47.911  1.00  0.00     0.362 C 
HETATM   21  C   UNL     1      18.975  46.592  47.987  1.00  0.00     0.130 C 
HETATM   22  O   UNL     1      20.729  44.732  49.082  1.00  0.00    -0.238 OA
HETATM   23  C   UNL     1      17.541  46.943  47.595  1.00  0.00     0.045 C 
BRANCH  20  24
HETATM   24  O   UNL     1      20.875  43.630  47.090  1.00  0.00    -0.304 OA
BRANCH  24  25
HETATM   25  C   UNL     1      22.299  43.461  47.067  1.00  0.00     0.176 C 
HETATM   26  C   UNL     1      22.889  44.226  45.899  1.00  0.00     0.034 C 
ENDBRANCH  24  25
ENDBRANCH  20  24
ENDBRANCH  13  16
ENDBRANCH   1  12
BRANCH   2  27
HETATM   27  C   UNL     1      18.039  51.525  47.708  1.00  0.00     0.006 A 
HETATM   28  S   UNL     1      17.302  50.259  48.602  1.00  0.00    -0.104 SA
HETATM   29  C   UNL     1      18.159  50.652  50.023  1.00  0.00     0.050 A 
HETATM   30  C   UNL     1      19.016  51.710  49.831  1.00  0.00     0.008 A 
HETATM   31  C   UNL     1      18.953  52.204  48.498  1.00  0.00     0.017 A 
ENDBRANCH   2  27
BRANCH   3  32
HETATM   32  C   UNL     1      15.280  52.194  46.899  1.00  0.00     0.153 C 
BRANCH  32  33
HETATM   33  C   UNL     1      15.017  53.428  47.758  1.00  0.00     0.187 C 
BRANCH  33  34
HETATM   34  O   UNL     1      14.881  53.015  49.122  1.00  0.00    -0.394 OA
HETATM   35  C   UNL     1      15.815  53.669  49.967  1.00  0.00     0.201 C 
ENDBRANCH  33  34
ENDBRANCH  32  33
ENDBRANCH   3  32
TORSDOF 8
ENDMDL
MODEL 7
REMARK VINA RESULT:      -6.5     13.611     16.290
REMARK  8 active torsions:
REMARK  status: ('A' for Active; 'I' for Inactive)
REMARK    1  A    between atoms: C_2  and  O_3 
REMARK    2  A    between atoms: O_3  and  C_4 
REMARK       I    between atoms: C_4  and  N_5 
REMARK    3  A    between atoms: C_8  and  N_9 
REMARK       I    between atoms: N_9  and  C_10 
REMARK    4  A    between atoms: C_10  and  C_11 
REMARK    5  A    between atoms: C_12  and  C_13 
REMARK    6  A    between atoms: N_18  and  C_19 
REMARK    7  A    between atoms: C_19  and  C_20 
REMARK    8  A    between atoms: C_20  and  O_21 
ROOT
HETATM    1  C   UNL     1      26.311  49.282  39.485  1.00  0.00     0.139 C 
HETATM    2  C   UNL     1      27.202  48.044  39.717  1.00  0.00     0.145 C 
HETATM    3  N   UNL     1      27.417  47.280  38.481  1.00  0.00    -0.335 N 
HETATM    4  C   UNL     1      26.308  46.949  37.702  1.00  0.00     0.255 C 
HETATM    5  O   UNL     1      26.354  46.161  36.762  1.00  0.00    -0.267 OA
HETATM    6  C   UNL     1      25.024  47.646  38.031  1.00  0.00     0.039 A 
HETATM    7  C   UNL     1      25.012  48.784  38.865  1.00  0.00    -0.027 A 
HETATM    8  C   UNL     1      23.833  47.182  37.462  1.00  0.00     0.017 A 
HETATM    9  C   UNL     1      22.630  47.837  37.728  1.00  0.00     0.001 A 
HETATM   10  C   UNL     1      22.613  48.961  38.552  1.00  0.00     0.001 A 
HETATM   11  C   UNL     1      23.797  49.439  39.117  1.00  0.00     0.009 A 
ENDROOT
BRANCH   1  12
HETATM   12  C   UNL     1      26.968  50.342  38.590  1.00  0.00     0.229 C 
HETATM   13  N   UNL     1      27.580  51.368  39.292  1.00  0.00    -0.356 N 
HETATM   14  H   UNL     1      27.664  51.226  40.290  1.00  0.00     0.162 HD
HETATM   15  O   UNL     1      26.921  50.305  37.365  1.00  0.00    -0.273 OA
BRANCH  13  16
HETATM   16  C   UNL     1      28.556  52.311  38.728  1.00  0.00     0.087 C 
HETATM   17  C   UNL     1      29.242  53.295  39.685  1.00  0.00     0.045 C 
HETATM   18  C   UNL     1      30.192  52.591  40.642  1.00  0.00     0.130 C 
HETATM   19  N   UNL     1      31.160  51.773  39.911  1.00  0.00    -0.328 N 
HETATM   20  C   UNL     1      32.442  51.548  40.393  1.00  0.00     0.362 C 
HETATM   21  C   UNL     1      30.613  50.846  38.929  1.00  0.00     0.130 C 
HETATM   22  O   UNL     1      33.195  50.688  39.950  1.00  0.00    -0.238 OA
HETATM   23  C   UNL     1      29.641  51.531  37.970  1.00  0.00     0.045 C 
BRANCH  20  24
HETATM   24  O   UNL     1      32.774  52.395  41.403  1.00  0.00    -0.304 OA
BRANCH  24  25
HETATM   25  C   UNL     1      33.304  51.795  42.593  1.00  0.00     0.176 C 
HETATM   26  C   UNL     1      32.217  51.682  43.642  1.00  0.00     0.034 C 
ENDBRANCH  24  25
ENDBRANCH  20  24
ENDBRANCH  13  16
ENDBRANCH   1  12
BRANCH   2  27
HETATM   27  C   UNL     1      28.425  48.209  40.601  1.00  0.00     0.006 A 
HETATM   28  S   UNL     1      28.464  49.232  41.978  1.00  0.00    -0.104 SA
HETATM   29  C   UNL     1      30.081  48.828  42.335  1.00  0.00     0.050 A 
HETATM   30  C   UNL     1      30.591  47.911  41.447  1.00  0.00     0.008 A 
HETATM   31  C   UNL     1      29.636  47.549  40.456  1.00  0.00     0.017 A 
ENDBRANCH   2  27
BRANCH   3  32
HETATM   32  C   UNL     1      28.743  47.114  37.878  1.00  0.00     0.153 C 
BRANCH  32  33
HETATM   33  C   UNL     1      29.049  45.681  37.450  1.00  0.00     0.187 C 
BRANCH  33  34
HETATM   34  O   UNL     1      29.554  44.964  38.581  1.00  0.00    -0.394 OA
HETATM   35  C   UNL     1      28.630  43.993  39.047  1.00  0.00     0.201 C 
ENDBRANCH  33  34
ENDBRANCH  32  33
ENDBRANCH   3  32
TORSDOF 8
ENDMDL
MODEL 8
REMARK VINA RESULT:      -6.5     10.637     14.821
REMARK  8 active torsions:
REMARK  status: ('A' for Active; 'I' for Inactive)
REMARK    1  A    between atoms: C_2  and  O_3 
REMARK    2  A    between atoms: O_3  and  C_4 
REMARK       I    between atoms: C_4  and  N_5 
REMARK    3  A    between atoms: C_8  and  N_9 
REMARK       I    between atoms: N_9  and  C_10 
REMARK    4  A    between atoms: C_10  and  C_11 
REMARK    5  A    between atoms: C_12  and  C_13 
REMARK    6  A    between atoms: N_18  and  C_19 
REMARK    7  A    between atoms: C_19  and  C_20 
REMARK    8  A    between atoms: C_20  and  O_21 
ROOT
HETATM    1  C   UNL     1      27.236  42.267  49.747  1.00  0.00     0.139 C 
HETATM    2  C   UNL     1      28.031  41.174  49.003  1.00  0.00     0.145 C 
HETATM    3  N   UNL     1      28.168  39.950  49.804  1.00  0.00    -0.335 N 
HETATM    4  C   UNL     1      28.606  40.064  51.124  1.00  0.00     0.255 C 
HETATM    5  O   UNL     1      28.933  39.102  51.812  1.00  0.00    -0.267 OA
HETATM    6  C   UNL     1      28.621  41.443  51.709  1.00  0.00     0.039 A 
HETATM    7  C   UNL     1      27.946  42.507  51.074  1.00  0.00    -0.027 A 
HETATM    8  C   UNL     1      29.278  41.657  52.926  1.00  0.00     0.017 A 
HETATM    9  C   UNL     1      29.276  42.926  53.507  1.00  0.00     0.001 A 
HETATM   10  C   UNL     1      28.610  43.980  52.882  1.00  0.00     0.001 A 
HETATM   11  C   UNL     1      27.944  43.775  51.673  1.00  0.00     0.009 A 
ENDROOT
BRANCH   1  12
HETATM   12  C   UNL     1      25.765  41.896  49.978  1.00  0.00     0.229 C 
HETATM   13  N   UNL     1      24.869  42.867  49.561  1.00  0.00    -0.356 N 
HETATM   14  H   UNL     1      25.265  43.623  49.017  1.00  0.00     0.162 HD
HETATM   15  O   UNL     1      25.416  40.852  50.519  1.00  0.00    -0.273 OA
BRANCH  13  16
HETATM   16  C   UNL     1      23.431  42.652  49.345  1.00  0.00     0.087 C 
HETATM   17  C   UNL     1      22.454  43.671  49.945  1.00  0.00     0.045 C 
HETATM   18  C   UNL     1      22.547  45.024  49.256  1.00  0.00     0.130 C 
HETATM   19  N   UNL     1      22.377  44.887  47.809  1.00  0.00    -0.328 N 
HETATM   20  C   UNL     1      21.809  45.893  47.040  1.00  0.00     0.362 C 
HETATM   21  C   UNL     1      23.218  43.898  47.150  1.00  0.00     0.130 C 
HETATM   22  O   UNL     1      21.866  45.929  45.816  1.00  0.00    -0.238 OA
HETATM   23  C   UNL     1      23.153  42.536  47.839  1.00  0.00     0.045 C 
BRANCH  20  24
HETATM   24  O   UNL     1      21.171  46.828  47.794  1.00  0.00    -0.304 OA
BRANCH  24  25
HETATM   25  C   UNL     1      21.614  48.183  47.642  1.00  0.00     0.176 C 
HETATM   26  C   UNL     1      21.977  48.761  48.995  1.00  0.00     0.034 C 
ENDBRANCH  24  25
ENDBRANCH  20  24
ENDBRANCH  13  16
ENDBRANCH   1  12
BRANCH   2  27
HETATM   27  C   UNL     1      27.728  40.958  47.532  1.00  0.00     0.006 A 
HETATM   28  S   UNL     1      26.168  40.556  46.939  1.00  0.00    -0.104 SA
HETATM   29  C   UNL     1      26.703  40.516  45.320  1.00  0.00     0.050 A 
HETATM   30  C   UNL     1      28.038  40.827  45.212  1.00  0.00     0.008 A 
HETATM   31  C   UNL     1      28.623  41.090  46.482  1.00  0.00     0.017 A 
ENDBRANCH   2  27
BRANCH   3  32
HETATM   32  C   UNL     1      27.587  38.669  49.391  1.00  0.00     0.153 C 
BRANCH  32  33
HETATM   33  C   UNL     1      28.560  37.770  48.632  1.00  0.00     0.187 C 
BRANCH  33  34
HETATM   34  O   UNL     1      27.931  37.336  47.421  1.00  0.00    -0.394 OA
HETATM   35  C   UNL     1      28.843  37.305  46.334  1.00  0.00     0.201 C 
ENDBRANCH  33  34
ENDBRANCH  32  33
ENDBRANCH   3  32
TORSDOF 8
ENDMDL
MODEL 9
REMARK VINA RESULT:      -6.4     10.583     14.242
REMARK  8 active torsions:
REMARK  status: ('A' for Active; 'I' for Inactive)
REMARK    1  A    between atoms: C_2  and  O_3 
REMARK    2  A    between atoms: O_3  and  C_4 
REMARK       I    between atoms: C_4  and  N_5 
REMARK    3  A    between atoms: C_8  and  N_9 
REMARK       I    between atoms: N_9  and  C_10 
REMARK    4  A    between atoms: C_10  and  C_11 
REMARK    5  A    between atoms: C_12  and  C_13 
REMARK    6  A    between atoms: N_18  and  C_19 
REMARK    7  A    between atoms: C_19  and  C_20 
REMARK    8  A    between atoms: C_20  and  O_21 
ROOT
HETATM    1  C   UNL     1      26.302  46.461  40.604  1.00  0.00     0.139 C 
HETATM    2  C   UNL     1      27.702  47.110  40.640  1.00  0.00     0.145 C 
HETATM    3  N   UNL     1      28.628  46.474  39.693  1.00  0.00    -0.335 N 
HETATM    4  C   UNL     1      28.731  45.082  39.697  1.00  0.00     0.255 C 
HETATM    5  O   UNL     1      29.602  44.469  39.088  1.00  0.00    -0.267 OA
HETATM    6  C   UNL     1      27.680  44.333  40.456  1.00  0.00     0.039 A 
HETATM    7  C   UNL     1      26.495  44.974  40.876  1.00  0.00    -0.027 A 
HETATM    8  C   UNL     1      27.864  42.969  40.707  1.00  0.00     0.017 A 
HETATM    9  C   UNL     1      26.883  42.243  41.382  1.00  0.00     0.001 A 
HETATM   10  C   UNL     1      25.711  42.873  41.799  1.00  0.00     0.001 A 
HETATM   11  C   UNL     1      25.512  44.232  41.547  1.00  0.00     0.009 A 
ENDROOT
BRANCH   1  12
HETATM   12  C   UNL     1      25.567  46.678  39.275  1.00  0.00     0.229 C 
HETATM   13  N   UNL     1      24.229  47.011  39.421  1.00  0.00    -0.356 N 
HETATM   14  H   UNL     1      23.933  47.226  40.364  1.00  0.00     0.162 HD
HETATM   15  O   UNL     1      26.103  46.531  38.182  1.00  0.00    -0.273 OA
BRANCH  13  16
HETATM   16  C   UNL     1      23.386  47.596  38.370  1.00  0.00     0.087 C 
HETATM   17  C   UNL     1      21.865  47.572  38.571  1.00  0.00     0.045 C 
HETATM   18  C   UNL     1      21.425  48.492  39.701  1.00  0.00     0.130 C 
HETATM   19  N   UNL     1      21.929  49.850  39.496  1.00  0.00    -0.328 N 
HETATM   20  C   UNL     1      21.234  50.965  39.945  1.00  0.00     0.362 C 
HETATM   21  C   UNL     1      23.355  49.978  39.233  1.00  0.00     0.130 C 
HETATM   22  O   UNL     1      21.721  52.088  40.014  1.00  0.00    -0.238 OA
HETATM   23  C   UNL     1      23.822  49.047  38.115  1.00  0.00     0.045 C 
BRANCH  20  24
HETATM   24  O   UNL     1      19.951  50.675  40.287  1.00  0.00    -0.304 OA
BRANCH  24  25
HETATM   25  C   UNL     1      19.498  51.174  41.553  1.00  0.00     0.176 C 
HETATM   26  C   UNL     1      18.484  52.279  41.338  1.00  0.00     0.034 C 
ENDBRANCH  24  25
ENDBRANCH  20  24
ENDBRANCH  13  16
ENDBRANCH   1  12
BRANCH   2  27
HETATM   27  C   UNL     1      27.777  48.624  40.704  1.00  0.00     0.006 A 
HETATM   28  S   UNL     1      28.774  49.474  41.813  1.00  0.00    -0.104 SA
HETATM   29  C   UNL     1      28.277  50.994  41.224  1.00  0.00     0.050 A 
HETATM   30  C   UNL     1      27.387  50.876  40.182  1.00  0.00     0.008 A 
HETATM   31  C   UNL     1      27.107  49.514  39.879  1.00  0.00     0.017 A 
ENDBRANCH   2  27
BRANCH   3  32
HETATM   32  C   UNL     1      29.213  47.194  38.559  1.00  0.00     0.153 C 
BRANCH  32  33
HETATM   33  C   UNL     1      30.586  47.793  38.853  1.00  0.00     0.187 C 
BRANCH  33  34
HETATM   34  O   UNL     1      30.595  49.155  38.411  1.00  0.00    -0.394 OA
HETATM   35  C   UNL     1      31.473  49.956  39.187  1.00  0.00     0.201 C 
ENDBRANCH  33  34
ENDBRANCH  32  33
ENDBRANCH   3  32
TORSDOF 8
ENDMDL
MODEL 10
REMARK VINA RESULT:      -6.3     27.563     30.482
REMARK  8 active torsions:
REMARK  status: ('A' for Active; 'I' for Inactive)
REMARK    1  A    between atoms: C_2  and  O_3 
REMARK    2  A    between atoms: O_3  and  C_4 
REMARK       I    between atoms: C_4  and  N_5 
REMARK    3  A    between atoms: C_8  and  N_9 
REMARK       I    between atoms: N_9  and  C_10 
REMARK    4  A    between atoms: C_10  and  C_11 
REMARK    5  A    between atoms: C_12  and  C_13 
REMARK    6  A    between atoms: N_18  and  C_19 
REMARK    7  A    between atoms: C_19  and  C_20 
REMARK    8  A    between atoms: C_20  and  O_21 
ROOT
HETATM    1  C   UNL     1      38.846  48.394  65.941  1.00  0.00     0.139 C 
HETATM    2  C   UNL     1      39.722  47.665  66.982  1.00  0.00     0.145 C 
HETATM    3  N   UNL     1      38.993  47.408  68.232  1.00  0.00    -0.335 N 
HETATM    4  C   UNL     1      38.298  48.462  68.826  1.00  0.00     0.255 C 
HETATM    5  O   UNL     1      37.821  48.404  69.955  1.00  0.00    -0.267 OA
HETATM    6  C   UNL     1      38.106  49.692  67.994  1.00  0.00     0.039 A 
HETATM    7  C   UNL     1      38.339  49.670  66.602  1.00  0.00    -0.027 A 
HETATM    8  C   UNL     1      37.644  50.862  68.607  1.00  0.00     0.017 A 
HETATM    9  C   UNL     1      37.425  52.011  67.846  1.00  0.00     0.001 A 
HETATM   10  C   UNL     1      37.655  51.992  66.471  1.00  0.00     0.001 A 
HETATM   11  C   UNL     1      38.107  50.829  65.847  1.00  0.00     0.009 A 
ENDROOT
BRANCH   1  12
HETATM   12  C   UNL     1      37.674  47.543  65.434  1.00  0.00     0.229 C 
HETATM   13  N   UNL     1      38.025  46.632  64.450  1.00  0.00    -0.356 N 
HETATM   14  H   UNL     1      39.019  46.519  64.294  1.00  0.00     0.162 HD
HETATM   15  O   UNL     1      36.523  47.685  65.833  1.00  0.00    -0.273 OA
BRANCH  13  16
HETATM   16  C   UNL     1      37.210  45.483  64.034  1.00  0.00     0.087 C 
HETATM   17  C   UNL     1      37.689  44.659  62.832  1.00  0.00     0.045 C 
HETATM   18  C   UNL     1      38.961  43.885  63.142  1.00  0.00     0.130 C 
HETATM   19  N   UNL     1      38.793  43.061  64.339  1.00  0.00    -0.328 N 
HETATM   20  C   UNL     1      39.466  41.858  64.502  1.00  0.00     0.362 C 
HETATM   21  C   UNL     1      38.282  43.737  65.524  1.00  0.00     0.130 C 
HETATM   22  O   UNL     1      39.548  41.261  65.570  1.00  0.00    -0.238 OA
HETATM   23  C   UNL     1      37.014  44.537  65.228  1.00  0.00     0.045 C 
BRANCH  20  24
HETATM   24  O   UNL     1      40.014  41.408  63.341  1.00  0.00    -0.304 OA
BRANCH  24  25
HETATM   25  C   UNL     1      39.284  40.391  62.641  1.00  0.00     0.176 C 
HETATM   26  C   UNL     1      39.885  39.031  62.934  1.00  0.00     0.034 C 
ENDBRANCH  24  25
ENDBRANCH  20  24
ENDBRANCH  13  16
ENDBRANCH   1  12
BRANCH   2  27
HETATM   27  C   UNL     1      40.599  46.527  66.494  1.00  0.00     0.006 A 
HETATM   28  S   UNL     1      41.321  46.491  64.938  1.00  0.00    -0.104 SA
HETATM   29  C   UNL     1      42.069  44.987  65.228  1.00  0.00     0.050 A 
HETATM   30  C   UNL     1      41.805  44.517  66.493  1.00  0.00     0.008 A 
HETATM   31  C   UNL     1      40.969  45.407  67.223  1.00  0.00     0.017 A 
ENDBRANCH   2  27
BRANCH   3  32
HETATM   32  C   UNL     1      38.714  46.053  68.715  1.00  0.00     0.153 C 
BRANCH  32  33
HETATM   33  C   UNL     1      37.257  45.627  68.545  1.00  0.00     0.187 C 
BRANCH  33  34
HETATM   34  O   UNL     1      37.104  44.304  69.069  1.00  0.00    -0.394 OA
HETATM   35  C   UNL     1      38.152  43.966  69.965  1.00  0.00     0.201 C 
ENDBRANCH  33  34
ENDBRANCH  32  33
ENDBRANCH   3  32
TORSDOF 8
ENDMDL
