MODEL 1
REMARK VINA RESULT:      -9.2      0.000      0.000
REMARK  8 active torsions:
REMARK  status: ('A' for Active; 'I' for Inactive)
REMARK    1  A    between atoms: C_4  and  O_5 
REMARK    2  A    between atoms: O_5  and  C_6 
REMARK    3  A    between atoms: C_6  and  C_7 
REMARK       I    between atoms: C_7  and  N_8 
REMARK    4  A    between atoms: N_8  and  N_9 
REMARK       I    between atoms: N_9  and  C_10 
REMARK    5  A    between atoms: C_10  and  C_11 
REMARK    6  A    between atoms: C_11  and  C_12 
REMARK    7  A    between atoms: C_12  and  N_13 
REMARK    8  A    between atoms: C_12  and  C_17 
REMARK       I    between atoms: N_13  and  C_14 
REMARK       I    between atoms: C_14  and  N_15 
ROOT
HETATM    1  N   UNL     1      26.826  47.260  52.895  1.00  0.00    -0.267 N 
HETATM    2  C   UNL     1      26.788  47.329  54.279  1.00  0.00     0.238 C 
HETATM    3  O   UNL     1      25.765  47.559  54.919  1.00  0.00    -0.272 OA
HETATM    4  H   UNL     1      27.632  46.834  52.440  1.00  0.00     0.190 HD
ENDROOT
BRANCH   2   5
HETATM    5  C   UNL     1      28.129  47.071  54.924  1.00  0.00     0.134 C 
BRANCH   5   6
HETATM    6  C   UNL     1      28.496  45.576  54.959  1.00  0.00     0.130 C 
BRANCH   6   7
HETATM    7  N   UNL     1      27.320  44.703  54.975  1.00  0.00    -0.334 N 
HETATM    8  C   UNL     1      26.917  44.040  53.856  1.00  0.00     0.314 C 
HETATM    9  N   UNL     1      25.751  43.378  54.043  1.00  0.00    -0.352 N 
HETATM   10  O   UNL     1      27.480  44.067  52.774  1.00  0.00    -0.248 OA
HETATM   11  H   UNL     1      25.558  43.024  54.970  1.00  0.00     0.160 HD
HETATM   12  H   UNL     1      25.490  42.767  53.279  1.00  0.00     0.160 HD
HETATM   13  H   UNL     1      26.571  44.914  55.633  1.00  0.00     0.165 HD
ENDBRANCH   6   7
BRANCH   6  14
HETATM   14  C   UNL     1      29.509  45.240  56.049  1.00  0.00    -0.013 A 
HETATM   15  C   UNL     1      30.433  44.186  55.886  1.00  0.00     0.042 A 
HETATM   16 CL   UNL     1      30.495  43.220  54.450  1.00  0.00    -0.084 Cl
HETATM   17  C   UNL     1      31.355  43.872  56.891  1.00  0.00     0.024 A 
HETATM   18  C   UNL     1      31.379  44.601  58.076  1.00  0.00     0.002 A 
HETATM   19  C   UNL     1      30.488  45.653  58.252  1.00  0.00     0.001 A 
HETATM   20  C   UNL     1      29.569  45.974  57.249  1.00  0.00     0.011 A 
ENDBRANCH   6  14
ENDBRANCH   5   6
ENDBRANCH   2   5
BRANCH   1  21
HETATM   21  N   UNL     1      25.612  47.127  52.216  1.00  0.00    -0.266 N 
HETATM   22  C   UNL     1      25.568  47.443  50.865  1.00  0.00     0.260 C 
HETATM   23  O   UNL     1      26.501  47.981  50.266  1.00  0.00    -0.269 OA
HETATM   24  H   UNL     1      24.944  46.455  52.591  1.00  0.00     0.190 HD
BRANCH  22  25
HETATM   25  C   UNL     1      24.271  47.007  50.188  1.00  0.00     0.280 C 
BRANCH  25  26
HETATM   26  O   UNL     1      24.174  47.679  48.935  1.00  0.00    -0.342 OA
BRANCH  26  27
HETATM   27  C   UNL     1      23.305  48.728  48.841  1.00  0.00     0.069 A 
HETATM   28  C   UNL     1      21.946  48.701  49.156  1.00  0.00     0.043 A 
HETATM   29  C   UNL     1      21.167  49.864  49.037  1.00  0.00    -0.059 A 
HETATM   30  C   UNL     1      19.717  49.861  49.422  1.00  0.00     0.048 C 
HETATM   31  C   UNL     1      21.770  51.056  48.613  1.00  0.00     0.007 A 
HETATM   32  C   UNL     1      23.125  51.085  48.297  1.00  0.00     0.003 A 
HETATM   33  C   UNL     1      23.889  49.923  48.416  1.00  0.00     0.037 A 
ENDBRANCH  26  27
ENDBRANCH  25  26
ENDBRANCH  22  25
ENDBRANCH   1  21
TORSDOF 8
ENDMDL
MODEL 2
REMARK VINA RESULT:      -9.1      1.896      2.470
REMARK  8 active torsions:
REMARK  status: ('A' for Active; 'I' for Inactive)
REMARK    1  A    between atoms: C_4  and  O_5 
REMARK    2  A    between atoms: O_5  and  C_6 
REMARK    3  A    between atoms: C_6  and  C_7 
REMARK       I    between atoms: C_7  and  N_8 
REMARK    4  A    between atoms: N_8  and  N_9 
REMARK       I    between atoms: N_9  and  C_10 
REMARK    5  A    between atoms: C_10  and  C_11 
REMARK    6  A    between atoms: C_11  and  C_12 
REMARK    7  A    between atoms: C_12  and  N_13 
REMARK    8  A    between atoms: C_12  and  C_17 
REMARK       I    between atoms: N_13  and  C_14 
REMARK       I    between atoms: C_14  and  N_15 
ROOT
HETATM    1  N   UNL     1      26.556  44.958  52.466  1.00  0.00    -0.267 N 
HETATM    2  C   UNL     1      25.892  44.206  53.422  1.00  0.00     0.238 C 
HETATM    3  O   UNL     1      24.672  44.062  53.446  1.00  0.00    -0.272 OA
HETATM    4  H   UNL     1      27.563  44.845  52.355  1.00  0.00     0.190 HD
ENDROOT
BRANCH   2   5
HETATM    5  C   UNL     1      26.822  43.562  54.423  1.00  0.00     0.134 C 
BRANCH   5   6
HETATM    6  C   UNL     1      28.264  43.434  53.900  1.00  0.00     0.130 C 
BRANCH   6   7
HETATM    7  N   UNL     1      28.537  42.127  53.299  1.00  0.00    -0.334 N 
HETATM    8  C   UNL     1      28.348  41.908  51.968  1.00  0.00     0.314 C 
HETATM    9  N   UNL     1      28.545  40.613  51.627  1.00  0.00    -0.352 N 
HETATM   10  O   UNL     1      27.982  42.742  51.157  1.00  0.00    -0.248 OA
HETATM   11  H   UNL     1      29.221  40.086  52.163  1.00  0.00     0.160 HD
HETATM   12  H   UNL     1      28.545  40.438  50.630  1.00  0.00     0.160 HD
HETATM   13  H   UNL     1      28.435  41.297  53.881  1.00  0.00     0.165 HD
ENDBRANCH   6   7
BRANCH   6  14
HETATM   14  C   UNL     1      29.307  43.850  54.932  1.00  0.00    -0.013 A 
HETATM   15  C   UNL     1      29.354  45.170  55.431  1.00  0.00     0.042 A 
HETATM   16 CL   UNL     1      28.237  46.392  54.928  1.00  0.00    -0.084 Cl
HETATM   17  C   UNL     1      30.319  45.553  56.370  1.00  0.00     0.024 A 
HETATM   18  C   UNL     1      31.254  44.633  56.834  1.00  0.00     0.002 A 
HETATM   19  C   UNL     1      31.217  43.324  56.367  1.00  0.00     0.001 A 
HETATM   20  C   UNL     1      30.252  42.934  55.434  1.00  0.00     0.011 A 
ENDBRANCH   6  14
ENDBRANCH   5   6
ENDBRANCH   2   5
BRANCH   1  21
HETATM   21  N   UNL     1      25.857  45.301  51.305  1.00  0.00    -0.266 N 
HETATM   22  C   UNL     1      25.443  46.615  51.142  1.00  0.00     0.260 C 
HETATM   23  O   UNL     1      25.520  47.464  52.033  1.00  0.00    -0.269 OA
HETATM   24  H   UNL     1      26.022  44.725  50.481  1.00  0.00     0.190 HD
BRANCH  22  25
HETATM   25  C   UNL     1      24.934  46.914  49.735  1.00  0.00     0.280 C 
BRANCH  25  26
HETATM   26  O   UNL     1      23.614  47.441  49.841  1.00  0.00    -0.342 OA
BRANCH  26  27
HETATM   27  C   UNL     1      23.358  48.642  49.244  1.00  0.00     0.069 A 
HETATM   28  C   UNL     1      22.140  49.324  49.254  1.00  0.00     0.043 A 
HETATM   29  C   UNL     1      22.019  50.570  48.618  1.00  0.00    -0.059 A 
HETATM   30  C   UNL     1      20.730  51.336  48.666  1.00  0.00     0.048 C 
HETATM   31  C   UNL     1      23.136  51.131  47.985  1.00  0.00     0.007 A 
HETATM   32  C   UNL     1      24.352  50.453  47.973  1.00  0.00     0.003 A 
HETATM   33  C   UNL     1      24.461  49.214  48.604  1.00  0.00     0.037 A 
ENDBRANCH  26  27
ENDBRANCH  25  26
ENDBRANCH  22  25
ENDBRANCH   1  21
TORSDOF 8
ENDMDL
MODEL 3
REMARK VINA RESULT:      -8.8      3.459     10.193
REMARK  8 active torsions:
REMARK  status: ('A' for Active; 'I' for Inactive)
REMARK    1  A    between atoms: C_4  and  O_5 
REMARK    2  A    between atoms: O_5  and  C_6 
REMARK    3  A    between atoms: C_6  and  C_7 
REMARK       I    between atoms: C_7  and  N_8 
REMARK    4  A    between atoms: N_8  and  N_9 
REMARK       I    between atoms: N_9  and  C_10 
REMARK    5  A    between atoms: C_10  and  C_11 
REMARK    6  A    between atoms: C_11  and  C_12 
REMARK    7  A    between atoms: C_12  and  N_13 
REMARK    8  A    between atoms: C_12  and  C_17 
REMARK       I    between atoms: N_13  and  C_14 
REMARK       I    between atoms: C_14  and  N_15 
ROOT
HETATM    1  N   UNL     1      23.875  47.614  50.336  1.00  0.00    -0.267 N 
HETATM    2  C   UNL     1      24.414  48.483  49.401  1.00  0.00     0.238 C 
HETATM    3  O   UNL     1      25.604  48.505  49.101  1.00  0.00    -0.272 OA
HETATM    4  H   UNL     1      22.866  47.477  50.366  1.00  0.00     0.190 HD
ENDROOT
BRANCH   2   5
HETATM    5  C   UNL     1      23.384  49.390  48.770  1.00  0.00     0.134 C 
BRANCH   5   6
HETATM    6  C   UNL     1      21.987  48.746  48.699  1.00  0.00     0.130 C 
BRANCH   6   7
HETATM    7  N   UNL     1      21.826  47.865  47.541  1.00  0.00    -0.334 N 
HETATM    8  C   UNL     1      21.910  46.512  47.665  1.00  0.00     0.314 C 
HETATM    9  N   UNL     1      21.848  45.880  46.470  1.00  0.00    -0.352 N 
HETATM   10  O   UNL     1      22.087  45.906  48.709  1.00  0.00    -0.248 OA
HETATM   11  H   UNL     1      21.299  46.314  45.740  1.00  0.00     0.160 HD
HETATM   12  H   UNL     1      21.772  44.872  46.533  1.00  0.00     0.160 HD
HETATM   13  H   UNL     1      22.088  48.221  46.623  1.00  0.00     0.165 HD
ENDBRANCH   6   7
BRANCH   6  14
HETATM   14  C   UNL     1      20.858  49.763  48.843  1.00  0.00    -0.013 A 
HETATM   15  C   UNL     1      19.599  49.387  49.358  1.00  0.00     0.042 A 
HETATM   16 CL   UNL     1      19.252  47.771  49.873  1.00  0.00    -0.084 Cl
HETATM   17  C   UNL     1      18.561  50.318  49.479  1.00  0.00     0.024 A 
HETATM   18  C   UNL     1      18.754  51.641  49.094  1.00  0.00     0.002 A 
HETATM   19  C   UNL     1      19.991  52.037  48.597  1.00  0.00     0.001 A 
HETATM   20  C   UNL     1      21.033  51.112  48.480  1.00  0.00     0.011 A 
ENDBRANCH   6  14
ENDBRANCH   5   6
ENDBRANCH   2   5
BRANCH   1  21
HETATM   21  N   UNL     1      24.643  46.510  50.717  1.00  0.00    -0.266 N 
HETATM   22  C   UNL     1      25.287  46.541  51.946  1.00  0.00     0.260 C 
HETATM   23  O   UNL     1      25.347  47.549  52.653  1.00  0.00    -0.269 OA
HETATM   24  H   UNL     1      24.392  45.610  50.310  1.00  0.00     0.190 HD
BRANCH  22  25
HETATM   25  C   UNL     1      25.864  45.188  52.356  1.00  0.00     0.280 C 
BRANCH  25  26
HETATM   26  O   UNL     1      26.773  45.399  53.433  1.00  0.00    -0.342 OA
BRANCH  26  27
HETATM   27  C   UNL     1      27.871  44.592  53.508  1.00  0.00     0.069 A 
HETATM   28  C   UNL     1      28.744  44.487  54.592  1.00  0.00     0.043 A 
HETATM   29  C   UNL     1      29.827  43.593  54.547  1.00  0.00    -0.059 A 
HETATM   30  C   UNL     1      30.741  43.434  55.726  1.00  0.00     0.048 C 
HETATM   31  C   UNL     1      30.015  42.796  53.410  1.00  0.00     0.007 A 
HETATM   32  C   UNL     1      29.146  42.899  52.327  1.00  0.00     0.003 A 
HETATM   33  C   UNL     1      28.076  43.792  52.381  1.00  0.00     0.037 A 
ENDBRANCH  26  27
ENDBRANCH  25  26
ENDBRANCH  22  25
ENDBRANCH   1  21
TORSDOF 8
ENDMDL
MODEL 4
REMARK VINA RESULT:      -8.7      4.267     11.004
REMARK  8 active torsions:
REMARK  status: ('A' for Active; 'I' for Inactive)
REMARK    1  A    between atoms: C_4  and  O_5 
REMARK    2  A    between atoms: O_5  and  C_6 
REMARK    3  A    between atoms: C_6  and  C_7 
REMARK       I    between atoms: C_7  and  N_8 
REMARK    4  A    between atoms: N_8  and  N_9 
REMARK       I    between atoms: N_9  and  C_10 
REMARK    5  A    between atoms: C_10  and  C_11 
REMARK    6  A    between atoms: C_11  and  C_12 
REMARK    7  A    between atoms: C_12  and  N_13 
REMARK    8  A    between atoms: C_12  and  C_17 
REMARK       I    between atoms: N_13  and  C_14 
REMARK       I    between atoms: C_14  and  N_15 
ROOT
HETATM    1  N   UNL     1      23.685  47.879  49.580  1.00  0.00    -0.267 N 
HETATM    2  C   UNL     1      22.456  47.965  48.944  1.00  0.00     0.238 C 
HETATM    3  O   UNL     1      21.770  46.987  48.657  1.00  0.00    -0.272 OA
HETATM    4  H   UNL     1      24.086  48.714  50.002  1.00  0.00     0.190 HD
ENDROOT
BRANCH   2   5
HETATM    5  C   UNL     1      22.033  49.386  48.658  1.00  0.00     0.134 C 
BRANCH   5   6
HETATM    6  C   UNL     1      20.554  49.647  48.996  1.00  0.00     0.130 C 
BRANCH   6   7
HETATM    7  N   UNL     1      20.017  48.693  49.969  1.00  0.00    -0.334 N 
HETATM    8  C   UNL     1      18.996  49.033  50.803  1.00  0.00     0.314 C 
HETATM    9  N   UNL     1      18.719  48.059  51.701  1.00  0.00    -0.352 N 
HETATM   10  O   UNL     1      18.416  50.106  50.813  1.00  0.00    -0.248 OA
HETATM   11  H   UNL     1      18.877  47.102  51.416  1.00  0.00     0.160 HD
HETATM   12  H   UNL     1      17.882  48.220  52.248  1.00  0.00     0.160 HD
HETATM   13  H   UNL     1      20.640  47.976  50.337  1.00  0.00     0.165 HD
ENDBRANCH   6   7
BRANCH   6  14
HETATM   14  C   UNL     1      19.680  49.796  47.755  1.00  0.00    -0.013 A 
HETATM   15  C   UNL     1      19.068  51.027  47.436  1.00  0.00     0.042 A 
HETATM   16 CL   UNL     1      19.275  52.444  48.410  1.00  0.00    -0.084 Cl
HETATM   17  C   UNL     1      18.258  51.160  46.303  1.00  0.00     0.024 A 
HETATM   18  C   UNL     1      18.042  50.073  45.462  1.00  0.00     0.002 A 
HETATM   19  C   UNL     1      18.646  48.854  45.748  1.00  0.00     0.001 A 
HETATM   20  C   UNL     1      19.461  48.718  46.875  1.00  0.00     0.011 A 
ENDBRANCH   6  14
ENDBRANCH   5   6
ENDBRANCH   2   5
BRANCH   1  21
HETATM   21  N   UNL     1      24.012  46.672  50.204  1.00  0.00    -0.266 N 
HETATM   22  C   UNL     1      24.964  46.682  51.213  1.00  0.00     0.260 C 
HETATM   23  O   UNL     1      25.651  47.670  51.485  1.00  0.00    -0.269 OA
HETATM   24  H   UNL     1      23.301  45.942  50.199  1.00  0.00     0.190 HD
BRANCH  22  25
HETATM   25  C   UNL     1      25.036  45.368  51.986  1.00  0.00     0.280 C 
BRANCH  25  26
HETATM   26  O   UNL     1      25.921  45.547  53.089  1.00  0.00    -0.342 OA
BRANCH  26  27
HETATM   27  C   UNL     1      27.057  44.790  53.122  1.00  0.00     0.069 A 
HETATM   28  C   UNL     1      27.983  44.741  54.165  1.00  0.00     0.043 A 
HETATM   29  C   UNL     1      29.103  43.897  54.082  1.00  0.00    -0.059 A 
HETATM   30  C   UNL     1      30.077  43.797  55.218  1.00  0.00     0.048 C 
HETATM   31  C   UNL     1      29.274  43.092  52.948  1.00  0.00     0.007 A 
HETATM   32  C   UNL     1      28.353  43.140  51.905  1.00  0.00     0.003 A 
HETATM   33  C   UNL     1      27.246  43.984  51.997  1.00  0.00     0.037 A 
ENDBRANCH  26  27
ENDBRANCH  25  26
ENDBRANCH  22  25
ENDBRANCH   1  21
TORSDOF 8
ENDMDL
MODEL 5
REMARK VINA RESULT:      -8.6      3.726     10.174
REMARK  8 active torsions:
REMARK  status: ('A' for Active; 'I' for Inactive)
REMARK    1  A    between atoms: C_4  and  O_5 
REMARK    2  A    between atoms: O_5  and  C_6 
REMARK    3  A    between atoms: C_6  and  C_7 
REMARK       I    between atoms: C_7  and  N_8 
REMARK    4  A    between atoms: N_8  and  N_9 
REMARK       I    between atoms: N_9  and  C_10 
REMARK    5  A    between atoms: C_10  and  C_11 
REMARK    6  A    between atoms: C_11  and  C_12 
REMARK    7  A    between atoms: C_12  and  N_13 
REMARK    8  A    between atoms: C_12  and  C_17 
REMARK       I    between atoms: N_13  and  C_14 
REMARK       I    between atoms: C_14  and  N_15 
ROOT
HETATM    1  N   UNL     1      23.573  46.698  49.870  1.00  0.00    -0.267 N 
HETATM    2  C   UNL     1      23.438  47.956  49.304  1.00  0.00     0.238 C 
HETATM    3  O   UNL     1      24.138  48.917  49.611  1.00  0.00    -0.272 OA
HETATM    4  H   UNL     1      23.139  45.897  49.413  1.00  0.00     0.190 HD
ENDROOT
BRANCH   2   5
HETATM    5  C   UNL     1      22.354  48.022  48.254  1.00  0.00     0.134 C 
BRANCH   5   6
HETATM    6  C   UNL     1      20.938  47.985  48.858  1.00  0.00     0.130 C 
BRANCH   6   7
HETATM    7  N   UNL     1      20.050  47.045  48.170  1.00  0.00    -0.334 N 
HETATM    8  C   UNL     1      20.129  45.705  48.395  1.00  0.00     0.314 C 
HETATM    9  N   UNL     1      19.308  44.998  47.584  1.00  0.00    -0.352 N 
HETATM   10  O   UNL     1      20.887  45.162  49.182  1.00  0.00    -0.248 OA
HETATM   11  H   UNL     1      18.447  45.438  47.292  1.00  0.00     0.160 HD
HETATM   12  H   UNL     1      19.240  44.014  47.813  1.00  0.00     0.160 HD
HETATM   13  H   UNL     1      19.703  47.298  47.246  1.00  0.00     0.165 HD
ENDBRANCH   6   7
BRANCH   6  14
HETATM   14  C   UNL     1      20.329  49.374  49.025  1.00  0.00    -0.013 A 
HETATM   15  C   UNL     1      19.295  49.611  49.956  1.00  0.00     0.042 A 
HETATM   16 CL   UNL     1      18.660  48.363  50.974  1.00  0.00    -0.084 Cl
HETATM   17  C   UNL     1      18.730  50.883  50.100  1.00  0.00     0.024 A 
HETATM   18  C   UNL     1      19.183  51.946  49.325  1.00  0.00     0.002 A 
HETATM   19  C   UNL     1      20.211  51.740  48.412  1.00  0.00     0.001 A 
HETATM   20  C   UNL     1      20.783  50.472  48.269  1.00  0.00     0.011 A 
ENDBRANCH   6  14
ENDBRANCH   5   6
ENDBRANCH   2   5
BRANCH   1  21
HETATM   21  N   UNL     1      24.748  46.424  50.575  1.00  0.00    -0.266 N 
HETATM   22  C   UNL     1      24.855  45.212  51.243  1.00  0.00     0.260 C 
HETATM   23  O   UNL     1      23.912  44.428  51.377  1.00  0.00    -0.269 OA
HETATM   24  H   UNL     1      25.595  46.895  50.262  1.00  0.00     0.190 HD
BRANCH  22  25
HETATM   25  C   UNL     1      26.268  44.925  51.744  1.00  0.00     0.280 C 
BRANCH  25  26
HETATM   26  O   UNL     1      26.185  44.529  53.110  1.00  0.00    -0.342 OA
BRANCH  26  27
HETATM   27  C   UNL     1      27.242  44.820  53.923  1.00  0.00     0.069 A 
HETATM   28  C   UNL     1      28.315  43.976  54.213  1.00  0.00     0.043 A 
HETATM   29  C   UNL     1      29.355  44.413  55.051  1.00  0.00    -0.059 A 
HETATM   30  C   UNL     1      30.539  43.534  55.328  1.00  0.00     0.048 C 
HETATM   31  C   UNL     1      29.314  45.709  55.581  1.00  0.00     0.007 A 
HETATM   32  C   UNL     1      28.244  46.553  55.293  1.00  0.00     0.003 A 
HETATM   33  C   UNL     1      27.215  46.109  54.463  1.00  0.00     0.037 A 
ENDBRANCH  26  27
ENDBRANCH  25  26
ENDBRANCH  22  25
ENDBRANCH   1  21
TORSDOF 8
ENDMDL
MODEL 6
REMARK VINA RESULT:      -8.6      1.846      2.585
REMARK  8 active torsions:
REMARK  status: ('A' for Active; 'I' for Inactive)
REMARK    1  A    between atoms: C_4  and  O_5 
REMARK    2  A    between atoms: O_5  and  C_6 
REMARK    3  A    between atoms: C_6  and  C_7 
REMARK       I    between atoms: C_7  and  N_8 
REMARK    4  A    between atoms: N_8  and  N_9 
REMARK       I    between atoms: N_9  and  C_10 
REMARK    5  A    between atoms: C_10  and  C_11 
REMARK    6  A    between atoms: C_11  and  C_12 
REMARK    7  A    between atoms: C_12  and  N_13 
REMARK    8  A    between atoms: C_12  and  C_17 
REMARK       I    between atoms: N_13  and  C_14 
REMARK       I    between atoms: C_14  and  N_15 
ROOT
HETATM    1  N   UNL     1      24.978  46.332  51.183  1.00  0.00    -0.267 N 
HETATM    2  C   UNL     1      25.454  46.496  52.474  1.00  0.00     0.238 C 
HETATM    3  O   UNL     1      25.726  47.589  52.964  1.00  0.00    -0.272 OA
HETATM    4  H   UNL     1      24.549  45.446  50.920  1.00  0.00     0.190 HD
ENDROOT
BRANCH   2   5
HETATM    5  C   UNL     1      25.586  45.194  53.230  1.00  0.00     0.134 C 
BRANCH   5   6
HETATM    6  C   UNL     1      26.849  44.405  52.839  1.00  0.00     0.130 C 
BRANCH   6   7
HETATM    7  N   UNL     1      26.558  43.022  52.452  1.00  0.00    -0.334 N 
HETATM    8  C   UNL     1      26.097  42.718  51.208  1.00  0.00     0.314 C 
HETATM    9  N   UNL     1      25.781  41.408  51.082  1.00  0.00    -0.352 N 
HETATM   10  O   UNL     1      25.915  43.518  50.305  1.00  0.00    -0.248 OA
HETATM   11  H   UNL     1      26.313  40.745  51.630  1.00  0.00     0.160 HD
HETATM   12  H   UNL     1      25.564  41.119  50.137  1.00  0.00     0.160 HD
HETATM   13  H   UNL     1      26.272  42.368  53.179  1.00  0.00     0.165 HD
ENDBRANCH   6   7
BRANCH   6  14
HETATM   14  C   UNL     1      27.962  44.518  53.875  1.00  0.00    -0.013 A 
HETATM   15  C   UNL     1      29.138  43.745  53.770  1.00  0.00     0.042 A 
HETATM   16 CL   UNL     1      29.407  42.638  52.466  1.00  0.00    -0.084 Cl
HETATM   17  C   UNL     1      30.154  43.842  54.728  1.00  0.00     0.024 A 
HETATM   18  C   UNL     1      30.024  44.710  55.806  1.00  0.00     0.002 A 
HETATM   19  C   UNL     1      28.881  45.493  55.922  1.00  0.00     0.001 A 
HETATM   20  C   UNL     1      27.865  45.404  54.965  1.00  0.00     0.011 A 
ENDBRANCH   6  14
ENDBRANCH   5   6
ENDBRANCH   2   5
BRANCH   1  21
HETATM   21  N   UNL     1      24.485  47.460  50.522  1.00  0.00    -0.266 N 
HETATM   22  C   UNL     1      25.303  48.104  49.605  1.00  0.00     0.260 C 
HETATM   23  O   UNL     1      26.495  47.830  49.453  1.00  0.00    -0.269 OA
HETATM   24  H   UNL     1      23.473  47.530  50.421  1.00  0.00     0.190 HD
BRANCH  22  25
HETATM   25  C   UNL     1      24.564  49.145  48.768  1.00  0.00     0.280 C 
BRANCH  25  26
HETATM   26  O   UNL     1      23.505  49.681  49.557  1.00  0.00    -0.342 OA
BRANCH  26  27
HETATM   27  C   UNL     1      22.296  49.873  48.953  1.00  0.00     0.069 A 
HETATM   28  C   UNL     1      21.497  51.013  49.054  1.00  0.00     0.043 A 
HETATM   29  C   UNL     1      20.279  51.091  48.358  1.00  0.00    -0.059 A 
HETATM   30  C   UNL     1      19.437  52.331  48.417  1.00  0.00     0.048 C 
HETATM   31  C   UNL     1      19.880  50.019  47.548  1.00  0.00     0.007 A 
HETATM   32  C   UNL     1      20.675  48.880  47.446  1.00  0.00     0.003 A 
HETATM   33  C   UNL     1      21.880  48.812  48.145  1.00  0.00     0.037 A 
ENDBRANCH  26  27
ENDBRANCH  25  26
ENDBRANCH  22  25
ENDBRANCH   1  21
TORSDOF 8
ENDMDL
MODEL 7
REMARK VINA RESULT:      -8.4      4.670     11.063
REMARK  8 active torsions:
REMARK  status: ('A' for Active; 'I' for Inactive)
REMARK    1  A    between atoms: C_4  and  O_5 
REMARK    2  A    between atoms: O_5  and  C_6 
REMARK    3  A    between atoms: C_6  and  C_7 
REMARK       I    between atoms: C_7  and  N_8 
REMARK    4  A    between atoms: N_8  and  N_9 
REMARK       I    between atoms: N_9  and  C_10 
REMARK    5  A    between atoms: C_10  and  C_11 
REMARK    6  A    between atoms: C_11  and  C_12 
REMARK    7  A    between atoms: C_12  and  N_13 
REMARK    8  A    between atoms: C_12  and  C_17 
REMARK       I    between atoms: N_13  and  C_14 
REMARK       I    between atoms: C_14  and  N_15 
ROOT
HETATM    1  N   UNL     1      21.620  47.291  49.101  1.00  0.00    -0.267 N 
HETATM    2  C   UNL     1      21.044  47.117  47.853  1.00  0.00     0.238 C 
HETATM    3  O   UNL     1      21.693  46.971  46.820  1.00  0.00    -0.272 OA
HETATM    4  H   UNL     1      21.049  47.165  49.935  1.00  0.00     0.190 HD
ENDROOT
BRANCH   2   5
HETATM    5  C   UNL     1      19.535  47.105  47.891  1.00  0.00     0.134 C 
BRANCH   5   6
HETATM    6  C   UNL     1      18.953  48.211  48.790  1.00  0.00     0.130 C 
BRANCH   6   7
HETATM    7  N   UNL     1      18.738  47.769  50.169  1.00  0.00    -0.334 N 
HETATM    8  C   UNL     1      18.685  48.660  51.197  1.00  0.00     0.314 C 
HETATM    9  N   UNL     1      18.594  48.051  52.402  1.00  0.00    -0.352 N 
HETATM   10  O   UNL     1      18.773  49.873  51.090  1.00  0.00    -0.248 OA
HETATM   11  H   UNL     1      18.111  47.164  52.442  1.00  0.00     0.160 HD
HETATM   12  H   UNL     1      18.419  48.680  53.176  1.00  0.00     0.160 HD
HETATM   13  H   UNL     1      19.059  46.839  50.434  1.00  0.00     0.165 HD
ENDBRANCH   6   7
BRANCH   6  14
HETATM   14  C   UNL     1      17.730  48.889  48.178  1.00  0.00    -0.013 A 
HETATM   15  C   UNL     1      17.807  50.198  47.655  1.00  0.00     0.042 A 
HETATM   16 CL   UNL     1      19.277  51.112  47.655  1.00  0.00    -0.084 Cl
HETATM   17  C   UNL     1      16.683  50.823  47.104  1.00  0.00     0.024 A 
HETATM   18  C   UNL     1      15.461  50.159  47.059  1.00  0.00     0.002 A 
HETATM   19  C   UNL     1      15.365  48.863  47.554  1.00  0.00     0.001 A 
HETATM   20  C   UNL     1      16.487  48.233  48.100  1.00  0.00     0.011 A 
ENDBRANCH   6  14
ENDBRANCH   5   6
ENDBRANCH   2   5
BRANCH   1  21
HETATM   21  N   UNL     1      22.973  46.969  49.246  1.00  0.00    -0.266 N 
HETATM   22  C   UNL     1      23.849  47.956  49.673  1.00  0.00     0.260 C 
HETATM   23  O   UNL     1      23.530  49.142  49.785  1.00  0.00    -0.269 OA
HETATM   24  H   UNL     1      23.198  45.992  49.427  1.00  0.00     0.190 HD
BRANCH  22  25
HETATM   25  C   UNL     1      25.229  47.416  50.042  1.00  0.00     0.280 C 
BRANCH  25  26
HETATM   26  O   UNL     1      25.510  47.794  51.387  1.00  0.00    -0.342 OA
BRANCH  26  27
HETATM   27  C   UNL     1      25.983  46.833  52.233  1.00  0.00     0.069 A 
HETATM   28  C   UNL     1      26.358  45.536  51.877  1.00  0.00     0.043 A 
HETATM   29  C   UNL     1      26.855  44.650  52.847  1.00  0.00    -0.059 A 
HETATM   30  C   UNL     1      27.310  43.271  52.468  1.00  0.00     0.048 C 
HETATM   31  C   UNL     1      26.985  45.083  54.173  1.00  0.00     0.007 A 
HETATM   32  C   UNL     1      26.611  46.376  54.530  1.00  0.00     0.003 A 
HETATM   33  C   UNL     1      26.116  47.247  53.560  1.00  0.00     0.037 A 
ENDBRANCH  26  27
ENDBRANCH  25  26
ENDBRANCH  22  25
ENDBRANCH   1  21
TORSDOF 8
ENDMDL
MODEL 8
REMARK VINA RESULT:      -8.3      2.688      4.324
REMARK  8 active torsions:
REMARK  status: ('A' for Active; 'I' for Inactive)
REMARK    1  A    between atoms: C_4  and  O_5 
REMARK    2  A    between atoms: O_5  and  C_6 
REMARK    3  A    between atoms: C_6  and  C_7 
REMARK       I    between atoms: C_7  and  N_8 
REMARK    4  A    between atoms: N_8  and  N_9 
REMARK       I    between atoms: N_9  and  C_10 
REMARK    5  A    between atoms: C_10  and  C_11 
REMARK    6  A    between atoms: C_11  and  C_12 
REMARK    7  A    between atoms: C_12  and  N_13 
REMARK    8  A    between atoms: C_12  and  C_17 
REMARK       I    between atoms: N_13  and  C_14 
REMARK       I    between atoms: C_14  and  N_15 
ROOT
HETATM    1  N   UNL     1      23.509  44.888  50.422  1.00  0.00    -0.267 N 
HETATM    2  C   UNL     1      24.737  44.288  50.194  1.00  0.00     0.238 C 
HETATM    3  O   UNL     1      25.246  44.184  49.081  1.00  0.00    -0.272 OA
HETATM    4  H   UNL     1      23.254  45.157  51.371  1.00  0.00     0.190 HD
ENDROOT
BRANCH   2   5
HETATM    5  C   UNL     1      25.399  43.791  51.458  1.00  0.00     0.134 C 
BRANCH   5   6
HETATM    6  C   UNL     1      26.346  44.831  52.083  1.00  0.00     0.130 C 
BRANCH   6   7
HETATM    7  N   UNL     1      26.663  45.932  51.170  1.00  0.00    -0.334 N 
HETATM    8  C   UNL     1      26.121  47.169  51.339  1.00  0.00     0.314 C 
HETATM    9  N   UNL     1      26.444  48.015  50.333  1.00  0.00    -0.352 N 
HETATM   10  O   UNL     1      25.373  47.498  52.246  1.00  0.00    -0.248 OA
HETATM   11  H   UNL     1      27.339  47.883  49.882  1.00  0.00     0.160 HD
HETATM   12  H   UNL     1      26.172  48.977  50.492  1.00  0.00     0.160 HD
HETATM   13  H   UNL     1      26.903  45.706  50.206  1.00  0.00     0.165 HD
ENDBRANCH   6   7
BRANCH   6  14
HETATM   14  C   UNL     1      27.582  44.202  52.718  1.00  0.00    -0.013 A 
HETATM   15  C   UNL     1      28.060  44.638  53.972  1.00  0.00     0.042 A 
HETATM   16 CL   UNL     1      27.282  45.891  54.877  1.00  0.00    -0.084 Cl
HETATM   17  C   UNL     1      29.200  44.067  54.548  1.00  0.00     0.024 A 
HETATM   18  C   UNL     1      29.886  43.049  53.892  1.00  0.00     0.002 A 
HETATM   19  C   UNL     1      29.424  42.593  52.662  1.00  0.00     0.001 A 
HETATM   20  C   UNL     1      28.282  43.157  52.085  1.00  0.00     0.011 A 
ENDBRANCH   6  14
ENDBRANCH   5   6
ENDBRANCH   2   5
BRANCH   1  21
HETATM   21  N   UNL     1      22.976  45.687  49.406  1.00  0.00    -0.266 N 
HETATM   22  C   UNL     1      21.843  45.246  48.738  1.00  0.00     0.260 C 
HETATM   23  O   UNL     1      21.369  44.117  48.883  1.00  0.00    -0.269 OA
HETATM   24  H   UNL     1      23.164  46.687  49.460  1.00  0.00     0.190 HD
BRANCH  22  25
HETATM   25  C   UNL     1      21.214  46.316  47.850  1.00  0.00     0.280 C 
BRANCH  25  26
HETATM   26  O   UNL     1      20.352  47.115  48.656  1.00  0.00    -0.342 OA
BRANCH  26  27
HETATM   27  C   UNL     1      20.522  48.469  48.622  1.00  0.00     0.069 A 
HETATM   28  C   UNL     1      19.683  49.419  49.206  1.00  0.00     0.043 A 
HETATM   29  C   UNL     1      19.989  50.787  49.116  1.00  0.00    -0.059 A 
HETATM   30  C   UNL     1      19.123  51.814  49.784  1.00  0.00     0.048 C 
HETATM   31  C   UNL     1      21.153  51.189  48.448  1.00  0.00     0.007 A 
HETATM   32  C   UNL     1      21.992  50.244  47.864  1.00  0.00     0.003 A 
HETATM   33  C   UNL     1      21.677  48.888  47.956  1.00  0.00     0.037 A 
ENDBRANCH  26  27
ENDBRANCH  25  26
ENDBRANCH  22  25
ENDBRANCH   1  21
TORSDOF 8
ENDMDL
MODEL 9
REMARK VINA RESULT:      -8.1      4.603      7.127
REMARK  8 active torsions:
REMARK  status: ('A' for Active; 'I' for Inactive)
REMARK    1  A    between atoms: C_4  and  O_5 
REMARK    2  A    between atoms: O_5  and  C_6 
REMARK    3  A    between atoms: C_6  and  C_7 
REMARK       I    between atoms: C_7  and  N_8 
REMARK    4  A    between atoms: N_8  and  N_9 
REMARK       I    between atoms: N_9  and  C_10 
REMARK    5  A    between atoms: C_10  and  C_11 
REMARK    6  A    between atoms: C_11  and  C_12 
REMARK    7  A    between atoms: C_12  and  N_13 
REMARK    8  A    between atoms: C_12  and  C_17 
REMARK       I    between atoms: N_13  and  C_14 
REMARK       I    between atoms: C_14  and  N_15 
ROOT
HETATM    1  N   UNL     1      26.201  44.239  51.404  1.00  0.00    -0.267 N 
HETATM    2  C   UNL     1      25.880  44.448  52.736  1.00  0.00     0.238 C 
HETATM    3  O   UNL     1      24.852  44.029  53.260  1.00  0.00    -0.272 OA
HETATM    4  H   UNL     1      27.159  44.396  51.092  1.00  0.00     0.190 HD
ENDROOT
BRANCH   2   5
HETATM    5  C   UNL     1      26.934  45.228  53.486  1.00  0.00     0.134 C 
BRANCH   5   6
HETATM    6  C   UNL     1      28.083  44.338  53.995  1.00  0.00     0.130 C 
BRANCH   6   7
HETATM    7  N   UNL     1      27.700  42.930  54.119  1.00  0.00    -0.334 N 
HETATM    8  C   UNL     1      28.030  42.021  53.161  1.00  0.00     0.314 C 
HETATM    9  N   UNL     1      27.490  40.803  53.400  1.00  0.00    -0.352 N 
HETATM   10  O   UNL     1      28.680  42.255  52.155  1.00  0.00    -0.248 OA
HETATM   11  H   UNL     1      27.354  40.533  54.364  1.00  0.00     0.160 HD
HETATM   12  H   UNL     1      27.822  40.071  52.784  1.00  0.00     0.160 HD
HETATM   13  H   UNL     1      26.855  42.704  54.641  1.00  0.00     0.165 HD
ENDBRANCH   6   7
BRANCH   6  14
HETATM   14  C   UNL     1      28.749  44.892  55.251  1.00  0.00    -0.013 A 
HETATM   15  C   UNL     1      30.019  44.436  55.666  1.00  0.00     0.042 A 
HETATM   16 CL   UNL     1      30.908  43.240  54.783  1.00  0.00    -0.084 Cl
HETATM   17  C   UNL     1      30.624  44.937  56.824  1.00  0.00     0.024 A 
HETATM   18  C   UNL     1      29.982  45.903  57.591  1.00  0.00     0.002 A 
HETATM   19  C   UNL     1      28.738  46.379  57.193  1.00  0.00     0.001 A 
HETATM   20  C   UNL     1      28.131  45.886  56.034  1.00  0.00     0.011 A 
ENDBRANCH   6  14
ENDBRANCH   5   6
ENDBRANCH   2   5
BRANCH   1  21
HETATM   21  N   UNL     1      25.497  43.250  50.712  1.00  0.00    -0.266 N 
HETATM   22  C   UNL     1      26.105  42.640  49.623  1.00  0.00     0.260 C 
HETATM   23  O   UNL     1      27.169  43.029  49.137  1.00  0.00    -0.269 OA
HETATM   24  H   UNL     1      24.783  42.742  51.232  1.00  0.00     0.190 HD
BRANCH  22  25
HETATM   25  C   UNL     1      25.351  41.410  49.126  1.00  0.00     0.280 C 
BRANCH  25  26
HETATM   26  O   UNL     1      25.814  40.277  49.858  1.00  0.00    -0.342 OA
BRANCH  26  27
HETATM   27  C   UNL     1      26.789  39.509  49.291  1.00  0.00     0.069 A 
HETATM   28  C   UNL     1      26.671  38.763  48.117  1.00  0.00     0.043 A 
HETATM   29  C   UNL     1      27.766  38.032  47.627  1.00  0.00    -0.059 A 
HETATM   30  C   UNL     1      27.667  37.268  46.340  1.00  0.00     0.048 C 
HETATM   31  C   UNL     1      28.984  38.069  48.320  1.00  0.00     0.007 A 
HETATM   32  C   UNL     1      29.104  38.812  49.491  1.00  0.00     0.003 A 
HETATM   33  C   UNL     1      28.009  39.532  49.971  1.00  0.00     0.037 A 
ENDBRANCH  26  27
ENDBRANCH  25  26
ENDBRANCH  22  25
ENDBRANCH   1  21
TORSDOF 8
ENDMDL
MODEL 10
REMARK VINA RESULT:      -8.1      3.354      4.462
REMARK  8 active torsions:
REMARK  status: ('A' for Active; 'I' for Inactive)
REMARK    1  A    between atoms: C_4  and  O_5 
REMARK    2  A    between atoms: O_5  and  C_6 
REMARK    3  A    between atoms: C_6  and  C_7 
REMARK       I    between atoms: C_7  and  N_8 
REMARK    4  A    between atoms: N_8  and  N_9 
REMARK       I    between atoms: N_9  and  C_10 
REMARK    5  A    between atoms: C_10  and  C_11 
REMARK    6  A    between atoms: C_11  and  C_12 
REMARK    7  A    between atoms: C_12  and  N_13 
REMARK    8  A    between atoms: C_12  and  C_17 
REMARK       I    between atoms: N_13  and  C_14 
REMARK       I    between atoms: C_14  and  N_15 
ROOT
HETATM    1  N   UNL     1      25.613  48.138  49.252  1.00  0.00    -0.267 N 
HETATM    2  C   UNL     1      25.630  47.359  50.399  1.00  0.00     0.238 C 
HETATM    3  O   UNL     1      24.983  47.623  51.409  1.00  0.00    -0.272 OA
HETATM    4  H   UNL     1      25.969  47.749  48.381  1.00  0.00     0.190 HD
ENDROOT
BRANCH   2   5
HETATM    5  C   UNL     1      26.510  46.138  50.275  1.00  0.00     0.134 C 
BRANCH   5   6
HETATM    6  C   UNL     1      25.787  44.839  50.676  1.00  0.00     0.130 C 
BRANCH   6   7
HETATM    7  N   UNL     1      24.329  44.974  50.664  1.00  0.00    -0.334 N 
HETATM    8  C   UNL     1      23.531  43.972  50.202  1.00  0.00     0.314 C 
HETATM    9  N   UNL     1      22.226  44.329  50.167  1.00  0.00    -0.352 N 
HETATM   10  O   UNL     1      23.916  42.888  49.797  1.00  0.00    -0.248 OA
HETATM   11  H   UNL     1      21.903  44.990  50.861  1.00  0.00     0.160 HD
HETATM   12  H   UNL     1      21.590  43.570  49.957  1.00  0.00     0.160 HD
HETATM   13  H   UNL     1      23.931  45.907  50.572  1.00  0.00     0.165 HD
ENDBRANCH   6   7
BRANCH   6  14
HETATM   14  C   UNL     1      26.325  44.238  51.971  1.00  0.00    -0.013 A 
HETATM   15  C   UNL     1      27.063  43.036  51.966  1.00  0.00     0.042 A 
HETATM   16 CL   UNL     1      27.422  42.173  50.508  1.00  0.00    -0.084 Cl
HETATM   17  C   UNL     1      27.547  42.480  53.156  1.00  0.00     0.024 A 
HETATM   18  C   UNL     1      27.309  43.109  54.374  1.00  0.00     0.002 A 
HETATM   19  C   UNL     1      26.598  44.303  54.402  1.00  0.00     0.001 A 
HETATM   20  C   UNL     1      26.118  44.865  53.215  1.00  0.00     0.011 A 
ENDBRANCH   6  14
ENDBRANCH   5   6
ENDBRANCH   2   5
BRANCH   1  21
HETATM   21  N   UNL     1      24.584  49.075  49.117  1.00  0.00    -0.266 N 
HETATM   22  C   UNL     1      24.674  50.018  48.102  1.00  0.00     0.260 C 
HETATM   23  O   UNL     1      25.683  50.173  47.411  1.00  0.00    -0.269 OA
HETATM   24  H   UNL     1      23.666  48.806  49.466  1.00  0.00     0.190 HD
BRANCH  22  25
HETATM   25  C   UNL     1      23.381  50.801  47.895  1.00  0.00     0.280 C 
BRANCH  25  26
HETATM   26  O   UNL     1      22.314  49.869  47.744  1.00  0.00    -0.342 OA
BRANCH  26  27
HETATM   27  C   UNL     1      21.038  50.355  47.751  1.00  0.00     0.069 A 
HETATM   28  C   UNL     1      19.944  49.805  47.081  1.00  0.00     0.043 A 
HETATM   29  C   UNL     1      18.674  50.394  47.193  1.00  0.00    -0.059 A 
HETATM   30  C   UNL     1      17.481  49.782  46.519  1.00  0.00     0.048 C 
HETATM   31  C   UNL     1      18.511  51.531  47.995  1.00  0.00     0.007 A 
HETATM   32  C   UNL     1      19.600  52.082  48.664  1.00  0.00     0.003 A 
HETATM   33  C   UNL     1      20.858  51.491  48.543  1.00  0.00     0.037 A 
ENDBRANCH  26  27
ENDBRANCH  25  26
ENDBRANCH  22  25
ENDBRANCH   1  21
TORSDOF 8
ENDMDL
