MODEL 1
REMARK VINA RESULT:     -10.2      0.000      0.000
REMARK  4 active torsions:
REMARK  status: ('A' for Active; 'I' for Inactive)
REMARK    1  A    between atoms: C_4  and  O_5 
REMARK    2  A    between atoms: C_6  and  N_7 
REMARK       I    between atoms: N_7  and  C_8 
REMARK    3  A    between atoms: C_8  and  C_9 
REMARK    4  A    between atoms: C_9  and  N_10 
ROOT
HETATM    1  N   UNL     1      25.367  45.513  51.520  1.00  0.00    -0.259 N 
HETATM    2  C   UNL     1      25.699  45.001  50.302  1.00  0.00     0.326 C 
HETATM    3  O   UNL     1      25.878  43.831  50.011  1.00  0.00    -0.247 OA
HETATM    4  N   UNL     1      25.845  46.042  49.416  1.00  0.00    -0.320 N 
HETATM    5  C   UNL     1      25.797  47.314  50.083  1.00  0.00     0.144 C 
HETATM    6  C   UNL     1      25.020  48.348  49.332  1.00  0.00    -0.014 A 
HETATM    7  C   UNL     1      25.896  49.266  48.731  1.00  0.00    -0.049 A 
HETATM    8  C   UNL     1      25.426  50.300  47.941  1.00  0.00     0.007 A 
HETATM    9  C   UNL     1      24.048  50.416  47.756  1.00  0.00     0.001 A 
HETATM   10  C   UNL     1      23.169  49.497  48.348  1.00  0.00     0.001 A 
HETATM   11  C   UNL     1      23.652  48.449  49.137  1.00  0.00     0.011 A 
HETATM   12  C   UNL     1      27.326  48.922  49.013  1.00  0.00     0.042 C 
HETATM   13  C   UNL     1      27.189  47.966  50.207  1.00  0.00     0.051 C 
HETATM   14  C   UNL     1      25.293  46.878  51.460  1.00  0.00     0.261 C 
HETATM   15  O   UNL     1      24.937  47.593  52.389  1.00  0.00    -0.270 OA
HETATM   16  H   UNL     1      26.137  45.886  48.460  1.00  0.00     0.165 HD
ENDROOT
BRANCH   1  17
HETATM   17  C   UNL     1      25.279  44.735  52.735  1.00  0.00     0.240 C 
BRANCH  17  18
HETATM   18  C   UNL     1      26.342  45.075  53.776  1.00  0.00     0.240 C 
HETATM   19  N   UNL     1      27.596  44.576  53.492  1.00  0.00    -0.323 N 
HETATM   20  H   UNL     1      27.755  44.273  52.530  1.00  0.00     0.169 HD
HETATM   21  O   UNL     1      26.044  45.665  54.812  1.00  0.00    -0.271 OA
BRANCH  19  22
HETATM   22  C   UNL     1      28.708  44.438  54.363  1.00  0.00     0.068 A 
HETATM   23  C   UNL     1      29.236  45.419  55.217  1.00  0.00     0.092 A 
HETATM   24  C   UNL     1      30.286  45.119  56.093  1.00  0.00     0.045 A 
HETATM   25  C   UNL     1      30.846  43.841  56.136  1.00  0.00    -0.059 A 
HETATM   26  C   UNL     1      31.996  43.551  57.054  1.00  0.00     0.048 C 
HETATM   27  C   UNL     1      30.347  42.864  55.273  1.00  0.00     0.009 A 
HETATM   28  C   UNL     1      29.281  43.156  54.412  1.00  0.00     0.033 A 
BRANCH  23  29
HETATM   29  O   UNL     1      28.778  46.701  55.329  1.00  0.00    -0.358 OA
HETATM   30  H   UNL     1      28.044  46.820  54.692  1.00  0.00     0.218 HD
ENDBRANCH  23  29
ENDBRANCH  19  22
ENDBRANCH  17  18
ENDBRANCH   1  17
TORSDOF 4
ENDMDL
MODEL 2
REMARK VINA RESULT:     -10.1      1.325      2.437
REMARK  4 active torsions:
REMARK  status: ('A' for Active; 'I' for Inactive)
REMARK    1  A    between atoms: C_4  and  O_5 
REMARK    2  A    between atoms: C_6  and  N_7 
REMARK       I    between atoms: N_7  and  C_8 
REMARK    3  A    between atoms: C_8  and  C_9 
REMARK    4  A    between atoms: C_9  and  N_10 
ROOT
HETATM    1  N   UNL     1      26.368  45.006  51.450  1.00  0.00    -0.259 N 
HETATM    2  C   UNL     1      25.867  45.865  52.381  1.00  0.00     0.326 C 
HETATM    3  O   UNL     1      25.795  45.698  53.586  1.00  0.00    -0.247 OA
HETATM    4  N   UNL     1      25.400  46.986  51.734  1.00  0.00    -0.320 N 
HETATM    5  C   UNL     1      25.408  46.813  50.307  1.00  0.00     0.144 C 
HETATM    6  C   UNL     1      25.864  48.029  49.566  1.00  0.00    -0.014 A 
HETATM    7  C   UNL     1      24.765  48.671  48.974  1.00  0.00    -0.049 A 
HETATM    8  C   UNL     1      24.916  49.850  48.264  1.00  0.00     0.007 A 
HETATM    9  C   UNL     1      26.197  50.388  48.142  1.00  0.00     0.001 A 
HETATM   10  C   UNL     1      27.298  49.754  48.738  1.00  0.00     0.001 A 
HETATM   11  C   UNL     1      27.135  48.569  49.462  1.00  0.00     0.011 A 
HETATM   12  C   UNL     1      23.485  47.956  49.276  1.00  0.00     0.042 C 
HETATM   13  C   UNL     1      23.995  46.582  49.734  1.00  0.00     0.051 C 
HETATM   14  C   UNL     1      26.240  45.534  50.195  1.00  0.00     0.261 C 
HETATM   15  O   UNL     1      26.677  45.011  49.176  1.00  0.00    -0.270 OA
HETATM   16  H   UNL     1      24.942  47.735  52.236  1.00  0.00     0.165 HD
ENDROOT
BRANCH   1  17
HETATM   17  C   UNL     1      26.810  43.660  51.738  1.00  0.00     0.240 C 
BRANCH  17  18
HETATM   18  C   UNL     1      28.120  43.582  52.515  1.00  0.00     0.240 C 
HETATM   19  N   UNL     1      27.982  43.737  53.879  1.00  0.00    -0.323 N 
HETATM   20  H   UNL     1      27.040  43.623  54.254  1.00  0.00     0.169 HD
HETATM   21  O   UNL     1      29.196  43.484  51.929  1.00  0.00    -0.271 OA
BRANCH  19  22
HETATM   22  C   UNL     1      28.987  44.024  54.839  1.00  0.00     0.068 A 
HETATM   23  C   UNL     1      29.096  45.182  55.625  1.00  0.00     0.092 A 
HETATM   24  C   UNL     1      30.093  45.297  56.601  1.00  0.00     0.045 A 
HETATM   25  C   UNL     1      31.014  44.269  56.815  1.00  0.00    -0.059 A 
HETATM   26  C   UNL     1      32.097  44.428  57.839  1.00  0.00     0.048 C 
HETATM   27  C   UNL     1      30.932  43.123  56.022  1.00  0.00     0.009 A 
HETATM   28  C   UNL     1      29.921  42.998  55.060  1.00  0.00     0.033 A 
BRANCH  23  29
HETATM   29  O   UNL     1      28.256  46.257  55.571  1.00  0.00    -0.358 OA
HETATM   30  H   UNL     1      28.513  46.810  54.805  1.00  0.00     0.218 HD
ENDBRANCH  23  29
ENDBRANCH  19  22
ENDBRANCH  17  18
ENDBRANCH   1  17
TORSDOF 4
ENDMDL
MODEL 3
REMARK VINA RESULT:     -10.0      3.424      9.180
REMARK  4 active torsions:
REMARK  status: ('A' for Active; 'I' for Inactive)
REMARK    1  A    between atoms: C_4  and  O_5 
REMARK    2  A    between atoms: C_6  and  N_7 
REMARK       I    between atoms: N_7  and  C_8 
REMARK    3  A    between atoms: C_8  and  C_9 
REMARK    4  A    between atoms: C_9  and  N_10 
ROOT
HETATM    1  N   UNL     1      25.102  48.761  49.108  1.00  0.00    -0.259 N 
HETATM    2  C   UNL     1      26.449  48.951  49.165  1.00  0.00     0.326 C 
HETATM    3  O   UNL     1      27.101  49.822  48.616  1.00  0.00    -0.247 OA
HETATM    4  N   UNL     1      26.999  47.953  49.936  1.00  0.00    -0.320 N 
HETATM    5  C   UNL     1      26.029  46.945  50.263  1.00  0.00     0.144 C 
HETATM    6  C   UNL     1      26.132  46.460  51.674  1.00  0.00    -0.014 A 
HETATM    7  C   UNL     1      26.720  45.185  51.702  1.00  0.00    -0.049 A 
HETATM    8  C   UNL     1      26.967  44.532  52.897  1.00  0.00     0.007 A 
HETATM    9  C   UNL     1      26.610  45.170  54.085  1.00  0.00     0.001 A 
HETATM   10  C   UNL     1      26.029  46.447  54.063  1.00  0.00     0.001 A 
HETATM   11  C   UNL     1      25.792  47.104  52.852  1.00  0.00     0.011 A 
HETATM   12  C   UNL     1      27.072  44.714  50.325  1.00  0.00     0.042 C 
HETATM   13  C   UNL     1      26.228  45.650  49.449  1.00  0.00     0.051 C 
HETATM   14  C   UNL     1      24.745  47.652  49.826  1.00  0.00     0.261 C 
HETATM   15  O   UNL     1      23.589  47.291  50.012  1.00  0.00    -0.270 OA
HETATM   16  H   UNL     1      27.999  47.878  50.071  1.00  0.00     0.165 HD
ENDROOT
BRANCH   1  17
HETATM   17  C   UNL     1      24.206  49.522  48.267  1.00  0.00     0.240 C 
BRANCH  17  18
HETATM   18  C   UNL     1      23.084  50.228  49.022  1.00  0.00     0.240 C 
HETATM   19  N   UNL     1      21.820  49.760  48.731  1.00  0.00    -0.323 N 
HETATM   20  H   UNL     1      21.769  48.851  48.269  1.00  0.00     0.169 HD
HETATM   21  O   UNL     1      23.322  51.192  49.747  1.00  0.00    -0.271 OA
BRANCH  19  22
HETATM   22  C   UNL     1      20.569  50.373  49.003  1.00  0.00     0.068 A 
HETATM   23  C   UNL     1      19.568  49.900  49.866  1.00  0.00     0.092 A 
HETATM   24  C   UNL     1      18.414  50.654  50.110  1.00  0.00     0.045 A 
HETATM   25  C   UNL     1      18.218  51.891  49.494  1.00  0.00    -0.059 A 
HETATM   26  C   UNL     1      16.958  52.665  49.738  1.00  0.00     0.048 C 
HETATM   27  C   UNL     1      19.194  52.360  48.612  1.00  0.00     0.009 A 
HETATM   28  C   UNL     1      20.360  51.617  48.385  1.00  0.00     0.033 A 
BRANCH  23  29
HETATM   29  O   UNL     1      19.622  48.735  50.577  1.00  0.00    -0.358 OA
HETATM   30  H   UNL     1      18.737  48.314  50.543  1.00  0.00     0.218 HD
ENDBRANCH  23  29
ENDBRANCH  19  22
ENDBRANCH  17  18
ENDBRANCH   1  17
TORSDOF 4
ENDMDL
MODEL 4
REMARK VINA RESULT:      -9.9      2.564      8.773
REMARK  4 active torsions:
REMARK  status: ('A' for Active; 'I' for Inactive)
REMARK    1  A    between atoms: C_4  and  O_5 
REMARK    2  A    between atoms: C_6  and  N_7 
REMARK       I    between atoms: N_7  and  C_8 
REMARK    3  A    between atoms: C_8  and  C_9 
REMARK    4  A    between atoms: C_9  and  N_10 
ROOT
HETATM    1  N   UNL     1      24.903  45.432  50.399  1.00  0.00    -0.259 N 
HETATM    2  C   UNL     1      24.271  44.522  51.191  1.00  0.00     0.326 C 
HETATM    3  O   UNL     1      23.164  44.039  51.031  1.00  0.00    -0.247 OA
HETATM    4  N   UNL     1      25.083  44.238  52.264  1.00  0.00    -0.320 N 
HETATM    5  C   UNL     1      26.221  45.115  52.312  1.00  0.00     0.144 C 
HETATM    6  C   UNL     1      27.490  44.418  52.684  1.00  0.00    -0.014 A 
HETATM    7  C   UNL     1      27.836  44.725  54.010  1.00  0.00    -0.049 A 
HETATM    8  C   UNL     1      28.952  44.169  54.611  1.00  0.00     0.007 A 
HETATM    9  C   UNL     1      29.738  43.293  53.862  1.00  0.00     0.001 A 
HETATM   10  C   UNL     1      29.393  42.977  52.540  1.00  0.00     0.001 A 
HETATM   11  C   UNL     1      28.259  43.536  51.943  1.00  0.00     0.011 A 
HETATM   12  C   UNL     1      26.829  45.636  54.641  1.00  0.00     0.042 C 
HETATM   13  C   UNL     1      26.092  46.188  53.412  1.00  0.00     0.051 C 
HETATM   14  C   UNL     1      26.121  45.762  50.929  1.00  0.00     0.261 C 
HETATM   15  O   UNL     1      26.936  46.498  50.385  1.00  0.00    -0.270 OA
HETATM   16  H   UNL     1      24.785  43.617  53.005  1.00  0.00     0.165 HD
ENDROOT
BRANCH   1  17
HETATM   17  C   UNL     1      24.296  46.083  49.260  1.00  0.00     0.240 C 
BRANCH  17  18
HETATM   18  C   UNL     1      23.565  47.379  49.593  1.00  0.00     0.240 C 
HETATM   19  N   UNL     1      22.266  47.435  49.130  1.00  0.00    -0.323 N 
HETATM   20  H   UNL     1      21.845  46.546  48.857  1.00  0.00     0.169 HD
HETATM   21  O   UNL     1      24.149  48.308  50.147  1.00  0.00    -0.271 OA
BRANCH  19  22
HETATM   22  C   UNL     1      21.428  48.571  48.991  1.00  0.00     0.068 A 
HETATM   23  C   UNL     1      20.145  48.744  49.535  1.00  0.00     0.092 A 
HETATM   24  C   UNL     1      19.462  49.958  49.393  1.00  0.00     0.045 A 
HETATM   25  C   UNL     1      20.031  51.028  48.698  1.00  0.00    -0.059 A 
HETATM   26  C   UNL     1      19.267  52.306  48.525  1.00  0.00     0.048 C 
HETATM   27  C   UNL     1      21.295  50.859  48.130  1.00  0.00     0.009 A 
HETATM   28  C   UNL     1      21.989  49.653  48.291  1.00  0.00     0.033 A 
BRANCH  23  29
HETATM   29  O   UNL     1      19.468  47.817  50.274  1.00  0.00    -0.358 OA
HETATM   30  H   UNL     1      20.111  47.359  50.855  1.00  0.00     0.218 HD
ENDBRANCH  23  29
ENDBRANCH  19  22
ENDBRANCH  17  18
ENDBRANCH   1  17
TORSDOF 4
ENDMDL
MODEL 5
REMARK VINA RESULT:      -9.4      1.926      7.995
REMARK  4 active torsions:
REMARK  status: ('A' for Active; 'I' for Inactive)
REMARK    1  A    between atoms: C_4  and  O_5 
REMARK    2  A    between atoms: C_6  and  N_7 
REMARK       I    between atoms: N_7  and  C_8 
REMARK    3  A    between atoms: C_8  and  C_9 
REMARK    4  A    between atoms: C_9  and  N_10 
ROOT
HETATM    1  N   UNL     1      25.829  44.014  51.383  1.00  0.00    -0.259 N 
HETATM    2  C   UNL     1      27.011  44.065  50.710  1.00  0.00     0.326 C 
HETATM    3  O   UNL     1      27.179  44.098  49.503  1.00  0.00    -0.247 OA
HETATM    4  N   UNL     1      28.037  44.038  51.626  1.00  0.00    -0.320 N 
HETATM    5  C   UNL     1      27.553  43.771  52.952  1.00  0.00     0.144 C 
HETATM    6  C   UNL     1      28.223  44.596  54.004  1.00  0.00    -0.014 A 
HETATM    7  C   UNL     1      29.135  43.808  54.725  1.00  0.00    -0.049 A 
HETATM    8  C   UNL     1      29.917  44.349  55.730  1.00  0.00     0.007 A 
HETATM    9  C   UNL     1      29.777  45.706  56.019  1.00  0.00     0.001 A 
HETATM   10  C   UNL     1      28.873  46.499  55.297  1.00  0.00     0.001 A 
HETATM   11  C   UNL     1      28.093  45.948  54.277  1.00  0.00     0.011 A 
HETATM   12  C   UNL     1      29.164  42.401  54.213  1.00  0.00     0.042 C 
HETATM   13  C   UNL     1      27.857  42.331  53.412  1.00  0.00     0.051 C 
HETATM   14  C   UNL     1      26.049  43.950  52.732  1.00  0.00     0.261 C 
HETATM   15  O   UNL     1      25.165  43.973  53.580  1.00  0.00    -0.270 OA
HETATM   16  H   UNL     1      29.006  44.020  51.335  1.00  0.00     0.165 HD
ENDROOT
BRANCH   1  17
HETATM   17  C   UNL     1      24.536  43.871  50.752  1.00  0.00     0.240 C 
BRANCH  17  18
HETATM   18  C   UNL     1      24.244  44.913  49.677  1.00  0.00     0.240 C 
HETATM   19  N   UNL     1      24.446  46.218  50.080  1.00  0.00    -0.323 N 
HETATM   20  H   UNL     1      25.002  46.349  50.926  1.00  0.00     0.169 HD
HETATM   21  O   UNL     1      23.779  44.583  48.588  1.00  0.00    -0.271 OA
BRANCH  19  22
HETATM   22  C   UNL     1      23.989  47.411  49.463  1.00  0.00     0.068 A 
HETATM   23  C   UNL     1      22.676  47.702  49.059  1.00  0.00     0.092 A 
HETATM   24  C   UNL     1      22.346  48.960  48.541  1.00  0.00     0.045 A 
HETATM   25  C   UNL     1      23.313  49.958  48.399  1.00  0.00    -0.059 A 
HETATM   26  C   UNL     1      22.946  51.285  47.806  1.00  0.00     0.048 C 
HETATM   27  C   UNL     1      24.627  49.672  48.773  1.00  0.00     0.009 A 
HETATM   28  C   UNL     1      24.954  48.421  49.313  1.00  0.00     0.033 A 
BRANCH  23  29
HETATM   29  O   UNL     1      21.609  46.857  49.167  1.00  0.00    -0.358 OA
HETATM   30  H   UNL     1      21.424  46.718  50.119  1.00  0.00     0.218 HD
ENDBRANCH  23  29
ENDBRANCH  19  22
ENDBRANCH  17  18
ENDBRANCH   1  17
TORSDOF 4
ENDMDL
MODEL 6
REMARK VINA RESULT:      -9.3      3.840      7.243
REMARK  4 active torsions:
REMARK  status: ('A' for Active; 'I' for Inactive)
REMARK    1  A    between atoms: C_4  and  O_5 
REMARK    2  A    between atoms: C_6  and  N_7 
REMARK       I    between atoms: N_7  and  C_8 
REMARK    3  A    between atoms: C_8  and  C_9 
REMARK    4  A    between atoms: C_9  and  N_10 
ROOT
HETATM    1  N   UNL     1      25.828  44.258  53.075  1.00  0.00    -0.259 N 
HETATM    2  C   UNL     1      25.411  44.260  54.371  1.00  0.00     0.326 C 
HETATM    3  O   UNL     1      24.284  44.059  54.790  1.00  0.00    -0.247 OA
HETATM    4  N   UNL     1      26.483  44.571  55.175  1.00  0.00    -0.320 N 
HETATM    5  C   UNL     1      27.623  44.977  54.400  1.00  0.00     0.144 C 
HETATM    6  C   UNL     1      28.915  44.428  54.915  1.00  0.00    -0.014 A 
HETATM    7  C   UNL     1      29.638  45.437  55.572  1.00  0.00    -0.049 A 
HETATM    8  C   UNL     1      30.854  45.173  56.178  1.00  0.00     0.007 A 
HETATM    9  C   UNL     1      31.355  43.873  56.116  1.00  0.00     0.001 A 
HETATM   10  C   UNL     1      30.633  42.860  55.468  1.00  0.00     0.001 A 
HETATM   11  C   UNL     1      29.401  43.132  54.866  1.00  0.00     0.011 A 
HETATM   12  C   UNL     1      28.893  46.736  55.567  1.00  0.00     0.042 C 
HETATM   13  C   UNL     1      27.860  46.500  54.456  1.00  0.00     0.051 C 
HETATM   14  C   UNL     1      27.160  44.565  53.002  1.00  0.00     0.261 C 
HETATM   15  O   UNL     1      27.816  44.557  51.966  1.00  0.00    -0.270 OA
HETATM   16  H   UNL     1      26.382  44.673  56.176  1.00  0.00     0.165 HD
ENDROOT
BRANCH   1  17
HETATM   17  C   UNL     1      24.949  44.123  51.935  1.00  0.00     0.240 C 
BRANCH  17  18
HETATM   18  C   UNL     1      25.461  43.172  50.858  1.00  0.00     0.240 C 
HETATM   19  N   UNL     1      25.919  41.962  51.339  1.00  0.00    -0.323 N 
HETATM   20  H   UNL     1      25.638  41.718  52.289  1.00  0.00     0.169 HD
HETATM   21  O   UNL     1      25.530  43.527  49.683  1.00  0.00    -0.271 OA
BRANCH  19  22
HETATM   22  C   UNL     1      26.725  40.999  50.677  1.00  0.00     0.068 A 
HETATM   23  C   UNL     1      28.108  40.811  50.828  1.00  0.00     0.092 A 
HETATM   24  C   UNL     1      28.766  39.761  50.177  1.00  0.00     0.045 A 
HETATM   25  C   UNL     1      28.069  38.876  49.351  1.00  0.00    -0.059 A 
HETATM   26  C   UNL     1      28.799  37.781  48.633  1.00  0.00     0.048 C 
HETATM   27  C   UNL     1      26.698  39.069  49.172  1.00  0.00     0.009 A 
HETATM   28  C   UNL     1      26.035  40.106  49.841  1.00  0.00     0.033 A 
BRANCH  23  29
HETATM   29  O   UNL     1      28.926  41.558  51.627  1.00  0.00    -0.358 OA
HETATM   30  H   UNL     1      28.443  41.760  52.456  1.00  0.00     0.218 HD
ENDBRANCH  23  29
ENDBRANCH  19  22
ENDBRANCH  17  18
ENDBRANCH   1  17
TORSDOF 4
ENDMDL
MODEL 7
REMARK VINA RESULT:      -9.0      3.995      7.590
REMARK  4 active torsions:
REMARK  status: ('A' for Active; 'I' for Inactive)
REMARK    1  A    between atoms: C_4  and  O_5 
REMARK    2  A    between atoms: C_6  and  N_7 
REMARK       I    between atoms: N_7  and  C_8 
REMARK    3  A    between atoms: C_8  and  C_9 
REMARK    4  A    between atoms: C_9  and  N_10 
ROOT
HETATM    1  N   UNL     1      26.298  43.640  51.932  1.00  0.00    -0.259 N 
HETATM    2  C   UNL     1      27.371  44.029  51.190  1.00  0.00     0.326 C 
HETATM    3  O   UNL     1      27.416  44.210  49.986  1.00  0.00    -0.247 OA
HETATM    4  N   UNL     1      28.456  44.161  52.026  1.00  0.00    -0.320 N 
HETATM    5  C   UNL     1      28.168  43.669  53.345  1.00  0.00     0.144 C 
HETATM    6  C   UNL     1      28.727  44.530  54.433  1.00  0.00    -0.014 A 
HETATM    7  C   UNL     1      29.855  43.916  55.000  1.00  0.00    -0.049 A 
HETATM    8  C   UNL     1      30.583  44.533  56.002  1.00  0.00     0.007 A 
HETATM    9  C   UNL     1      30.164  45.786  56.448  1.00  0.00     0.001 A 
HETATM   10  C   UNL     1      29.042  46.407  55.880  1.00  0.00     0.001 A 
HETATM   11  C   UNL     1      28.317  45.782  54.860  1.00  0.00     0.011 A 
HETATM   12  C   UNL     1      30.157  42.608  54.337  1.00  0.00     0.042 C 
HETATM   13  C   UNL     1      28.833  42.306  53.622  1.00  0.00     0.051 C 
HETATM   14  C   UNL     1      26.650  43.508  53.248  1.00  0.00     0.261 C 
HETATM   15  O   UNL     1      25.864  43.245  54.151  1.00  0.00    -0.270 OA
HETATM   16  H   UNL     1      29.372  44.399  51.670  1.00  0.00     0.165 HD
ENDROOT
BRANCH   1  17
HETATM   17  C   UNL     1      25.019  43.255  51.378  1.00  0.00     0.240 C 
BRANCH  17  18
HETATM   18  C   UNL     1      25.100  42.168  50.311  1.00  0.00     0.240 C 
HETATM   19  N   UNL     1      26.169  41.308  50.455  1.00  0.00    -0.323 N 
HETATM   20  H   UNL     1      26.630  41.308  51.366  1.00  0.00     0.169 HD
HETATM   21  O   UNL     1      24.314  42.153  49.366  1.00  0.00    -0.271 OA
BRANCH  19  22
HETATM   22  C   UNL     1      26.710  40.408  49.501  1.00  0.00     0.068 A 
HETATM   23  C   UNL     1      27.358  40.741  48.300  1.00  0.00     0.092 A 
HETATM   24  C   UNL     1      27.925  39.750  47.491  1.00  0.00     0.045 A 
HETATM   25  C   UNL     1      27.854  38.401  47.846  1.00  0.00    -0.059 A 
HETATM   26  C   UNL     1      28.434  37.352  46.946  1.00  0.00     0.048 C 
HETATM   27  C   UNL     1      27.189  38.055  49.024  1.00  0.00     0.009 A 
HETATM   28  C   UNL     1      26.641  39.048  49.846  1.00  0.00     0.033 A 
BRANCH  23  29
HETATM   29  O   UNL     1      27.551  42.008  47.830  1.00  0.00    -0.358 OA
HETATM   30  H   UNL     1      28.476  42.081  47.514  1.00  0.00     0.218 HD
ENDBRANCH  23  29
ENDBRANCH  19  22
ENDBRANCH  17  18
ENDBRANCH   1  17
TORSDOF 4
ENDMDL
MODEL 8
REMARK VINA RESULT:      -9.0      2.537      8.116
REMARK  4 active torsions:
REMARK  status: ('A' for Active; 'I' for Inactive)
REMARK    1  A    between atoms: C_4  and  O_5 
REMARK    2  A    between atoms: C_6  and  N_7 
REMARK       I    between atoms: N_7  and  C_8 
REMARK    3  A    between atoms: C_8  and  C_9 
REMARK    4  A    between atoms: C_9  and  N_10 
ROOT
HETATM    1  N   UNL     1      25.418  43.937  50.239  1.00  0.00    -0.259 N 
HETATM    2  C   UNL     1      24.808  43.284  51.266  1.00  0.00     0.326 C 
HETATM    3  O   UNL     1      23.730  42.715  51.250  1.00  0.00    -0.247 OA
HETATM    4  N   UNL     1      25.601  43.393  52.385  1.00  0.00    -0.320 N 
HETATM    5  C   UNL     1      26.692  44.302  52.172  1.00  0.00     0.144 C 
HETATM    6  C   UNL     1      27.982  43.827  52.759  1.00  0.00    -0.014 A 
HETATM    7  C   UNL     1      28.273  44.549  53.928  1.00  0.00    -0.049 A 
HETATM    8  C   UNL     1      29.396  44.270  54.687  1.00  0.00     0.007 A 
HETATM    9  C   UNL     1      30.246  43.250  54.259  1.00  0.00     0.001 A 
HETATM   10  C   UNL     1      29.956  42.520  53.096  1.00  0.00     0.001 A 
HETATM   11  C   UNL     1      28.814  42.802  52.340  1.00  0.00     0.011 A 
HETATM   12  C   UNL     1      27.204  45.553  54.231  1.00  0.00     0.042 C 
HETATM   13  C   UNL     1      26.479  45.655  52.882  1.00  0.00     0.051 C 
HETATM   14  C   UNL     1      26.602  44.482  50.655  1.00  0.00     0.261 C 
HETATM   15  O   UNL     1      27.396  45.057  49.920  1.00  0.00    -0.270 OA
HETATM   16  H   UNL     1      25.310  43.016  53.278  1.00  0.00     0.165 HD
ENDROOT
BRANCH   1  17
HETATM   17  C   UNL     1      24.814  44.167  48.945  1.00  0.00     0.240 C 
BRANCH  17  18
HETATM   18  C   UNL     1      23.654  45.157  48.962  1.00  0.00     0.240 C 
HETATM   19  N   UNL     1      24.010  46.456  48.661  1.00  0.00    -0.323 N 
HETATM   20  H   UNL     1      24.917  46.584  48.213  1.00  0.00     0.169 HD
HETATM   21  O   UNL     1      22.529  44.804  49.312  1.00  0.00    -0.271 OA
BRANCH  19  22
HETATM   22  C   UNL     1      23.270  47.646  48.884  1.00  0.00     0.068 A 
HETATM   23  C   UNL     1      23.786  48.917  49.182  1.00  0.00     0.092 A 
HETATM   24  C   UNL     1      22.943  50.029  49.290  1.00  0.00     0.045 A 
HETATM   25  C   UNL     1      21.562  49.905  49.118  1.00  0.00    -0.059 A 
HETATM   26  C   UNL     1      20.672  51.101  49.276  1.00  0.00     0.048 C 
HETATM   27  C   UNL     1      21.033  48.642  48.848  1.00  0.00     0.009 A 
HETATM   28  C   UNL     1      21.879  47.533  48.716  1.00  0.00     0.033 A 
BRANCH  23  29
HETATM   29  O   UNL     1      25.109  49.216  49.339  1.00  0.00    -0.358 OA
HETATM   30  H   UNL     1      25.515  48.525  49.903  1.00  0.00     0.218 HD
ENDBRANCH  23  29
ENDBRANCH  19  22
ENDBRANCH  17  18
ENDBRANCH   1  17
TORSDOF 4
ENDMDL
MODEL 9
REMARK VINA RESULT:      -8.9      1.643      7.876
REMARK  4 active torsions:
REMARK  status: ('A' for Active; 'I' for Inactive)
REMARK    1  A    between atoms: C_4  and  O_5 
REMARK    2  A    between atoms: C_6  and  N_7 
REMARK       I    between atoms: N_7  and  C_8 
REMARK    3  A    between atoms: C_8  and  C_9 
REMARK    4  A    between atoms: C_9  and  N_10 
ROOT
HETATM    1  N   UNL     1      26.324  43.865  52.671  1.00  0.00    -0.259 N 
HETATM    2  C   UNL     1      25.703  43.955  53.880  1.00  0.00     0.326 C 
HETATM    3  O   UNL     1      24.541  43.699  54.140  1.00  0.00    -0.247 OA
HETATM    4  N   UNL     1      26.608  44.431  54.801  1.00  0.00    -0.320 N 
HETATM    5  C   UNL     1      27.827  44.857  54.171  1.00  0.00     0.144 C 
HETATM    6  C   UNL     1      29.054  44.472  54.934  1.00  0.00    -0.014 A 
HETATM    7  C   UNL     1      29.590  45.596  55.582  1.00  0.00    -0.049 A 
HETATM    8  C   UNL     1      30.708  45.496  56.392  1.00  0.00     0.007 A 
HETATM    9  C   UNL     1      31.301  44.243  56.548  1.00  0.00     0.001 A 
HETATM   10  C   UNL     1      30.765  43.115  55.908  1.00  0.00     0.001 A 
HETATM   11  C   UNL     1      29.629  43.223  55.100  1.00  0.00     0.011 A 
HETATM   12  C   UNL     1      28.768  46.820  55.323  1.00  0.00     0.042 C 
HETATM   13  C   UNL     1      27.947  46.393  54.099  1.00  0.00     0.051 C 
HETATM   14  C   UNL     1      27.625  44.276  52.770  1.00  0.00     0.261 C 
HETATM   15  O   UNL     1      28.438  44.226  51.855  1.00  0.00    -0.270 OA
HETATM   16  H   UNL     1      26.340  44.618  55.758  1.00  0.00     0.165 HD
ENDROOT
BRANCH   1  17
HETATM   17  C   UNL     1      25.652  43.548  51.431  1.00  0.00     0.240 C 
BRANCH  17  18
HETATM   18  C   UNL     1      24.788  44.677  50.878  1.00  0.00     0.240 C 
HETATM   19  N   UNL     1      25.475  45.593  50.108  1.00  0.00    -0.323 N 
HETATM   20  H   UNL     1      26.393  45.302  49.769  1.00  0.00     0.169 HD
HETATM   21  O   UNL     1      23.605  44.779  51.195  1.00  0.00    -0.271 OA
BRANCH  19  22
HETATM   22  C   UNL     1      25.066  46.893  49.711  1.00  0.00     0.068 A 
HETATM   23  C   UNL     1      25.897  47.993  49.443  1.00  0.00     0.092 A 
HETATM   24  C   UNL     1      25.363  49.198  48.972  1.00  0.00     0.045 A 
HETATM   25  C   UNL     1      23.990  49.346  48.764  1.00  0.00    -0.059 A 
HETATM   26  C   UNL     1      23.435  50.658  48.295  1.00  0.00     0.048 C 
HETATM   27  C   UNL     1      23.151  48.268  49.052  1.00  0.00     0.009 A 
HETATM   28  C   UNL     1      23.686  47.054  49.502  1.00  0.00     0.033 A 
BRANCH  23  29
HETATM   29  O   UNL     1      27.258  48.002  49.553  1.00  0.00    -0.358 OA
HETATM   30  H   UNL     1      27.610  48.677  48.936  1.00  0.00     0.218 HD
ENDBRANCH  23  29
ENDBRANCH  19  22
ENDBRANCH  17  18
ENDBRANCH   1  17
TORSDOF 4
ENDMDL
MODEL 10
REMARK VINA RESULT:      -8.8      3.130      8.675
REMARK  4 active torsions:
REMARK  status: ('A' for Active; 'I' for Inactive)
REMARK    1  A    between atoms: C_4  and  O_5 
REMARK    2  A    between atoms: C_6  and  N_7 
REMARK       I    between atoms: N_7  and  C_8 
REMARK    3  A    between atoms: C_8  and  C_9 
REMARK    4  A    between atoms: C_9  and  N_10 
ROOT
HETATM    1  N   UNL     1      25.824  44.764  52.349  1.00  0.00    -0.259 N 
HETATM    2  C   UNL     1      26.845  44.844  51.451  1.00  0.00     0.326 C 
HETATM    3  O   UNL     1      26.790  45.228  50.296  1.00  0.00    -0.247 OA
HETATM    4  N   UNL     1      27.991  44.374  52.049  1.00  0.00    -0.320 N 
HETATM    5  C   UNL     1      27.713  43.782  53.329  1.00  0.00     0.144 C 
HETATM    6  C   UNL     1      28.729  44.123  54.372  1.00  0.00    -0.014 A 
HETATM    7  C   UNL     1      29.564  43.019  54.609  1.00  0.00    -0.049 A 
HETATM    8  C   UNL     1      30.617  43.091  55.503  1.00  0.00     0.007 A 
HETATM    9  C   UNL     1      30.831  44.294  56.177  1.00  0.00     0.001 A 
HETATM   10  C   UNL     1      30.004  45.402  55.939  1.00  0.00     0.001 A 
HETATM   11  C   UNL     1      28.948  45.324  55.026  1.00  0.00     0.011 A 
HETATM   12  C   UNL     1      29.193  41.856  53.741  1.00  0.00     0.042 C 
HETATM   13  C   UNL     1      27.777  42.242  53.291  1.00  0.00     0.051 C 
HETATM   14  C   UNL     1      26.271  44.247  53.535  1.00  0.00     0.261 C 
HETATM   15  O   UNL     1      25.584  44.138  54.544  1.00  0.00    -0.270 OA
HETATM   16  H   UNL     1      28.862  44.302  51.541  1.00  0.00     0.165 HD
ENDROOT
BRANCH   1  17
HETATM   17  C   UNL     1      24.437  45.026  52.034  1.00  0.00     0.240 C 
BRANCH  17  18
HETATM   18  C   UNL     1      23.904  44.231  50.847  1.00  0.00     0.240 C 
HETATM   19  N   UNL     1      23.531  45.004  49.766  1.00  0.00    -0.323 N 
HETATM   20  H   UNL     1      23.881  45.963  49.754  1.00  0.00     0.169 HD
HETATM   21  O   UNL     1      23.745  43.014  50.922  1.00  0.00    -0.271 OA
BRANCH  19  22
HETATM   22  C   UNL     1      22.730  44.637  48.654  1.00  0.00     0.068 A 
HETATM   23  C   UNL     1      21.328  44.649  48.585  1.00  0.00     0.092 A 
HETATM   24  C   UNL     1      20.664  44.345  47.390  1.00  0.00     0.045 A 
HETATM   25  C   UNL     1      21.376  44.009  46.236  1.00  0.00    -0.059 A 
HETATM   26  C   UNL     1      20.646  43.649  44.978  1.00  0.00     0.048 C 
HETATM   27  C   UNL     1      22.770  43.967  46.300  1.00  0.00     0.009 A 
HETATM   28  C   UNL     1      23.435  44.294  47.489  1.00  0.00     0.033 A 
BRANCH  23  29
HETATM   29  O   UNL     1      20.488  44.994  49.605  1.00  0.00    -0.358 OA
HETATM   30  H   UNL     1      19.807  44.294  49.691  1.00  0.00     0.218 HD
ENDBRANCH  23  29
ENDBRANCH  19  22
ENDBRANCH  17  18
ENDBRANCH   1  17
TORSDOF 4
ENDMDL
