MODEL 1
REMARK VINA RESULT:      -8.9      0.000      0.000
REMARK  5 active torsions:
REMARK  status: ('A' for Active; 'I' for Inactive)
REMARK    1  A    between atoms: O_2  and  C_3 
REMARK    2  A    between atoms: C_5  and  C_6 
REMARK    3  A    between atoms: C_12  and  C_13 
REMARK    4  A    between atoms: C_15  and  O_16 
REMARK    5  A    between atoms: C_18  and  O_19 
ROOT
HETATM    1  C   UNL     1      28.204  42.695  53.101  1.00  0.00     0.098 A 
HETATM    2  N   UNL     1      29.066  41.656  52.973  1.00  0.00    -0.173 NA
HETATM    3  N   UNL     1      28.474  40.796  52.111  1.00  0.00    -0.272 N 
HETATM    4  H   UNL     1      28.947  39.930  51.872  1.00  0.00     0.189 HD
HETATM    5  C   UNL     1      27.290  41.264  51.690  1.00  0.00     0.128 A 
HETATM    6  C   UNL     1      27.082  42.475  52.284  1.00  0.00     0.034 A 
HETATM    7  C   UNL     1      25.787  43.033  51.843  1.00  0.00     0.156 A 
HETATM    8  N   UNL     1      25.345  41.958  50.933  1.00  0.00    -0.343 N 
HETATM    9  C   UNL     1      26.234  40.894  50.828  1.00  0.00     0.271 A 
HETATM   10  O   UNL     1      26.118  39.899  50.139  1.00  0.00    -0.266 OA
HETATM   11  H   UNL     1      24.492  41.986  50.395  1.00  0.00     0.163 HD
ENDROOT
BRANCH   7  12
HETATM   12  C   UNL     1      26.035  44.339  51.130  1.00  0.00    -0.028 A 
HETATM   13  C   UNL     1      25.169  45.448  51.257  1.00  0.00     0.049 A 
HETATM   14  C   UNL     1      25.434  46.647  50.592  1.00  0.00     0.101 A 
HETATM   15  C   UNL     1      26.581  46.736  49.797  1.00  0.00     0.099 A 
HETATM   16  C   UNL     1      27.451  45.665  49.655  1.00  0.00     0.040 A 
HETATM   17  C   UNL     1      27.179  44.471  50.321  1.00  0.00     0.012 A 
BRANCH  14  18
HETATM   18  O   UNL     1      24.672  47.786  50.638  1.00  0.00    -0.353 OA
HETATM   19  C   UNL     1      23.655  47.913  49.650  1.00  0.00     0.210 C 
ENDBRANCH  14  18
BRANCH  15  20
HETATM   20  O   UNL     1      26.872  47.898  49.136  1.00  0.00    -0.358 OA
HETATM   21  H   UNL     1      26.410  48.596  49.640  1.00  0.00     0.218 HD
ENDBRANCH  15  20
ENDBRANCH   7  12
BRANCH   1  22
HETATM   22  C   UNL     1      28.502  43.825  53.979  1.00  0.00    -0.002 A 
HETATM   23  C   UNL     1      29.614  43.780  54.834  1.00  0.00     0.050 A 
HETATM   24  C   UNL     1      29.924  44.851  55.679  1.00  0.00     0.069 A 
HETATM   25  C   UNL     1      29.109  45.983  55.673  1.00  0.00     0.037 A 
HETATM   26  C   UNL     1      27.993  46.037  54.835  1.00  0.00     0.004 A 
HETATM   27  C   UNL     1      27.687  44.964  53.997  1.00  0.00     0.014 A 
BRANCH  24  28
HETATM   28  O   UNL     1      31.037  44.666  56.453  1.00  0.00    -0.356 OA
HETATM   29  C   UNL     1      31.368  43.327  56.797  1.00  0.00     0.210 C 
ENDBRANCH  24  28
ENDBRANCH   1  22
TORSDOF 5
ENDMDL
MODEL 2
REMARK VINA RESULT:      -8.4      2.184      3.023
REMARK  5 active torsions:
REMARK  status: ('A' for Active; 'I' for Inactive)
REMARK    1  A    between atoms: O_2  and  C_3 
REMARK    2  A    between atoms: C_5  and  C_6 
REMARK    3  A    between atoms: C_12  and  C_13 
REMARK    4  A    between atoms: C_15  and  O_16 
REMARK    5  A    between atoms: C_18  and  O_19 
ROOT
HETATM    1  C   UNL     1      26.407  43.923  52.579  1.00  0.00     0.098 A 
HETATM    2  N   UNL     1      26.882  42.653  52.533  1.00  0.00    -0.173 NA
HETATM    3  N   UNL     1      26.139  42.020  51.594  1.00  0.00    -0.272 N 
HETATM    4  H   UNL     1      26.321  41.041  51.396  1.00  0.00     0.189 HD
HETATM    5  C   UNL     1      25.236  42.847  51.047  1.00  0.00     0.128 A 
HETATM    6  C   UNL     1      25.378  44.071  51.634  1.00  0.00     0.034 A 
HETATM    7  C   UNL     1      24.402  45.018  51.056  1.00  0.00     0.156 A 
HETATM    8  N   UNL     1      23.735  44.133  50.083  1.00  0.00    -0.343 N 
HETATM    9  C   UNL     1      24.223  42.831  50.063  1.00  0.00     0.271 A 
HETATM   10  O   UNL     1      23.862  41.916  49.348  1.00  0.00    -0.266 OA
HETATM   11  H   UNL     1      23.007  44.431  49.451  1.00  0.00     0.163 HD
ENDROOT
BRANCH   7  12
HETATM   12  C   UNL     1      25.152  46.152  50.399  1.00  0.00    -0.028 A 
HETATM   13  C   UNL     1      24.548  47.397  50.117  1.00  0.00     0.049 A 
HETATM   14  C   UNL     1      25.274  48.428  49.518  1.00  0.00     0.101 A 
HETATM   15  C   UNL     1      26.619  48.210  49.205  1.00  0.00     0.099 A 
HETATM   16  C   UNL     1      27.240  46.999  49.473  1.00  0.00     0.040 A 
HETATM   17  C   UNL     1      26.508  45.973  50.069  1.00  0.00     0.012 A 
BRANCH  14  18
HETATM   18  O   UNL     1      24.800  49.674  49.197  1.00  0.00    -0.353 OA
HETATM   19  C   UNL     1      23.857  49.743  48.133  1.00  0.00     0.210 C 
ENDBRANCH  14  18
BRANCH  15  20
HETATM   20  O   UNL     1      27.360  49.202  48.622  1.00  0.00    -0.358 OA
HETATM   21  H   UNL     1      27.066  50.025  49.060  1.00  0.00     0.218 HD
ENDBRANCH  15  20
ENDBRANCH   7  12
BRANCH   1  22
HETATM   22  C   UNL     1      26.962  44.909  53.504  1.00  0.00    -0.002 A 
HETATM   23  C   UNL     1      26.224  46.055  53.839  1.00  0.00     0.050 A 
HETATM   24  C   UNL     1      26.730  47.010  54.727  1.00  0.00     0.069 A 
HETATM   25  C   UNL     1      27.993  46.820  55.288  1.00  0.00     0.037 A 
HETATM   26  C   UNL     1      28.743  45.690  54.955  1.00  0.00     0.004 A 
HETATM   27  C   UNL     1      28.234  44.741  54.065  1.00  0.00     0.014 A 
BRANCH  24  28
HETATM   28  O   UNL     1      25.899  48.072  54.960  1.00  0.00    -0.356 OA
HETATM   29  C   UNL     1      26.130  48.823  56.145  1.00  0.00     0.210 C 
ENDBRANCH  24  28
ENDBRANCH   1  22
TORSDOF 5
ENDMDL
MODEL 3
REMARK VINA RESULT:      -8.2      2.141      4.891
REMARK  5 active torsions:
REMARK  status: ('A' for Active; 'I' for Inactive)
REMARK    1  A    between atoms: O_2  and  C_3 
REMARK    2  A    between atoms: C_5  and  C_6 
REMARK    3  A    between atoms: C_12  and  C_13 
REMARK    4  A    between atoms: C_15  and  O_16 
REMARK    5  A    between atoms: C_18  and  O_19 
ROOT
HETATM    1  C   UNL     1      27.015  45.382  53.339  1.00  0.00     0.098 A 
HETATM    2  N   UNL     1      26.211  46.173  54.093  1.00  0.00    -0.173 NA
HETATM    3  N   UNL     1      25.364  46.767  53.219  1.00  0.00    -0.272 N 
HETATM    4  H   UNL     1      24.668  47.419  53.570  1.00  0.00     0.189 HD
HETATM    5  C   UNL     1      25.600  46.368  51.961  1.00  0.00     0.128 A 
HETATM    6  C   UNL     1      26.633  45.477  51.990  1.00  0.00     0.034 A 
HETATM    7  C   UNL     1      26.924  45.004  50.621  1.00  0.00     0.156 A 
HETATM    8  N   UNL     1      25.903  45.758  49.870  1.00  0.00    -0.343 N 
HETATM    9  C   UNL     1      25.101  46.577  50.657  1.00  0.00     0.271 A 
HETATM   10  O   UNL     1      24.181  47.284  50.291  1.00  0.00    -0.266 OA
HETATM   11  H   UNL     1      25.757  45.679  48.874  1.00  0.00     0.163 HD
ENDROOT
BRANCH   7  12
HETATM   12  C   UNL     1      26.711  43.512  50.564  1.00  0.00    -0.028 A 
HETATM   13  C   UNL     1      27.760  42.606  50.286  1.00  0.00     0.049 A 
HETATM   14  C   UNL     1      27.531  41.229  50.251  1.00  0.00     0.101 A 
HETATM   15  C   UNL     1      26.239  40.757  50.503  1.00  0.00     0.099 A 
HETATM   16  C   UNL     1      25.190  41.620  50.781  1.00  0.00     0.040 A 
HETATM   17  C   UNL     1      25.426  42.994  50.812  1.00  0.00     0.012 A 
BRANCH  14  18
HETATM   18  O   UNL     1      28.463  40.258  49.994  1.00  0.00    -0.353 OA
HETATM   19  C   UNL     1      28.791  40.034  48.627  1.00  0.00     0.210 C 
ENDBRANCH  14  18
BRANCH  15  20
HETATM   20  O   UNL     1      25.981  39.413  50.481  1.00  0.00    -0.358 OA
HETATM   21  H   UNL     1      26.402  39.064  51.291  1.00  0.00     0.218 HD
ENDBRANCH  15  20
ENDBRANCH   7  12
BRANCH   1  22
HETATM   22  C   UNL     1      28.081  44.586  53.945  1.00  0.00    -0.002 A 
HETATM   23  C   UNL     1      28.880  45.135  54.960  1.00  0.00     0.050 A 
HETATM   24  C   UNL     1      29.903  44.393  55.560  1.00  0.00     0.069 A 
HETATM   25  C   UNL     1      30.134  43.084  55.138  1.00  0.00     0.037 A 
HETATM   26  C   UNL     1      29.354  42.528  54.122  1.00  0.00     0.004 A 
HETATM   27  C   UNL     1      28.337  43.276  53.524  1.00  0.00     0.014 A 
BRANCH  24  28
HETATM   28  O   UNL     1      30.596  45.057  56.535  1.00  0.00    -0.356 OA
HETATM   29  C   UNL     1      31.263  44.262  57.507  1.00  0.00     0.210 C 
ENDBRANCH  24  28
ENDBRANCH   1  22
TORSDOF 5
ENDMDL
MODEL 4
REMARK VINA RESULT:      -8.2      6.859      9.743
REMARK  5 active torsions:
REMARK  status: ('A' for Active; 'I' for Inactive)
REMARK    1  A    between atoms: O_2  and  C_3 
REMARK    2  A    between atoms: C_5  and  C_6 
REMARK    3  A    between atoms: C_12  and  C_13 
REMARK    4  A    between atoms: C_15  and  O_16 
REMARK    5  A    between atoms: C_18  and  O_19 
ROOT
HETATM    1  C   UNL     1      21.335  47.614  47.661  1.00  0.00     0.098 A 
HETATM    2  N   UNL     1      21.466  46.776  46.603  1.00  0.00    -0.173 NA
HETATM    3  N   UNL     1      20.340  46.024  46.592  1.00  0.00    -0.272 N 
HETATM    4  H   UNL     1      20.226  45.313  45.876  1.00  0.00     0.189 HD
HETATM    5  C   UNL     1      19.512  46.370  47.589  1.00  0.00     0.128 A 
HETATM    6  C   UNL     1      20.097  47.386  48.288  1.00  0.00     0.034 A 
HETATM    7  C   UNL     1      19.214  47.804  49.396  1.00  0.00     0.156 A 
HETATM    8  N   UNL     1      18.084  46.879  49.182  1.00  0.00    -0.343 N 
HETATM    9  C   UNL     1      18.246  46.017  48.104  1.00  0.00     0.271 A 
HETATM   10  O   UNL     1      17.462  45.177  47.705  1.00  0.00    -0.266 OA
HETATM   11  H   UNL     1      17.241  46.877  49.737  1.00  0.00     0.163 HD
ENDROOT
BRANCH   7  12
HETATM   12  C   UNL     1      18.834  49.251  49.198  1.00  0.00    -0.028 A 
HETATM   13  C   UNL     1      17.915  49.664  48.207  1.00  0.00     0.049 A 
HETATM   14  C   UNL     1      17.577  51.011  48.059  1.00  0.00     0.101 A 
HETATM   15  C   UNL     1      18.161  51.949  48.914  1.00  0.00     0.099 A 
HETATM   16  C   UNL     1      19.065  51.574  49.897  1.00  0.00     0.040 A 
HETATM   17  C   UNL     1      19.399  50.227  50.039  1.00  0.00     0.012 A 
BRANCH  14  18
HETATM   18  O   UNL     1      16.703  51.530  47.139  1.00  0.00    -0.353 OA
HETATM   19  C   UNL     1      17.132  51.535  45.782  1.00  0.00     0.210 C 
ENDBRANCH  14  18
BRANCH  15  20
HETATM   20  O   UNL     1      17.848  53.276  48.797  1.00  0.00    -0.358 OA
HETATM   21  H   UNL     1      17.043  53.296  48.243  1.00  0.00     0.218 HD
ENDBRANCH  15  20
ENDBRANCH   7  12
BRANCH   1  22
HETATM   22  C   UNL     1      22.381  48.576  48.004  1.00  0.00    -0.002 A 
HETATM   23  C   UNL     1      23.511  48.161  48.726  1.00  0.00     0.050 A 
HETATM   24  C   UNL     1      24.529  49.060  49.061  1.00  0.00     0.069 A 
HETATM   25  C   UNL     1      24.417  50.394  48.671  1.00  0.00     0.037 A 
HETATM   26  C   UNL     1      23.293  50.824  47.961  1.00  0.00     0.004 A 
HETATM   27  C   UNL     1      22.278  49.922  47.634  1.00  0.00     0.014 A 
BRANCH  24  28
HETATM   28  O   UNL     1      25.568  48.513  49.763  1.00  0.00    -0.356 OA
HETATM   29  C   UNL     1      26.864  48.631  49.193  1.00  0.00     0.210 C 
ENDBRANCH  24  28
ENDBRANCH   1  22
TORSDOF 5
ENDMDL
MODEL 5
REMARK VINA RESULT:      -8.1     12.679     14.810
REMARK  5 active torsions:
REMARK  status: ('A' for Active; 'I' for Inactive)
REMARK    1  A    between atoms: O_2  and  C_3 
REMARK    2  A    between atoms: C_5  and  C_6 
REMARK    3  A    between atoms: C_12  and  C_13 
REMARK    4  A    between atoms: C_15  and  O_16 
REMARK    5  A    between atoms: C_18  and  O_19 
ROOT
HETATM    1  C   UNL     1      27.961  50.183  39.514  1.00  0.00     0.098 A 
HETATM    2  N   UNL     1      27.493  50.727  38.363  1.00  0.00    -0.173 NA
HETATM    3  N   UNL     1      27.836  52.036  38.414  1.00  0.00    -0.272 N 
HETATM    4  H   UNL     1      27.575  52.646  37.645  1.00  0.00     0.189 HD
HETATM    5  C   UNL     1      28.508  52.322  39.538  1.00  0.00     0.128 A 
HETATM    6  C   UNL     1      28.622  51.171  40.264  1.00  0.00     0.034 A 
HETATM    7  C   UNL     1      29.363  51.439  41.513  1.00  0.00     0.156 A 
HETATM    8  N   UNL     1      29.630  52.880  41.346  1.00  0.00    -0.343 N 
HETATM    9  C   UNL     1      29.127  53.423  40.169  1.00  0.00     0.271 A 
HETATM   10  O   UNL     1      29.224  54.573  39.784  1.00  0.00    -0.266 OA
HETATM   11  H   UNL     1      30.159  53.439  41.999  1.00  0.00     0.163 HD
ENDROOT
BRANCH   7  12
HETATM   12  C   UNL     1      30.622  50.607  41.522  1.00  0.00    -0.028 A 
HETATM   13  C   UNL     1      31.828  51.050  40.934  1.00  0.00     0.049 A 
HETATM   14  C   UNL     1      32.978  50.259  40.971  1.00  0.00     0.101 A 
HETATM   15  C   UNL     1      32.919  49.015  41.606  1.00  0.00     0.099 A 
HETATM   16  C   UNL     1      31.750  48.554  42.194  1.00  0.00     0.040 A 
HETATM   17  C   UNL     1      30.605  49.348  42.152  1.00  0.00     0.012 A 
BRANCH  14  18
HETATM   18  O   UNL     1      34.200  50.579  40.439  1.00  0.00    -0.353 OA
HETATM   19  C   UNL     1      34.230  51.665  39.519  1.00  0.00     0.210 C 
ENDBRANCH  14  18
BRANCH  15  20
HETATM   20  O   UNL     1      34.029  48.217  41.663  1.00  0.00    -0.358 OA
HETATM   21  H   UNL     1      34.083  47.929  42.596  1.00  0.00     0.218 HD
ENDBRANCH  15  20
ENDBRANCH   7  12
BRANCH   1  22
HETATM   22  C   UNL     1      27.759  48.768  39.823  1.00  0.00    -0.002 A 
HETATM   23  C   UNL     1      28.770  47.835  39.546  1.00  0.00     0.050 A 
HETATM   24  C   UNL     1      28.604  46.477  39.838  1.00  0.00     0.069 A 
HETATM   25  C   UNL     1      27.409  46.044  40.413  1.00  0.00     0.037 A 
HETATM   26  C   UNL     1      26.391  46.960  40.684  1.00  0.00     0.004 A 
HETATM   27  C   UNL     1      26.561  48.313  40.387  1.00  0.00     0.014 A 
BRANCH  24  28
HETATM   28  O   UNL     1      29.673  45.687  39.516  1.00  0.00    -0.356 OA
HETATM   29  C   UNL     1      29.414  44.555  38.696  1.00  0.00     0.210 C 
ENDBRANCH  24  28
ENDBRANCH   1  22
TORSDOF 5
ENDMDL
MODEL 6
REMARK VINA RESULT:      -8.0      1.393      2.147
REMARK  5 active torsions:
REMARK  status: ('A' for Active; 'I' for Inactive)
REMARK    1  A    between atoms: O_2  and  C_3 
REMARK    2  A    between atoms: C_5  and  C_6 
REMARK    3  A    between atoms: C_12  and  C_13 
REMARK    4  A    between atoms: C_15  and  O_16 
REMARK    5  A    between atoms: C_18  and  O_19 
ROOT
HETATM    1  C   UNL     1      27.628  41.876  51.556  1.00  0.00     0.098 A 
HETATM    2  N   UNL     1      28.230  40.802  50.988  1.00  0.00    -0.173 NA
HETATM    3  N   UNL     1      27.363  40.354  50.048  1.00  0.00    -0.272 N 
HETATM    4  H   UNL     1      27.610  39.539  49.495  1.00  0.00     0.189 HD
HETATM    5  C   UNL     1      26.259  41.113  50.001  1.00  0.00     0.128 A 
HETATM    6  C   UNL     1      26.388  42.101  50.934  1.00  0.00     0.034 A 
HETATM    7  C   UNL     1      25.192  42.967  50.914  1.00  0.00     0.156 A 
HETATM    8  N   UNL     1      24.420  42.309  49.842  1.00  0.00    -0.343 N 
HETATM    9  C   UNL     1      25.046  41.200  49.284  1.00  0.00     0.271 A 
HETATM   10  O   UNL     1      24.636  40.496  48.381  1.00  0.00    -0.266 OA
HETATM   11  H   UNL     1      23.529  42.637  49.502  1.00  0.00     0.163 HD
ENDROOT
BRANCH   7  12
HETATM   12  C   UNL     1      25.612  44.372  50.556  1.00  0.00    -0.028 A 
HETATM   13  C   UNL     1      24.781  45.492  50.780  1.00  0.00     0.049 A 
HETATM   14  C   UNL     1      25.206  46.780  50.448  1.00  0.00     0.101 A 
HETATM   15  C   UNL     1      26.477  46.946  49.890  1.00  0.00     0.099 A 
HETATM   16  C   UNL     1      27.316  45.866  49.660  1.00  0.00     0.040 A 
HETATM   17  C   UNL     1      26.885  44.582  49.993  1.00  0.00     0.012 A 
BRANCH  14  18
HETATM   18  O   UNL     1      24.492  47.938  50.618  1.00  0.00    -0.353 OA
HETATM   19  C   UNL     1      23.530  48.248  49.615  1.00  0.00     0.210 C 
ENDBRANCH  14  18
BRANCH  15  20
HETATM   20  O   UNL     1      26.925  48.195  49.557  1.00  0.00    -0.358 OA
HETATM   21  H   UNL     1      27.859  48.211  49.844  1.00  0.00     0.218 HD
ENDBRANCH  15  20
ENDBRANCH   7  12
BRANCH   1  22
HETATM   22  C   UNL     1      28.267  42.620  52.640  1.00  0.00    -0.002 A 
HETATM   23  C   UNL     1      27.532  43.561  53.378  1.00  0.00     0.050 A 
HETATM   24  C   UNL     1      28.119  44.281  54.424  1.00  0.00     0.069 A 
HETATM   25  C   UNL     1      29.460  44.060  54.738  1.00  0.00     0.037 A 
HETATM   26  C   UNL     1      30.206  43.135  54.005  1.00  0.00     0.004 A 
HETATM   27  C   UNL     1      29.616  42.422  52.959  1.00  0.00     0.014 A 
BRANCH  24  28
HETATM   28  O   UNL     1      27.281  45.161  55.054  1.00  0.00    -0.356 OA
HETATM   29  C   UNL     1      27.859  46.364  55.543  1.00  0.00     0.210 C 
ENDBRANCH  24  28
ENDBRANCH   1  22
TORSDOF 5
ENDMDL
MODEL 7
REMARK VINA RESULT:      -7.9     12.229     14.903
REMARK  5 active torsions:
REMARK  status: ('A' for Active; 'I' for Inactive)
REMARK    1  A    between atoms: O_2  and  C_3 
REMARK    2  A    between atoms: C_5  and  C_6 
REMARK    3  A    between atoms: C_12  and  C_13 
REMARK    4  A    between atoms: C_15  and  O_16 
REMARK    5  A    between atoms: C_18  and  O_19 
ROOT
HETATM    1  C   UNL     1      28.058  50.628  39.188  1.00  0.00     0.098 A 
HETATM    2  N   UNL     1      27.838  51.386  38.085  1.00  0.00    -0.173 NA
HETATM    3  N   UNL     1      28.393  52.592  38.356  1.00  0.00    -0.272 N 
HETATM    4  H   UNL     1      28.338  53.329  37.660  1.00  0.00     0.189 HD
HETATM    5  C   UNL     1      28.957  52.608  39.572  1.00  0.00     0.128 A 
HETATM    6  C   UNL     1      28.780  51.377  40.134  1.00  0.00     0.034 A 
HETATM    7  C   UNL     1      29.394  51.347  41.477  1.00  0.00     0.156 A 
HETATM    8  N   UNL     1      29.924  52.723  41.544  1.00  0.00    -0.343 N 
HETATM    9  C   UNL     1      29.673  53.489  40.412  1.00  0.00     0.271 A 
HETATM   10  O   UNL     1      30.014  54.639  40.206  1.00  0.00    -0.266 OA
HETATM   11  H   UNL     1      30.455  53.089  42.320  1.00  0.00     0.163 HD
ENDROOT
BRANCH   7  12
HETATM   12  C   UNL     1      30.480  50.300  41.495  1.00  0.00    -0.028 A 
HETATM   13  C   UNL     1      31.848  50.624  41.361  1.00  0.00     0.049 A 
HETATM   14  C   UNL     1      32.829  49.630  41.393  1.00  0.00     0.101 A 
HETATM   15  C   UNL     1      32.433  48.300  41.567  1.00  0.00     0.099 A 
HETATM   16  C   UNL     1      31.097  47.951  41.703  1.00  0.00     0.040 A 
HETATM   17  C   UNL     1      30.124  48.949  41.668  1.00  0.00     0.012 A 
BRANCH  14  18
HETATM   18  O   UNL     1      34.181  49.820  41.275  1.00  0.00    -0.353 OA
HETATM   19  C   UNL     1      34.775  50.753  42.172  1.00  0.00     0.210 C 
ENDBRANCH  14  18
BRANCH  15  20
HETATM   20  O   UNL     1      33.369  47.303  41.607  1.00  0.00    -0.358 OA
HETATM   21  H   UNL     1      32.857  46.475  41.508  1.00  0.00     0.218 HD
ENDBRANCH  15  20
ENDBRANCH   7  12
BRANCH   1  22
HETATM   22  C   UNL     1      27.579  49.250  39.271  1.00  0.00    -0.002 A 
HETATM   23  C   UNL     1      26.487  48.931  40.094  1.00  0.00     0.050 A 
HETATM   24  C   UNL     1      26.006  47.622  40.187  1.00  0.00     0.069 A 
HETATM   25  C   UNL     1      26.624  46.613  39.447  1.00  0.00     0.037 A 
HETATM   26  C   UNL     1      27.718  46.913  38.633  1.00  0.00     0.004 A 
HETATM   27  C   UNL     1      28.196  48.223  38.548  1.00  0.00     0.014 A 
BRANCH  24  28
HETATM   28  O   UNL     1      24.937  47.462  41.025  1.00  0.00    -0.356 OA
HETATM   29  C   UNL     1      24.697  46.152  41.523  1.00  0.00     0.210 C 
ENDBRANCH  24  28
ENDBRANCH   1  22
TORSDOF 5
ENDMDL
MODEL 8
REMARK VINA RESULT:      -7.9     12.745     14.388
REMARK  5 active torsions:
REMARK  status: ('A' for Active; 'I' for Inactive)
REMARK    1  A    between atoms: O_2  and  C_3 
REMARK    2  A    between atoms: C_5  and  C_6 
REMARK    3  A    between atoms: C_12  and  C_13 
REMARK    4  A    between atoms: C_15  and  O_16 
REMARK    5  A    between atoms: C_18  and  O_19 
ROOT
HETATM    1  C   UNL     1      28.149  49.420  39.976  1.00  0.00     0.098 A 
HETATM    2  N   UNL     1      26.998  49.079  40.607  1.00  0.00    -0.173 NA
HETATM    3  N   UNL     1      27.016  47.726  40.688  1.00  0.00    -0.272 N 
HETATM    4  H   UNL     1      26.234  47.247  41.125  1.00  0.00     0.189 HD
HETATM    5  C   UNL     1      28.132  47.219  40.147  1.00  0.00     0.128 A 
HETATM    6  C   UNL     1      28.889  48.259  39.692  1.00  0.00     0.034 A 
HETATM    7  C   UNL     1      30.137  47.745  39.090  1.00  0.00     0.156 A 
HETATM    8  N   UNL     1      29.939  46.297  39.296  1.00  0.00    -0.343 N 
HETATM    9  C   UNL     1      28.746  45.966  39.929  1.00  0.00     0.271 A 
HETATM   10  O   UNL     1      28.352  44.855  40.230  1.00  0.00    -0.266 OA
HETATM   11  H   UNL     1      30.612  45.591  39.039  1.00  0.00     0.163 HD
ENDROOT
BRANCH   7  12
HETATM   12  C   UNL     1      31.313  48.292  39.862  1.00  0.00    -0.028 A 
HETATM   13  C   UNL     1      31.764  49.622  39.713  1.00  0.00     0.049 A 
HETATM   14  C   UNL     1      32.849  50.099  40.451  1.00  0.00     0.101 A 
HETATM   15  C   UNL     1      33.483  49.236  41.349  1.00  0.00     0.099 A 
HETATM   16  C   UNL     1      33.062  47.925  41.519  1.00  0.00     0.040 A 
HETATM   17  C   UNL     1      31.978  47.455  40.777  1.00  0.00     0.012 A 
BRANCH  14  18
HETATM   18  O   UNL     1      33.376  51.364  40.394  1.00  0.00    -0.353 OA
HETATM   19  C   UNL     1      32.928  52.194  39.328  1.00  0.00     0.210 C 
ENDBRANCH  14  18
BRANCH  15  20
HETATM   20  O   UNL     1      34.547  49.674  42.091  1.00  0.00    -0.358 OA
HETATM   21  H   UNL     1      35.186  48.934  42.072  1.00  0.00     0.218 HD
ENDBRANCH  15  20
ENDBRANCH   7  12
BRANCH   1  22
HETATM   22  C   UNL     1      28.474  50.817  39.691  1.00  0.00    -0.002 A 
HETATM   23  C   UNL     1      29.165  51.588  40.639  1.00  0.00     0.050 A 
HETATM   24  C   UNL     1      29.492  52.924  40.388  1.00  0.00     0.069 A 
HETATM   25  C   UNL     1      29.124  53.501  39.173  1.00  0.00     0.037 A 
HETATM   26  C   UNL     1      28.427  52.749  38.224  1.00  0.00     0.004 A 
HETATM   27  C   UNL     1      28.099  51.416  38.483  1.00  0.00     0.014 A 
BRANCH  24  28
HETATM   28  O   UNL     1      30.166  53.548  41.402  1.00  0.00    -0.356 OA
HETATM   29  C   UNL     1      30.665  52.724  42.447  1.00  0.00     0.210 C 
ENDBRANCH  24  28
ENDBRANCH   1  22
TORSDOF 5
ENDMDL
MODEL 9
REMARK VINA RESULT:      -7.8      2.393      3.675
REMARK  5 active torsions:
REMARK  status: ('A' for Active; 'I' for Inactive)
REMARK    1  A    between atoms: O_2  and  C_3 
REMARK    2  A    between atoms: C_5  and  C_6 
REMARK    3  A    between atoms: C_12  and  C_13 
REMARK    4  A    between atoms: C_15  and  O_16 
REMARK    5  A    between atoms: C_18  and  O_19 
ROOT
HETATM    1  C   UNL     1      26.793  42.111  49.863  1.00  0.00     0.098 A 
HETATM    2  N   UNL     1      27.208  41.815  48.606  1.00  0.00    -0.173 NA
HETATM    3  N   UNL     1      26.132  42.019  47.810  1.00  0.00    -0.272 N 
HETATM    4  H   UNL     1      26.215  41.848  46.812  1.00  0.00     0.189 HD
HETATM    5  C   UNL     1      25.074  42.440  48.517  1.00  0.00     0.128 A 
HETATM    6  C   UNL     1      25.450  42.525  49.827  1.00  0.00     0.034 A 
HETATM    7  C   UNL     1      24.312  42.993  50.645  1.00  0.00     0.156 A 
HETATM    8  N   UNL     1      23.290  43.149  49.592  1.00  0.00    -0.343 N 
HETATM    9  C   UNL     1      23.730  42.825  48.313  1.00  0.00     0.271 A 
HETATM   10  O   UNL     1      23.097  42.883  47.277  1.00  0.00    -0.266 OA
HETATM   11  H   UNL     1      22.356  43.493  49.756  1.00  0.00     0.163 HD
ENDROOT
BRANCH   7  12
HETATM   12  C   UNL     1      24.686  44.300  51.299  1.00  0.00    -0.028 A 
HETATM   13  C   UNL     1      24.687  45.526  50.596  1.00  0.00     0.049 A 
HETATM   14  C   UNL     1      25.028  46.720  51.235  1.00  0.00     0.101 A 
HETATM   15  C   UNL     1      25.365  46.685  52.591  1.00  0.00     0.099 A 
HETATM   16  C   UNL     1      25.370  45.497  53.308  1.00  0.00     0.040 A 
HETATM   17  C   UNL     1      25.031  44.309  52.663  1.00  0.00     0.012 A 
BRANCH  14  18
HETATM   18  O   UNL     1      25.065  47.965  50.661  1.00  0.00    -0.353 OA
HETATM   19  C   UNL     1      26.074  48.187  49.682  1.00  0.00     0.210 C 
ENDBRANCH  14  18
BRANCH  15  20
HETATM   20  O   UNL     1      25.699  47.838  53.248  1.00  0.00    -0.358 OA
HETATM   21  H   UNL     1      24.860  48.334  53.325  1.00  0.00     0.218 HD
ENDBRANCH  15  20
ENDBRANCH   7  12
BRANCH   1  22
HETATM   22  C   UNL     1      27.692  41.989  51.009  1.00  0.00    -0.002 A 
HETATM   23  C   UNL     1      28.058  43.128  51.743  1.00  0.00     0.050 A 
HETATM   24  C   UNL     1      28.912  43.037  52.847  1.00  0.00     0.069 A 
HETATM   25  C   UNL     1      29.410  41.790  53.224  1.00  0.00     0.037 A 
HETATM   26  C   UNL     1      29.063  40.649  52.497  1.00  0.00     0.004 A 
HETATM   27  C   UNL     1      28.213  40.747  51.393  1.00  0.00     0.014 A 
BRANCH  24  28
HETATM   28  O   UNL     1      29.178  44.229  53.464  1.00  0.00    -0.356 OA
HETATM   29  C   UNL     1      28.640  44.414  54.767  1.00  0.00     0.210 C 
ENDBRANCH  24  28
ENDBRANCH   1  22
TORSDOF 5
ENDMDL
MODEL 10
REMARK VINA RESULT:      -7.8      1.458      5.281
REMARK  5 active torsions:
REMARK  status: ('A' for Active; 'I' for Inactive)
REMARK    1  A    between atoms: O_2  and  C_3 
REMARK    2  A    between atoms: C_5  and  C_6 
REMARK    3  A    between atoms: C_12  and  C_13 
REMARK    4  A    between atoms: C_15  and  O_16 
REMARK    5  A    between atoms: C_18  and  O_19 
ROOT
HETATM    1  C   UNL     1      25.961  43.412  50.684  1.00  0.00     0.098 A 
HETATM    2  N   UNL     1      24.816  42.709  50.502  1.00  0.00    -0.173 NA
HETATM    3  N   UNL     1      25.188  41.407  50.480  1.00  0.00    -0.272 N 
HETATM    4  H   UNL     1      24.480  40.692  50.345  1.00  0.00     0.189 HD
HETATM    5  C   UNL     1      26.511  41.274  50.655  1.00  0.00     0.128 A 
HETATM    6  C   UNL     1      27.043  42.523  50.801  1.00  0.00     0.034 A 
HETATM    7  C   UNL     1      28.503  42.423  51.003  1.00  0.00     0.156 A 
HETATM    8  N   UNL     1      28.667  40.958  50.951  1.00  0.00    -0.343 N 
HETATM    9  C   UNL     1      27.485  40.256  50.746  1.00  0.00     0.271 A 
HETATM   10  O   UNL     1      27.343  39.050  50.681  1.00  0.00    -0.266 OA
HETATM   11  H   UNL     1      29.546  40.481  51.084  1.00  0.00     0.163 HD
ENDROOT
BRANCH   7  12
HETATM   12  C   UNL     1      28.851  43.005  52.351  1.00  0.00    -0.028 A 
HETATM   13  C   UNL     1      27.983  43.877  53.047  1.00  0.00     0.049 A 
HETATM   14  C   UNL     1      28.331  44.389  54.298  1.00  0.00     0.101 A 
HETATM   15  C   UNL     1      29.557  44.019  54.859  1.00  0.00     0.099 A 
HETATM   16  C   UNL     1      30.428  43.163  54.202  1.00  0.00     0.040 A 
HETATM   17  C   UNL     1      30.075  42.657  52.951  1.00  0.00     0.012 A 
BRANCH  14  18
HETATM   18  O   UNL     1      27.577  45.239  55.066  1.00  0.00    -0.353 OA
HETATM   19  C   UNL     1      27.497  46.591  54.629  1.00  0.00     0.210 C 
ENDBRANCH  14  18
BRANCH  15  20
HETATM   20  O   UNL     1      29.927  44.499  56.086  1.00  0.00    -0.358 OA
HETATM   21  H   UNL     1      30.848  44.194  56.207  1.00  0.00     0.218 HD
ENDBRANCH  15  20
ENDBRANCH   7  12
BRANCH   1  22
HETATM   22  C   UNL     1      25.955  44.873  50.742  1.00  0.00    -0.002 A 
HETATM   23  C   UNL     1      26.739  45.617  49.847  1.00  0.00     0.050 A 
HETATM   24  C   UNL     1      26.746  47.016  49.878  1.00  0.00     0.069 A 
HETATM   25  C   UNL     1      25.960  47.682  50.818  1.00  0.00     0.037 A 
HETATM   26  C   UNL     1      25.183  46.954  51.722  1.00  0.00     0.004 A 
HETATM   27  C   UNL     1      25.184  45.558  51.688  1.00  0.00     0.014 A 
BRANCH  24  28
HETATM   28  O   UNL     1      27.556  47.605  48.945  1.00  0.00    -0.356 OA
HETATM   29  C   UNL     1      27.734  49.012  49.044  1.00  0.00     0.210 C 
ENDBRANCH  24  28
ENDBRANCH   1  22
TORSDOF 5
ENDMDL
