MODEL 1
REMARK VINA RESULT:     -10.2      0.000      0.000
REMARK  6 active torsions:
REMARK  status: ('A' for Active; 'I' for Inactive)
REMARK    1  A    between atoms: C_8  and  C_9 
REMARK    2  A    between atoms: N_10  and  N_11 
REMARK       I    between atoms: N_11  and  C_12 
REMARK    3  A    between atoms: C_12  and  C_13 
REMARK    4  A    between atoms: C_16  and  N_17 
REMARK    5  A    between atoms: N_17  and  C_18 
REMARK    6  A    between atoms: C_18  and  C_19 
ROOT
HETATM    1  C   UNL     1      25.056  46.727  50.896  1.00  0.00     0.033 A 
HETATM    2  C   UNL     1      25.712  47.151  52.054  1.00  0.00     0.019 A 
HETATM    3  C   UNL     1      26.367  46.222  52.875  1.00  0.00     0.030 A 
HETATM    4  C   UNL     1      26.352  44.852  52.582  1.00  0.00     0.028 A 
HETATM    5  C   UNL     1      25.688  44.446  51.416  1.00  0.00     0.030 A 
HETATM    6  C   UNL     1      25.032  45.364  50.590  1.00  0.00     0.019 A 
ENDROOT
BRANCH   1   7
HETATM    7  C   UNL     1      24.383  47.673  49.961  1.00  0.00     0.271 C 
HETATM    8  N   UNL     1      23.087  47.326  49.601  1.00  0.00    -0.243 N 
HETATM    9  H   UNL     1      22.698  46.444  49.910  1.00  0.00     0.192 HD
HETATM   10  O   UNL     1      24.990  48.677  49.603  1.00  0.00    -0.266 OA
BRANCH   8  11
HETATM   11  N   UNL     1      22.261  47.993  48.732  1.00  0.00    -0.183 NA
HETATM   12  C   UNL     1      20.978  47.844  48.830  1.00  0.00     0.152 C 
BRANCH  12  13
HETATM   13  C   UNL     1      20.117  48.572  47.915  1.00  0.00     0.011 A 
HETATM   14  C   UNL     1      19.676  49.929  48.036  1.00  0.00     0.004 A 
HETATM   15  C   UNL     1      19.893  50.954  48.982  1.00  0.00     0.014 A 
HETATM   16  C   UNL     1      18.854  50.202  46.942  1.00  0.00     0.043 A 
HETATM   17  C   UNL     1      19.284  52.202  48.802  1.00  0.00     0.001 A 
HETATM   18  C   UNL     1      18.468  52.439  47.699  1.00  0.00     0.002 A 
HETATM   19  C   UNL     1      18.238  51.444  46.745  1.00  0.00     0.030 A 
HETATM   20  N   UNL     1      18.803  49.059  46.178  1.00  0.00    -0.364 N 
HETATM   21  H   UNL     1      18.281  48.967  45.318  1.00  0.00     0.165 HD
HETATM   22  C   UNL     1      19.554  48.072  46.755  1.00  0.00     0.102 A 
ENDBRANCH  12  13
ENDBRANCH   8  11
ENDBRANCH   1   7
BRANCH   4  23
HETATM   23  N   UNL     1      27.078  43.900  53.295  1.00  0.00    -0.386 N 
HETATM   24  H   UNL     1      26.835  43.877  54.282  1.00  0.00     0.160 HD
BRANCH  23  25
HETATM   25  C   UNL     1      28.503  43.714  53.066  1.00  0.00     0.158 C 
BRANCH  25  26
HETATM   26  C   UNL     1      29.253  43.960  54.357  1.00  0.00    -0.038 A 
HETATM   27  C   UNL     1      28.924  45.050  55.180  1.00  0.00     0.048 A 
HETATM   28  C   UNL     1      29.658  45.236  56.333  1.00  0.00     0.105 A 
HETATM   29  C   UNL     1      30.684  44.392  56.688  1.00  0.00     0.105 A 
HETATM   30  O   UNL     1      29.477  46.239  57.234  1.00  0.00    -0.323 OA
HETATM   31  O   UNL     1      31.276  44.757  57.856  1.00  0.00    -0.323 OA
HETATM   32  C   UNL     1      31.035  43.311  55.912  1.00  0.00     0.040 A 
HETATM   33  C   UNL     1      30.511  45.933  58.193  1.00  0.00     0.352 A 
HETATM   34  C   UNL     1      30.310  43.097  54.734  1.00  0.00     0.012 A 
ENDBRANCH  25  26
ENDBRANCH  23  25
ENDBRANCH   4  23
TORSDOF 6
ENDMDL
MODEL 2
REMARK VINA RESULT:     -10.0      2.847     12.061
REMARK  6 active torsions:
REMARK  status: ('A' for Active; 'I' for Inactive)
REMARK    1  A    between atoms: C_8  and  C_9 
REMARK    2  A    between atoms: N_10  and  N_11 
REMARK       I    between atoms: N_11  and  C_12 
REMARK    3  A    between atoms: C_12  and  C_13 
REMARK    4  A    between atoms: C_16  and  N_17 
REMARK    5  A    between atoms: N_17  and  C_18 
REMARK    6  A    between atoms: C_18  and  C_19 
ROOT
HETATM    1  C   UNL     1      25.314  45.970  49.926  1.00  0.00     0.033 A 
HETATM    2  C   UNL     1      24.238  45.316  49.320  1.00  0.00     0.019 A 
HETATM    3  C   UNL     1      23.151  46.052  48.829  1.00  0.00     0.030 A 
HETATM    4  C   UNL     1      23.093  47.446  48.960  1.00  0.00     0.028 A 
HETATM    5  C   UNL     1      24.182  48.084  49.571  1.00  0.00     0.030 A 
HETATM    6  C   UNL     1      25.272  47.360  50.065  1.00  0.00     0.019 A 
ENDROOT
BRANCH   1   7
HETATM    7  C   UNL     1      26.518  45.247  50.426  1.00  0.00     0.271 C 
HETATM    8  N   UNL     1      26.615  45.145  51.807  1.00  0.00    -0.243 N 
HETATM    9  H   UNL     1      25.937  45.615  52.396  1.00  0.00     0.192 HD
HETATM   10  O   UNL     1      27.305  44.780  49.608  1.00  0.00    -0.266 OA
BRANCH   8  11
HETATM   11  N   UNL     1      27.630  44.569  52.528  1.00  0.00    -0.183 NA
HETATM   12  C   UNL     1      27.934  45.043  53.694  1.00  0.00     0.152 C 
BRANCH  12  13
HETATM   13  C   UNL     1      28.998  44.410  54.452  1.00  0.00     0.011 A 
HETATM   14  C   UNL     1      29.520  44.821  55.720  1.00  0.00     0.004 A 
HETATM   15  C   UNL     1      29.227  45.876  56.611  1.00  0.00     0.014 A 
HETATM   16  C   UNL     1      30.540  43.931  56.062  1.00  0.00     0.043 A 
HETATM   17  C   UNL     1      29.958  46.002  57.798  1.00  0.00     0.001 A 
HETATM   18  C   UNL     1      30.970  45.098  58.107  1.00  0.00     0.002 A 
HETATM   19  C   UNL     1      31.281  44.042  57.245  1.00  0.00     0.030 A 
HETATM   20  N   UNL     1      30.630  43.008  55.046  1.00  0.00    -0.364 N 
HETATM   21  H   UNL     1      31.285  42.238  55.027  1.00  0.00     0.165 HD
HETATM   22  C   UNL     1      29.712  43.287  54.072  1.00  0.00     0.102 A 
ENDBRANCH  12  13
ENDBRANCH   8  11
ENDBRANCH   1   7
BRANCH   4  23
HETATM   23  N   UNL     1      22.097  48.238  48.392  1.00  0.00    -0.386 N 
HETATM   24  H   UNL     1      21.855  47.949  47.448  1.00  0.00     0.160 HD
BRANCH  23  25
HETATM   25  C   UNL     1      22.108  49.685  48.548  1.00  0.00     0.158 C 
BRANCH  25  26
HETATM   26  C   UNL     1      20.744  50.147  49.011  1.00  0.00    -0.038 A 
HETATM   27  C   UNL     1      20.231  51.389  48.601  1.00  0.00     0.048 A 
HETATM   28  C   UNL     1      18.991  51.767  49.074  1.00  0.00     0.105 A 
HETATM   29  C   UNL     1      18.260  50.966  49.921  1.00  0.00     0.105 A 
HETATM   30  O   UNL     1      18.354  52.933  48.784  1.00  0.00    -0.323 OA
HETATM   31  O   UNL     1      17.072  51.528  50.268  1.00  0.00    -0.323 OA
HETATM   32  C   UNL     1      18.724  49.741  50.342  1.00  0.00     0.040 A 
HETATM   33  C   UNL     1      17.141  52.777  49.551  1.00  0.00     0.352 A 
HETATM   34  C   UNL     1      19.980  49.331  49.882  1.00  0.00     0.012 A 
ENDBRANCH  25  26
ENDBRANCH  23  25
ENDBRANCH   4  23
TORSDOF 6
ENDMDL
MODEL 3
REMARK VINA RESULT:      -9.8      3.028     12.307
REMARK  6 active torsions:
REMARK  status: ('A' for Active; 'I' for Inactive)
REMARK    1  A    between atoms: C_8  and  C_9 
REMARK    2  A    between atoms: N_10  and  N_11 
REMARK       I    between atoms: N_11  and  C_12 
REMARK    3  A    between atoms: C_12  and  C_13 
REMARK    4  A    between atoms: C_16  and  N_17 
REMARK    5  A    between atoms: N_17  and  C_18 
REMARK    6  A    between atoms: C_18  and  C_19 
ROOT
HETATM    1  C   UNL     1      25.118  48.026  49.330  1.00  0.00     0.033 A 
HETATM    2  C   UNL     1      25.295  49.317  48.824  1.00  0.00     0.019 A 
HETATM    3  C   UNL     1      24.184  50.103  48.489  1.00  0.00     0.030 A 
HETATM    4  C   UNL     1      22.878  49.612  48.614  1.00  0.00     0.028 A 
HETATM    5  C   UNL     1      22.720  48.314  49.121  1.00  0.00     0.030 A 
HETATM    6  C   UNL     1      23.822  47.521  49.460  1.00  0.00     0.019 A 
ENDROOT
BRANCH   1   7
HETATM    7  C   UNL     1      26.258  47.161  49.746  1.00  0.00     0.271 C 
HETATM    8  N   UNL     1      25.984  46.282  50.785  1.00  0.00    -0.243 N 
HETATM    9  H   UNL     1      25.085  46.317  51.250  1.00  0.00     0.192 HD
HETATM   10  O   UNL     1      27.323  47.263  49.145  1.00  0.00    -0.266 OA
BRANCH   8  11
HETATM   11  N   UNL     1      26.855  45.408  51.384  1.00  0.00    -0.183 NA
HETATM   12  C   UNL     1      26.759  45.181  52.655  1.00  0.00     0.152 C 
BRANCH  12  13
HETATM   13  C   UNL     1      27.676  44.239  53.271  1.00  0.00     0.011 A 
HETATM   14  C   UNL     1      28.624  44.506  54.310  1.00  0.00     0.004 A 
HETATM   15  C   UNL     1      28.979  45.657  55.047  1.00  0.00     0.014 A 
HETATM   16  C   UNL     1      29.299  43.315  54.579  1.00  0.00     0.043 A 
HETATM   17  C   UNL     1      29.989  45.575  56.014  1.00  0.00     0.001 A 
HETATM   18  C   UNL     1      30.643  44.370  56.254  1.00  0.00     0.002 A 
HETATM   19  C   UNL     1      30.310  43.214  55.542  1.00  0.00     0.030 A 
HETATM   20  N   UNL     1      28.777  42.356  53.742  1.00  0.00    -0.364 N 
HETATM   21  H   UNL     1      29.076  41.390  53.719  1.00  0.00     0.165 HD
HETATM   22  C   UNL     1      27.805  42.900  52.950  1.00  0.00     0.102 A 
ENDBRANCH  12  13
ENDBRANCH   8  11
ENDBRANCH   1   7
BRANCH   4  23
HETATM   23  N   UNL     1      21.736  50.383  48.406  1.00  0.00    -0.386 N 
HETATM   24  H   UNL     1      21.829  51.021  47.619  1.00  0.00     0.160 HD
BRANCH  23  25
HETATM   25  C   UNL     1      21.016  50.975  49.523  1.00  0.00     0.158 C 
BRANCH  25  26
HETATM   26  C   UNL     1      19.638  51.398  49.061  1.00  0.00    -0.038 A 
HETATM   27  C   UNL     1      18.701  51.908  49.975  1.00  0.00     0.048 A 
HETATM   28  C   UNL     1      17.454  52.255  49.499  1.00  0.00     0.105 A 
HETATM   29  C   UNL     1      17.116  52.117  48.173  1.00  0.00     0.105 A 
HETATM   30  O   UNL     1      16.432  52.755  50.245  1.00  0.00    -0.323 OA
HETATM   31  O   UNL     1      15.841  52.513  47.918  1.00  0.00    -0.323 OA
HETATM   32  C   UNL     1      18.006  51.626  47.245  1.00  0.00     0.040 A 
HETATM   33  C   UNL     1      15.410  52.909  49.237  1.00  0.00     0.352 A 
HETATM   34  C   UNL     1      19.279  51.262  47.698  1.00  0.00     0.012 A 
ENDBRANCH  25  26
ENDBRANCH  23  25
ENDBRANCH   4  23
TORSDOF 6
ENDMDL
MODEL 4
REMARK VINA RESULT:      -9.7      2.687     11.877
REMARK  6 active torsions:
REMARK  status: ('A' for Active; 'I' for Inactive)
REMARK    1  A    between atoms: C_8  and  C_9 
REMARK    2  A    between atoms: N_10  and  N_11 
REMARK       I    between atoms: N_11  and  C_12 
REMARK    3  A    between atoms: C_12  and  C_13 
REMARK    4  A    between atoms: C_16  and  N_17 
REMARK    5  A    between atoms: N_17  and  C_18 
REMARK    6  A    between atoms: C_18  and  C_19 
ROOT
HETATM    1  C   UNL     1      24.780  45.454  51.581  1.00  0.00     0.033 A 
HETATM    2  C   UNL     1      24.911  46.768  51.125  1.00  0.00     0.019 A 
HETATM    3  C   UNL     1      24.260  47.178  49.953  1.00  0.00     0.030 A 
HETATM    4  C   UNL     1      23.496  46.284  49.192  1.00  0.00     0.028 A 
HETATM    5  C   UNL     1      23.377  44.969  49.664  1.00  0.00     0.030 A 
HETATM    6  C   UNL     1      24.022  44.549  50.832  1.00  0.00     0.019 A 
ENDROOT
BRANCH   1   7
HETATM    7  C   UNL     1      25.410  44.973  52.843  1.00  0.00     0.271 C 
HETATM    8  N   UNL     1      26.593  45.610  53.193  1.00  0.00    -0.243 N 
HETATM    9  H   UNL     1      27.004  46.290  52.564  1.00  0.00     0.192 HD
HETATM   10  O   UNL     1      24.845  44.091  53.482  1.00  0.00    -0.266 OA
BRANCH   8  11
HETATM   11  N   UNL     1      27.393  45.339  54.274  1.00  0.00    -0.183 NA
HETATM   12  C   UNL     1      27.854  46.316  54.987  1.00  0.00     0.152 C 
BRANCH  12  13
HETATM   13  C   UNL     1      28.682  46.012  56.140  1.00  0.00     0.011 A 
HETATM   14  C   UNL     1      29.747  45.057  56.213  1.00  0.00     0.004 A 
HETATM   15  C   UNL     1      30.327  44.157  55.294  1.00  0.00     0.014 A 
HETATM   16  C   UNL     1      30.252  45.091  57.514  1.00  0.00     0.043 A 
HETATM   17  C   UNL     1      31.378  43.329  55.706  1.00  0.00     0.001 A 
HETATM   18  C   UNL     1      31.856  43.387  57.012  1.00  0.00     0.002 A 
HETATM   19  C   UNL     1      31.303  44.271  57.943  1.00  0.00     0.030 A 
HETATM   20  N   UNL     1      29.529  46.036  58.205  1.00  0.00    -0.364 N 
HETATM   21  H   UNL     1      29.680  46.277  59.175  1.00  0.00     0.165 HD
HETATM   22  C   UNL     1      28.582  46.593  57.391  1.00  0.00     0.102 A 
ENDBRANCH  12  13
ENDBRANCH   8  11
ENDBRANCH   1   7
BRANCH   4  23
HETATM   23  N   UNL     1      22.736  46.660  48.086  1.00  0.00    -0.386 N 
HETATM   24  H   UNL     1      23.156  47.421  47.559  1.00  0.00     0.160 HD
BRANCH  23  25
HETATM   25  C   UNL     1      21.288  46.774  48.173  1.00  0.00     0.158 C 
BRANCH  25  26
HETATM   26  C   UNL     1      20.913  48.222  48.401  1.00  0.00    -0.038 A 
HETATM   27  C   UNL     1      19.785  48.558  49.167  1.00  0.00     0.048 A 
HETATM   28  C   UNL     1      19.481  49.895  49.321  1.00  0.00     0.105 A 
HETATM   29  C   UNL     1      20.246  50.886  48.752  1.00  0.00     0.105 A 
HETATM   30  O   UNL     1      18.426  50.392  50.021  1.00  0.00    -0.323 OA
HETATM   31  O   UNL     1      19.769  52.130  49.024  1.00  0.00    -0.323 OA
HETATM   32  C   UNL     1      21.361  50.599  47.998  1.00  0.00     0.040 A 
HETATM   33  C   UNL     1      18.611  51.809  49.823  1.00  0.00     0.352 A 
HETATM   34  C   UNL     1      21.694  49.252  47.822  1.00  0.00     0.012 A 
ENDBRANCH  25  26
ENDBRANCH  23  25
ENDBRANCH   4  23
TORSDOF 6
ENDMDL
MODEL 5
REMARK VINA RESULT:      -9.5      1.948      2.485
REMARK  6 active torsions:
REMARK  status: ('A' for Active; 'I' for Inactive)
REMARK    1  A    between atoms: C_8  and  C_9 
REMARK    2  A    between atoms: N_10  and  N_11 
REMARK       I    between atoms: N_11  and  C_12 
REMARK    3  A    between atoms: C_12  and  C_13 
REMARK    4  A    between atoms: C_16  and  N_17 
REMARK    5  A    between atoms: N_17  and  C_18 
REMARK    6  A    between atoms: C_18  and  C_19 
ROOT
HETATM    1  C   UNL     1      23.626  46.707  49.468  1.00  0.00     0.033 A 
HETATM    2  C   UNL     1      24.479  47.541  50.196  1.00  0.00     0.019 A 
HETATM    3  C   UNL     1      25.565  46.999  50.898  1.00  0.00     0.030 A 
HETATM    4  C   UNL     1      25.805  45.620  50.920  1.00  0.00     0.028 A 
HETATM    5  C   UNL     1      24.938  44.799  50.185  1.00  0.00     0.030 A 
HETATM    6  C   UNL     1      23.851  45.328  49.481  1.00  0.00     0.019 A 
ENDROOT
BRANCH   1   7
HETATM    7  C   UNL     1      22.482  47.229  48.666  1.00  0.00     0.271 C 
HETATM    8  N   UNL     1      21.490  47.867  49.398  1.00  0.00    -0.243 N 
HETATM    9  H   UNL     1      21.541  47.882  50.410  1.00  0.00     0.192 HD
HETATM   10  O   UNL     1      22.507  47.087  47.447  1.00  0.00    -0.266 OA
BRANCH   8  11
HETATM   11  N   UNL     1      20.320  48.401  48.920  1.00  0.00    -0.183 NA
HETATM   12  C   UNL     1      19.254  48.364  49.654  1.00  0.00     0.152 C 
BRANCH  12  13
HETATM   13  C   UNL     1      18.029  48.952  49.141  1.00  0.00     0.011 A 
HETATM   14  C   UNL     1      17.607  50.315  49.260  1.00  0.00     0.004 A 
HETATM   15  C   UNL     1      18.163  51.470  49.850  1.00  0.00     0.014 A 
HETATM   16  C   UNL     1      16.365  50.425  48.633  1.00  0.00     0.043 A 
HETATM   17  C   UNL     1      17.462  52.680  49.796  1.00  0.00     0.001 A 
HETATM   18  C   UNL     1      16.223  52.754  49.165  1.00  0.00     0.002 A 
HETATM   19  C   UNL     1      15.650  51.627  48.569  1.00  0.00     0.030 A 
HETATM   20  N   UNL     1      16.046  49.179  48.144  1.00  0.00    -0.364 N 
HETATM   21  H   UNL     1      15.199  48.962  47.637  1.00  0.00     0.165 HD
HETATM   22  C   UNL     1      17.036  48.286  48.446  1.00  0.00     0.102 A 
ENDBRANCH  12  13
ENDBRANCH   8  11
ENDBRANCH   1   7
BRANCH   4  23
HETATM   23  N   UNL     1      26.929  45.038  51.502  1.00  0.00    -0.386 N 
HETATM   24  H   UNL     1      27.627  44.756  50.818  1.00  0.00     0.160 HD
BRANCH  23  25
HETATM   25  C   UNL     1      26.800  44.083  52.594  1.00  0.00     0.158 C 
BRANCH  25  26
HETATM   26  C   UNL     1      27.804  44.421  53.674  1.00  0.00    -0.038 A 
HETATM   27  C   UNL     1      28.840  43.528  53.995  1.00  0.00     0.048 A 
HETATM   28  C   UNL     1      29.711  43.881  55.005  1.00  0.00     0.105 A 
HETATM   29  C   UNL     1      29.590  45.068  55.690  1.00  0.00     0.105 A 
HETATM   30  O   UNL     1      30.759  43.134  55.445  1.00  0.00    -0.323 OA
HETATM   31  O   UNL     1      30.546  45.216  56.644  1.00  0.00    -0.323 OA
HETATM   32  C   UNL     1      28.592  45.972  55.403  1.00  0.00     0.040 A 
HETATM   33  C   UNL     1      31.279  43.984  56.489  1.00  0.00     0.352 A 
HETATM   34  C   UNL     1      27.691  45.641  54.385  1.00  0.00     0.012 A 
ENDBRANCH  25  26
ENDBRANCH  23  25
ENDBRANCH   4  23
TORSDOF 6
ENDMDL
MODEL 6
REMARK VINA RESULT:      -9.5      1.689      2.638
REMARK  6 active torsions:
REMARK  status: ('A' for Active; 'I' for Inactive)
REMARK    1  A    between atoms: C_8  and  C_9 
REMARK    2  A    between atoms: N_10  and  N_11 
REMARK       I    between atoms: N_11  and  C_12 
REMARK    3  A    between atoms: C_12  and  C_13 
REMARK    4  A    between atoms: C_16  and  N_17 
REMARK    5  A    between atoms: N_17  and  C_18 
REMARK    6  A    between atoms: C_18  and  C_19 
ROOT
HETATM    1  C   UNL     1      24.263  47.293  49.978  1.00  0.00     0.033 A 
HETATM    2  C   UNL     1      23.853  45.964  49.850  1.00  0.00     0.019 A 
HETATM    3  C   UNL     1      24.625  44.931  50.400  1.00  0.00     0.030 A 
HETATM    4  C   UNL     1      25.834  45.194  51.057  1.00  0.00     0.028 A 
HETATM    5  C   UNL     1      26.229  46.534  51.174  1.00  0.00     0.030 A 
HETATM    6  C   UNL     1      25.467  47.572  50.629  1.00  0.00     0.019 A 
ENDROOT
BRANCH   1   7
HETATM    7  C   UNL     1      23.462  48.436  49.454  1.00  0.00     0.271 C 
HETATM    8  N   UNL     1      22.117  48.167  49.240  1.00  0.00    -0.243 N 
HETATM    9  H   UNL     1      21.765  47.225  49.367  1.00  0.00     0.192 HD
HETATM   10  O   UNL     1      24.022  49.514  49.277  1.00  0.00    -0.266 OA
BRANCH   8  11
HETATM   11  N   UNL     1      21.170  49.019  48.732  1.00  0.00    -0.183 NA
HETATM   12  C   UNL     1      20.560  49.842  49.524  1.00  0.00     0.152 C 
BRANCH  12  13
HETATM   13  C   UNL     1      19.575  50.751  48.967  1.00  0.00     0.011 A 
HETATM   14  C   UNL     1      18.226  50.445  48.598  1.00  0.00     0.004 A 
HETATM   15  C   UNL     1      17.435  49.276  48.636  1.00  0.00     0.014 A 
HETATM   16  C   UNL     1      17.653  51.614  48.095  1.00  0.00     0.043 A 
HETATM   17  C   UNL     1      16.115  49.319  48.171  1.00  0.00     0.001 A 
HETATM   18  C   UNL     1      15.576  50.502  47.674  1.00  0.00     0.002 A 
HETATM   19  C   UNL     1      16.335  51.675  47.627  1.00  0.00     0.030 A 
HETATM   20  N   UNL     1      18.613  52.598  48.164  1.00  0.00    -0.364 N 
HETATM   21  H   UNL     1      18.476  53.555  47.869  1.00  0.00     0.165 HD
HETATM   22  C   UNL     1      19.772  52.090  48.683  1.00  0.00     0.102 A 
ENDBRANCH  12  13
ENDBRANCH   8  11
ENDBRANCH   1   7
BRANCH   4  23
HETATM   23  N   UNL     1      26.582  44.224  51.720  1.00  0.00    -0.386 N 
HETATM   24  H   UNL     1      26.777  43.411  51.141  1.00  0.00     0.160 HD
BRANCH  23  25
HETATM   25  C   UNL     1      26.295  43.868  53.102  1.00  0.00     0.158 C 
BRANCH  25  26
HETATM   26  C   UNL     1      27.451  44.295  53.979  1.00  0.00    -0.038 A 
HETATM   27  C   UNL     1      28.504  43.409  54.260  1.00  0.00     0.048 A 
HETATM   28  C   UNL     1      29.519  43.847  55.084  1.00  0.00     0.105 A 
HETATM   29  C   UNL     1      29.523  45.112  55.625  1.00  0.00     0.105 A 
HETATM   30  O   UNL     1      30.604  43.119  55.462  1.00  0.00    -0.323 OA
HETATM   31  O   UNL     1      30.610  45.338  56.409  1.00  0.00    -0.323 OA
HETATM   32  C   UNL     1      28.513  46.012  55.371  1.00  0.00     0.040 A 
HETATM   33  C   UNL     1      31.288  44.068  56.307  1.00  0.00     0.352 A 
HETATM   34  C   UNL     1      27.468  45.596  54.541  1.00  0.00     0.012 A 
ENDBRANCH  25  26
ENDBRANCH  23  25
ENDBRANCH   4  23
TORSDOF 6
ENDMDL
MODEL 7
REMARK VINA RESULT:      -9.4      2.984     12.159
REMARK  6 active torsions:
REMARK  status: ('A' for Active; 'I' for Inactive)
REMARK    1  A    between atoms: C_8  and  C_9 
REMARK    2  A    between atoms: N_10  and  N_11 
REMARK       I    between atoms: N_11  and  C_12 
REMARK    3  A    between atoms: C_12  and  C_13 
REMARK    4  A    between atoms: C_16  and  N_17 
REMARK    5  A    between atoms: N_17  and  C_18 
REMARK    6  A    between atoms: C_18  and  C_19 
ROOT
HETATM    1  C   UNL     1      24.182  47.856  49.555  1.00  0.00     0.033 A 
HETATM    2  C   UNL     1      23.697  49.113  49.188  1.00  0.00     0.019 A 
HETATM    3  C   UNL     1      22.433  49.236  48.592  1.00  0.00     0.030 A 
HETATM    4  C   UNL     1      21.644  48.112  48.317  1.00  0.00     0.028 A 
HETATM    5  C   UNL     1      22.148  46.859  48.691  1.00  0.00     0.030 A 
HETATM    6  C   UNL     1      23.407  46.724  49.287  1.00  0.00     0.019 A 
ENDROOT
BRANCH   1   7
HETATM    7  C   UNL     1      25.496  47.667  50.233  1.00  0.00     0.271 C 
HETATM    8  N   UNL     1      25.436  47.062  51.481  1.00  0.00    -0.243 N 
HETATM    9  H   UNL     1      24.536  46.854  51.897  1.00  0.00     0.192 HD
HETATM   10  O   UNL     1      26.515  48.024  49.649  1.00  0.00    -0.266 OA
BRANCH   8  11
HETATM   11  N   UNL     1      26.482  46.805  52.330  1.00  0.00    -0.183 NA
HETATM   12  C   UNL     1      26.241  46.445  53.550  1.00  0.00     0.152 C 
BRANCH  12  13
HETATM   13  C   UNL     1      27.359  46.158  54.431  1.00  0.00     0.011 A 
HETATM   14  C   UNL     1      28.278  45.064  54.335  1.00  0.00     0.004 A 
HETATM   15  C   UNL     1      28.427  43.978  53.445  1.00  0.00     0.014 A 
HETATM   16  C   UNL     1      29.177  45.177  55.396  1.00  0.00     0.043 A 
HETATM   17  C   UNL     1      29.457  43.053  53.650  1.00  0.00     0.001 A 
HETATM   18  C   UNL     1      30.335  43.195  54.721  1.00  0.00     0.002 A 
HETATM   19  C   UNL     1      30.214  44.262  55.616  1.00  0.00     0.030 A 
HETATM   20  N   UNL     1      28.826  46.302  56.107  1.00  0.00    -0.364 N 
HETATM   21  H   UNL     1      29.307  46.633  56.931  1.00  0.00     0.165 HD
HETATM   22  C   UNL     1      27.733  46.897  55.539  1.00  0.00     0.102 A 
ENDBRANCH  12  13
ENDBRANCH   8  11
ENDBRANCH   1   7
BRANCH   4  23
HETATM   23  N   UNL     1      20.339  48.181  47.833  1.00  0.00    -0.386 N 
HETATM   24  H   UNL     1      19.973  47.274  47.554  1.00  0.00     0.160 HD
BRANCH  23  25
HETATM   25  C   UNL     1      19.926  49.250  46.935  1.00  0.00     0.158 C 
BRANCH  25  26
HETATM   26  C   UNL     1      19.081  50.246  47.698  1.00  0.00    -0.038 A 
HETATM   27  C   UNL     1      17.700  50.040  47.859  1.00  0.00     0.048 A 
HETATM   28  C   UNL     1      16.979  50.995  48.545  1.00  0.00     0.105 A 
HETATM   29  C   UNL     1      17.572  52.120  49.068  1.00  0.00     0.105 A 
HETATM   30  O   UNL     1      15.640  50.956  48.783  1.00  0.00    -0.323 OA
HETATM   31  O   UNL     1      16.681  52.929  49.701  1.00  0.00    -0.323 OA
HETATM   32  C   UNL     1      18.921  52.356  48.937  1.00  0.00     0.040 A 
HETATM   33  C   UNL     1      15.458  52.190  49.510  1.00  0.00     0.352 A 
HETATM   34  C   UNL     1      19.680  51.408  48.243  1.00  0.00     0.012 A 
ENDBRANCH  25  26
ENDBRANCH  23  25
ENDBRANCH   4  23
TORSDOF 6
ENDMDL
MODEL 8
REMARK VINA RESULT:      -9.0      1.477      2.632
REMARK  6 active torsions:
REMARK  status: ('A' for Active; 'I' for Inactive)
REMARK    1  A    between atoms: C_8  and  C_9 
REMARK    2  A    between atoms: N_10  and  N_11 
REMARK       I    between atoms: N_11  and  C_12 
REMARK    3  A    between atoms: C_12  and  C_13 
REMARK    4  A    between atoms: C_16  and  N_17 
REMARK    5  A    between atoms: N_17  and  C_18 
REMARK    6  A    between atoms: C_18  and  C_19 
ROOT
HETATM    1  C   UNL     1      24.616  45.887  50.674  1.00  0.00     0.033 A 
HETATM    2  C   UNL     1      24.803  44.560  51.069  1.00  0.00     0.019 A 
HETATM    3  C   UNL     1      25.640  44.257  52.152  1.00  0.00     0.030 A 
HETATM    4  C   UNL     1      26.335  45.259  52.840  1.00  0.00     0.028 A 
HETATM    5  C   UNL     1      26.137  46.585  52.429  1.00  0.00     0.030 A 
HETATM    6  C   UNL     1      25.303  46.899  51.350  1.00  0.00     0.019 A 
ENDROOT
BRANCH   1   7
HETATM    7  C   UNL     1      23.704  46.275  49.561  1.00  0.00     0.271 C 
HETATM    8  N   UNL     1      23.234  47.581  49.609  1.00  0.00    -0.243 N 
HETATM    9  H   UNL     1      23.457  48.167  50.405  1.00  0.00     0.192 HD
HETATM   10  O   UNL     1      23.457  45.447  48.689  1.00  0.00    -0.266 OA
BRANCH   8  11
HETATM   11  N   UNL     1      22.359  48.180  48.740  1.00  0.00    -0.183 NA
HETATM   12  C   UNL     1      21.361  48.860  49.206  1.00  0.00     0.152 C 
BRANCH  12  13
HETATM   13  C   UNL     1      20.455  49.505  48.272  1.00  0.00     0.011 A 
HETATM   14  C   UNL     1      19.718  48.884  47.214  1.00  0.00     0.004 A 
HETATM   15  C   UNL     1      19.605  47.560  46.736  1.00  0.00     0.014 A 
HETATM   16  C   UNL     1      18.990  49.884  46.566  1.00  0.00     0.043 A 
HETATM   17  C   UNL     1      18.780  47.289  45.638  1.00  0.00     0.001 A 
HETATM   18  C   UNL     1      18.070  48.312  45.015  1.00  0.00     0.002 A 
HETATM   19  C   UNL     1      18.160  49.631  45.468  1.00  0.00     0.030 A 
HETATM   20  N   UNL     1      19.266  51.068  47.212  1.00  0.00    -0.364 N 
HETATM   21  H   UNL     1      18.874  51.964  46.959  1.00  0.00     0.165 HD
HETATM   22  C   UNL     1      20.147  50.853  48.235  1.00  0.00     0.102 A 
ENDBRANCH  12  13
ENDBRANCH   8  11
ENDBRANCH   1   7
BRANCH   4  23
HETATM   23  N   UNL     1      27.088  45.031  53.990  1.00  0.00    -0.386 N 
HETATM   24  H   UNL     1      26.770  44.221  54.516  1.00  0.00     0.160 HD
BRANCH  23  25
HETATM   25  C   UNL     1      27.496  46.131  54.852  1.00  0.00     0.158 C 
BRANCH  25  26
HETATM   26  C   UNL     1      28.613  45.667  55.760  1.00  0.00    -0.038 A 
HETATM   27  C   UNL     1      29.488  44.645  55.355  1.00  0.00     0.048 A 
HETATM   28  C   UNL     1      30.473  44.248  56.235  1.00  0.00     0.105 A 
HETATM   29  C   UNL     1      30.616  44.823  57.476  1.00  0.00     0.105 A 
HETATM   30  O   UNL     1      31.394  43.273  56.007  1.00  0.00    -0.323 OA
HETATM   31  O   UNL     1      31.645  44.284  58.183  1.00  0.00    -0.323 OA
HETATM   32  C   UNL     1      29.784  45.830  57.909  1.00  0.00     0.040 A 
HETATM   33  C   UNL     1      32.129  43.297  57.249  1.00  0.00     0.352 A 
HETATM   34  C   UNL     1      28.773  46.253  57.040  1.00  0.00     0.012 A 
ENDBRANCH  25  26
ENDBRANCH  23  25
ENDBRANCH   4  23
TORSDOF 6
ENDMDL
MODEL 9
REMARK VINA RESULT:      -8.9      2.984     12.443
REMARK  6 active torsions:
REMARK  status: ('A' for Active; 'I' for Inactive)
REMARK    1  A    between atoms: C_8  and  C_9 
REMARK    2  A    between atoms: N_10  and  N_11 
REMARK       I    between atoms: N_11  and  C_12 
REMARK    3  A    between atoms: C_12  and  C_13 
REMARK    4  A    between atoms: C_16  and  N_17 
REMARK    5  A    between atoms: N_17  and  C_18 
REMARK    6  A    between atoms: C_18  and  C_19 
ROOT
HETATM    1  C   UNL     1      25.357  46.130  49.989  1.00  0.00     0.033 A 
HETATM    2  C   UNL     1      25.349  47.527  49.983  1.00  0.00     0.019 A 
HETATM    3  C   UNL     1      24.201  48.225  49.581  1.00  0.00     0.030 A 
HETATM    4  C   UNL     1      23.054  47.551  49.144  1.00  0.00     0.028 A 
HETATM    5  C   UNL     1      23.081  46.149  49.155  1.00  0.00     0.030 A 
HETATM    6  C   UNL     1      24.221  45.443  49.554  1.00  0.00     0.019 A 
ENDROOT
BRANCH   1   7
HETATM    7  C   UNL     1      26.531  45.334  50.448  1.00  0.00     0.271 C 
HETATM    8  N   UNL     1      26.689  45.256  51.826  1.00  0.00    -0.243 N 
HETATM    9  H   UNL     1      26.075  45.785  52.434  1.00  0.00     0.192 HD
HETATM   10  O   UNL     1      27.242  44.796  49.605  1.00  0.00    -0.266 OA
BRANCH   8  11
HETATM   11  N   UNL     1      27.696  44.626  52.511  1.00  0.00    -0.183 NA
HETATM   12  C   UNL     1      27.967  44.987  53.724  1.00  0.00     0.152 C 
BRANCH  12  13
HETATM   13  C   UNL     1      29.023  44.297  54.443  1.00  0.00     0.011 A 
HETATM   14  C   UNL     1      29.616  44.680  55.688  1.00  0.00     0.004 A 
HETATM   15  C   UNL     1      29.417  45.750  56.586  1.00  0.00     0.014 A 
HETATM   16  C   UNL     1      30.598  43.736  55.993  1.00  0.00     0.043 A 
HETATM   17  C   UNL     1      30.200  45.838  57.744  1.00  0.00     0.001 A 
HETATM   18  C   UNL     1      31.172  44.879  58.016  1.00  0.00     0.002 A 
HETATM   19  C   UNL     1      31.389  43.806  57.146  1.00  0.00     0.030 A 
HETATM   20  N   UNL     1      30.596  42.807  54.978  1.00  0.00    -0.364 N 
HETATM   21  H   UNL     1      31.206  42.002  54.936  1.00  0.00     0.165 HD
HETATM   22  C   UNL     1      29.658  43.136  54.039  1.00  0.00     0.102 A 
ENDBRANCH  12  13
ENDBRANCH   8  11
ENDBRANCH   1   7
BRANCH   4  23
HETATM   23  N   UNL     1      21.850  48.185  48.842  1.00  0.00    -0.386 N 
HETATM   24  H   UNL     1      21.168  48.114  49.593  1.00  0.00     0.160 HD
BRANCH  23  25
HETATM   25  C   UNL     1      21.245  48.061  47.524  1.00  0.00     0.158 C 
BRANCH  25  26
HETATM   26  C   UNL     1      19.742  47.971  47.671  1.00  0.00    -0.038 A 
HETATM   27  C   UNL     1      18.899  48.848  46.968  1.00  0.00     0.048 A 
HETATM   28  C   UNL     1      17.538  48.733  47.160  1.00  0.00     0.105 A 
HETATM   29  C   UNL     1      16.999  47.793  48.008  1.00  0.00     0.105 A 
HETATM   30  O   UNL     1      16.586  49.503  46.568  1.00  0.00    -0.323 OA
HETATM   31  O   UNL     1      15.642  47.853  48.053  1.00  0.00    -0.323 OA
HETATM   32  C   UNL     1      17.789  46.912  48.710  1.00  0.00     0.040 A 
HETATM   33  C   UNL     1      15.387  48.944  47.144  1.00  0.00     0.352 A 
HETATM   34  C   UNL     1      19.174  47.006  48.539  1.00  0.00     0.012 A 
ENDBRANCH  25  26
ENDBRANCH  23  25
ENDBRANCH   4  23
TORSDOF 6
ENDMDL
MODEL 10
REMARK VINA RESULT:      -8.9      4.358     13.176
REMARK  6 active torsions:
REMARK  status: ('A' for Active; 'I' for Inactive)
REMARK    1  A    between atoms: C_8  and  C_9 
REMARK    2  A    between atoms: N_10  and  N_11 
REMARK       I    between atoms: N_11  and  C_12 
REMARK    3  A    between atoms: C_12  and  C_13 
REMARK    4  A    between atoms: C_16  and  N_17 
REMARK    5  A    between atoms: N_17  and  C_18 
REMARK    6  A    between atoms: C_18  and  C_19 
ROOT
HETATM    1  C   UNL     1      21.503  49.587  49.118  1.00  0.00     0.033 A 
HETATM    2  C   UNL     1      20.307  48.867  49.161  1.00  0.00     0.019 A 
HETATM    3  C   UNL     1      19.080  49.525  48.998  1.00  0.00     0.030 A 
HETATM    4  C   UNL     1      19.014  50.914  48.826  1.00  0.00     0.028 A 
HETATM    5  C   UNL     1      20.224  51.620  48.786  1.00  0.00     0.030 A 
HETATM    6  C   UNL     1      21.454  50.973  48.947  1.00  0.00     0.019 A 
ENDROOT
BRANCH   1   7
HETATM    7  C   UNL     1      22.839  48.937  49.238  1.00  0.00     0.271 C 
HETATM    8  N   UNL     1      22.813  47.558  49.400  1.00  0.00    -0.243 N 
HETATM    9  H   UNL     1      21.925  47.080  49.505  1.00  0.00     0.192 HD
HETATM   10  O   UNL     1      23.843  49.639  49.162  1.00  0.00    -0.266 OA
BRANCH   8  11
HETATM   11  N   UNL     1      23.886  46.722  49.572  1.00  0.00    -0.183 NA
HETATM   12  C   UNL     1      24.545  46.751  50.686  1.00  0.00     0.152 C 
BRANCH  12  13
HETATM   13  C   UNL     1      25.668  45.846  50.860  1.00  0.00     0.011 A 
HETATM   14  C   UNL     1      26.195  45.349  52.095  1.00  0.00     0.004 A 
HETATM   15  C   UNL     1      25.858  45.529  53.454  1.00  0.00     0.014 A 
HETATM   16  C   UNL     1      27.278  44.524  51.787  1.00  0.00     0.043 A 
HETATM   17  C   UNL     1      26.610  44.886  54.445  1.00  0.00     0.001 A 
HETATM   18  C   UNL     1      27.686  44.072  54.101  1.00  0.00     0.002 A 
HETATM   19  C   UNL     1      28.041  43.873  52.764  1.00  0.00     0.030 A 
HETATM   20  N   UNL     1      27.401  44.512  50.416  1.00  0.00    -0.364 N 
HETATM   21  H   UNL     1      28.103  43.992  49.908  1.00  0.00     0.165 HD
HETATM   22  C   UNL     1      26.441  45.305  49.850  1.00  0.00     0.102 A 
ENDBRANCH  12  13
ENDBRANCH   8  11
ENDBRANCH   1   7
BRANCH   4  23
HETATM   23  N   UNL     1      17.837  51.606  48.546  1.00  0.00    -0.386 N 
HETATM   24  H   UNL     1      17.926  52.609  48.687  1.00  0.00     0.160 HD
BRANCH  23  25
HETATM   25  C   UNL     1      16.544  51.094  48.979  1.00  0.00     0.158 C 
BRANCH  25  26
HETATM   26  C   UNL     1      15.545  52.230  49.015  1.00  0.00    -0.038 A 
HETATM   27  C   UNL     1      14.904  52.583  50.214  1.00  0.00     0.048 A 
HETATM   28  C   UNL     1      13.986  53.612  50.180  1.00  0.00     0.105 A 
HETATM   29  C   UNL     1      13.691  54.287  49.019  1.00  0.00     0.105 A 
HETATM   30  O   UNL     1      13.274  54.074  51.243  1.00  0.00    -0.323 OA
HETATM   31  O   UNL     1      12.759  55.259  49.205  1.00  0.00    -0.323 OA
HETATM   32  C   UNL     1      14.300  53.975  47.824  1.00  0.00     0.040 A 
HETATM   33  C   UNL     1      12.493  55.114  50.616  1.00  0.00     0.352 A 
HETATM   34  C   UNL     1      15.234  52.934  47.826  1.00  0.00     0.012 A 
ENDBRANCH  25  26
ENDBRANCH  23  25
ENDBRANCH   4  23
TORSDOF 6
ENDMDL
