MODEL 1
REMARK VINA RESULT:      -8.5      0.000      0.000
REMARK  3 active torsions:
REMARK  status: ('A' for Active; 'I' for Inactive)
REMARK    1  A    between atoms: C_2  and  N_3 
REMARK       I    between atoms: N_3  and  C_4 
REMARK    2  A    between atoms: C_4  and  C_5 
REMARK    3  A    between atoms: C_5  and  C_6 
ROOT
HETATM    1  C   UNL     1      26.643  45.971  54.644  1.00  0.00     0.286 C 
HETATM    2  N   UNL     1      27.700  45.088  53.965  1.00  0.00    -0.056 N 
HETATM    3  H   UNL     1      27.231  44.350  53.412  1.00  0.00     0.278 HD
HETATM    4  H   UNL     1      28.210  45.647  53.266  1.00  0.00     0.278 HD
HETATM    5  C   UNL     1      28.644  44.514  54.978  1.00  0.00     0.209 C 
HETATM    6  C   UNL     1      29.390  45.694  55.639  1.00  0.00     0.115 C 
HETATM    7  N   UNL     1      28.459  46.665  56.208  1.00  0.00    -0.353 N 
HETATM    8  C   UNL     1      27.275  47.018  55.592  1.00  0.00     0.249 C 
HETATM    9  O   UNL     1      26.725  48.076  55.871  1.00  0.00    -0.271 OA
HETATM   10  C   UNL     1      29.604  43.538  54.316  1.00  0.00     0.035 C 
HETATM   11  C   UNL     1      30.597  43.010  55.352  1.00  0.00     0.002 C 
HETATM   12  C   UNL     1      31.341  44.146  56.057  1.00  0.00     0.002 C 
HETATM   13  C   UNL     1      30.391  45.178  56.671  1.00  0.00     0.027 C 
HETATM   14  H   UNL     1      28.838  47.414  56.788  1.00  0.00     0.163 HD
ENDROOT
BRANCH   1  15
HETATM   15  C   UNL     1      25.771  46.633  53.585  1.00  0.00     0.146 C 
BRANCH  15  16
HETATM   16  C   UNL     1      25.380  45.578  52.593  1.00  0.00     0.224 C 
HETATM   17  N   UNL     1      25.176  45.794  51.272  1.00  0.00    -0.327 N 
HETATM   18  H   UNL     1      24.768  44.971  50.836  1.00  0.00     0.169 HD
HETATM   19  O   UNL     1      24.998  44.494  53.057  1.00  0.00    -0.273 OA
BRANCH  17  20
HETATM   20  C   UNL     1      25.316  46.900  50.416  1.00  0.00     0.034 A 
HETATM   21  C   UNL     1      26.518  47.499  50.042  1.00  0.00     0.031 A 
HETATM   22  C   UNL     1      26.520  48.620  49.200  1.00  0.00     0.026 A 
HETATM   23  C   UNL     1      25.323  49.142  48.720  1.00  0.00     0.034 A 
HETATM   24  C   UNL     1      24.120  48.539  49.057  1.00  0.00     0.026 A 
HETATM   25 CL   UNL     1      25.335  50.524  47.700  1.00  0.00    -0.084 Cl
HETATM   26  C   UNL     1      24.120  47.416  49.891  1.00  0.00     0.031 A 
ENDBRANCH  17  20
ENDBRANCH  15  16
ENDBRANCH   1  15
TORSDOF 3
ENDMDL
MODEL 2
REMARK VINA RESULT:      -8.4      4.285      7.181
REMARK  3 active torsions:
REMARK  status: ('A' for Active; 'I' for Inactive)
REMARK    1  A    between atoms: C_2  and  N_3 
REMARK       I    between atoms: N_3  and  C_4 
REMARK    2  A    between atoms: C_4  and  C_5 
REMARK    3  A    between atoms: C_5  and  C_6 
ROOT
HETATM    1  C   UNL     1      26.227  43.823  52.495  1.00  0.00     0.286 C 
HETATM    2  N   UNL     1      27.006  42.505  52.597  1.00  0.00    -0.056 N 
HETATM    3  H   UNL     1      27.908  42.671  53.076  1.00  0.00     0.278 HD
HETATM    4  H   UNL     1      26.498  41.859  53.220  1.00  0.00     0.278 HD
HETATM    5  C   UNL     1      27.197  41.893  51.241  1.00  0.00     0.209 C 
HETATM    6  C   UNL     1      25.798  41.556  50.682  1.00  0.00     0.115 C 
HETATM    7  N   UNL     1      24.930  42.732  50.664  1.00  0.00    -0.353 N 
HETATM    8  C   UNL     1      24.925  43.674  51.673  1.00  0.00     0.249 C 
HETATM    9  O   UNL     1      23.955  44.406  51.829  1.00  0.00    -0.271 OA
HETATM   10  C   UNL     1      28.081  40.659  51.335  1.00  0.00     0.035 C 
HETATM   11  C   UNL     1      28.214  40.016  49.955  1.00  0.00     0.002 C 
HETATM   12  C   UNL     1      26.849  39.690  49.344  1.00  0.00     0.002 C 
HETATM   13  C   UNL     1      25.919  40.905  49.305  1.00  0.00     0.027 C 
HETATM   14  H   UNL     1      24.031  42.660  50.189  1.00  0.00     0.163 HD
ENDROOT
BRANCH   1  15
HETATM   15  C   UNL     1      25.946  44.362  53.892  1.00  0.00     0.146 C 
BRANCH  15  16
HETATM   16  C   UNL     1      26.506  45.751  53.965  1.00  0.00     0.224 C 
HETATM   17  N   UNL     1      27.701  46.077  54.510  1.00  0.00    -0.327 N 
HETATM   18  H   UNL     1      27.794  47.088  54.587  1.00  0.00     0.169 HD
HETATM   19  O   UNL     1      25.722  46.679  53.716  1.00  0.00    -0.273 OA
BRANCH  17  20
HETATM   20  C   UNL     1      28.771  45.350  55.059  1.00  0.00     0.034 A 
HETATM   21  C   UNL     1      29.325  44.185  54.531  1.00  0.00     0.031 A 
HETATM   22  C   UNL     1      30.377  43.535  55.193  1.00  0.00     0.026 A 
HETATM   23  C   UNL     1      30.886  44.052  56.381  1.00  0.00     0.034 A 
HETATM   24  C   UNL     1      30.366  45.228  56.903  1.00  0.00     0.026 A 
HETATM   25 CL   UNL     1      32.165  43.242  57.192  1.00  0.00    -0.084 Cl
HETATM   26  C   UNL     1      29.323  45.879  56.237  1.00  0.00     0.031 A 
ENDBRANCH  17  20
ENDBRANCH  15  16
ENDBRANCH   1  15
TORSDOF 3
ENDMDL
MODEL 3
REMARK VINA RESULT:      -8.2      3.496      8.183
REMARK  3 active torsions:
REMARK  status: ('A' for Active; 'I' for Inactive)
REMARK    1  A    between atoms: C_2  and  N_3 
REMARK       I    between atoms: N_3  and  C_4 
REMARK    2  A    between atoms: C_4  and  C_5 
REMARK    3  A    between atoms: C_5  and  C_6 
ROOT
HETATM    1  C   UNL     1      25.370  47.253  49.838  1.00  0.00     0.286 C 
HETATM    2  N   UNL     1      23.887  47.557  50.095  1.00  0.00    -0.056 N 
HETATM    3  H   UNL     1      23.382  46.676  50.294  1.00  0.00     0.278 HD
HETATM    4  H   UNL     1      23.800  48.105  50.963  1.00  0.00     0.278 HD
HETATM    5  C   UNL     1      23.287  48.298  48.937  1.00  0.00     0.209 C 
HETATM    6  C   UNL     1      24.019  49.653  48.823  1.00  0.00     0.115 C 
HETATM    7  N   UNL     1      25.464  49.473  48.703  1.00  0.00    -0.353 N 
HETATM    8  C   UNL     1      26.161  48.511  49.407  1.00  0.00     0.249 C 
HETATM    9  O   UNL     1      27.366  48.631  49.588  1.00  0.00    -0.271 OA
HETATM   10  C   UNL     1      21.791  48.478  49.140  1.00  0.00     0.035 C 
HETATM   11  C   UNL     1      21.209  49.287  47.981  1.00  0.00     0.002 C 
HETATM   12  C   UNL     1      21.923  50.629  47.808  1.00  0.00     0.002 C 
HETATM   13  C   UNL     1      23.440  50.474  47.671  1.00  0.00     0.027 C 
HETATM   14  H   UNL     1      26.035  50.290  48.483  1.00  0.00     0.163 HD
ENDROOT
BRANCH   1  15
HETATM   15  C   UNL     1      25.982  46.607  51.074  1.00  0.00     0.146 C 
BRANCH  15  16
HETATM   16  C   UNL     1      25.521  45.181  51.118  1.00  0.00     0.224 C 
HETATM   17  N   UNL     1      26.110  44.198  51.839  1.00  0.00    -0.327 N 
HETATM   18  H   UNL     1      25.721  43.291  51.588  1.00  0.00     0.169 HD
HETATM   19  O   UNL     1      24.691  44.840  50.263  1.00  0.00    -0.273 OA
BRANCH  17  20
HETATM   20  C   UNL     1      27.169  44.144  52.762  1.00  0.00     0.034 A 
HETATM   21  C   UNL     1      27.212  44.791  53.996  1.00  0.00     0.031 A 
HETATM   22  C   UNL     1      28.344  44.680  54.816  1.00  0.00     0.026 A 
HETATM   23  C   UNL     1      29.434  43.915  54.411  1.00  0.00     0.034 A 
HETATM   24  C   UNL     1      29.394  43.240  53.199  1.00  0.00     0.026 A 
HETATM   25 CL   UNL     1      30.822  43.796  55.416  1.00  0.00    -0.084 Cl
HETATM   26  C   UNL     1      28.261  43.345  52.386  1.00  0.00     0.031 A 
ENDBRANCH  17  20
ENDBRANCH  15  16
ENDBRANCH   1  15
TORSDOF 3
ENDMDL
MODEL 4
REMARK VINA RESULT:      -8.1      3.934      4.891
REMARK  3 active torsions:
REMARK  status: ('A' for Active; 'I' for Inactive)
REMARK    1  A    between atoms: C_2  and  N_3 
REMARK       I    between atoms: N_3  and  C_4 
REMARK    2  A    between atoms: C_4  and  C_5 
REMARK    3  A    between atoms: C_5  and  C_6 
ROOT
HETATM    1  C   UNL     1      27.013  44.643  53.456  1.00  0.00     0.286 C 
HETATM    2  N   UNL     1      28.441  44.083  53.408  1.00  0.00    -0.056 N 
HETATM    3  H   UNL     1      28.434  43.157  52.945  1.00  0.00     0.278 HD
HETATM    4  H   UNL     1      29.017  44.675  52.792  1.00  0.00     0.278 HD
HETATM    5  C   UNL     1      29.032  44.016  54.784  1.00  0.00     0.209 C 
HETATM    6  C   UNL     1      29.125  45.461  55.321  1.00  0.00     0.115 C 
HETATM    7  N   UNL     1      27.827  46.130  55.286  1.00  0.00    -0.353 N 
HETATM    8  C   UNL     1      26.928  45.968  54.250  1.00  0.00     0.249 C 
HETATM    9  O   UNL     1      26.057  46.806  54.052  1.00  0.00    -0.271 OA
HETATM   10  C   UNL     1      30.393  43.338  54.746  1.00  0.00     0.035 C 
HETATM   11  C   UNL     1      31.005  43.334  56.146  1.00  0.00     0.002 C 
HETATM   12  C   UNL     1      31.091  44.743  56.734  1.00  0.00     0.002 C 
HETATM   13  C   UNL     1      29.743  45.470  56.718  1.00  0.00     0.027 C 
HETATM   14  H   UNL     1      27.741  47.039  55.742  1.00  0.00     0.163 HD
ENDROOT
BRANCH   1  15
HETATM   15  C   UNL     1      26.480  44.810  52.038  1.00  0.00     0.146 C 
BRANCH  15  16
HETATM   16  C   UNL     1      25.265  43.943  51.903  1.00  0.00     0.224 C 
HETATM   17  N   UNL     1      25.254  42.705  51.356  1.00  0.00    -0.327 N 
HETATM   18  H   UNL     1      24.297  42.379  51.231  1.00  0.00     0.169 HD
HETATM   19  O   UNL     1      24.169  44.488  52.097  1.00  0.00    -0.273 OA
BRANCH  17  20
HETATM   20  C   UNL     1      26.237  41.833  50.855  1.00  0.00     0.034 A 
HETATM   21  C   UNL     1      27.295  41.290  51.581  1.00  0.00     0.031 A 
HETATM   22  C   UNL     1      28.229  40.453  50.954  1.00  0.00     0.026 A 
HETATM   23  C   UNL     1      28.105  40.147  49.602  1.00  0.00     0.034 A 
HETATM   24  C   UNL     1      27.039  40.655  48.873  1.00  0.00     0.026 A 
HETATM   25 CL   UNL     1      29.262  39.131  48.841  1.00  0.00    -0.084 Cl
HETATM   26  C   UNL     1      26.104  41.483  49.502  1.00  0.00     0.031 A 
ENDBRANCH  17  20
ENDBRANCH  15  16
ENDBRANCH   1  15
TORSDOF 3
ENDMDL
MODEL 5
REMARK VINA RESULT:      -8.0      4.469      9.159
REMARK  3 active torsions:
REMARK  status: ('A' for Active; 'I' for Inactive)
REMARK    1  A    between atoms: C_2  and  N_3 
REMARK       I    between atoms: N_3  and  C_4 
REMARK    2  A    between atoms: C_4  and  C_5 
REMARK    3  A    between atoms: C_5  and  C_6 
ROOT
HETATM    1  C   UNL     1      22.474  48.575  48.462  1.00  0.00     0.286 C 
HETATM    2  N   UNL     1      21.482  48.703  49.626  1.00  0.00    -0.056 N 
HETATM    3  H   UNL     1      21.162  47.762  49.913  1.00  0.00     0.278 HD
HETATM    4  H   UNL     1      21.975  49.070  50.453  1.00  0.00     0.278 HD
HETATM    5  C   UNL     1      20.335  49.594  49.253  1.00  0.00     0.209 C 
HETATM    6  C   UNL     1      20.909  51.002  48.984  1.00  0.00     0.115 C 
HETATM    7  N   UNL     1      21.963  50.968  47.973  1.00  0.00    -0.353 N 
HETATM    8  C   UNL     1      22.896  49.952  47.896  1.00  0.00     0.249 C 
HETATM    9  O   UNL     1      23.961  50.135  47.321  1.00  0.00    -0.271 OA
HETATM   10  C   UNL     1      19.292  49.610  50.359  1.00  0.00     0.035 C 
HETATM   11  C   UNL     1      18.162  50.569  49.986  1.00  0.00     0.002 C 
HETATM   12  C   UNL     1      18.685  51.974  49.682  1.00  0.00     0.002 C 
HETATM   13  C   UNL     1      19.787  51.972  48.618  1.00  0.00     0.027 C 
HETATM   14  H   UNL     1      22.318  51.855  47.616  1.00  0.00     0.163 HD
ENDROOT
BRANCH   1  15
HETATM   15  C   UNL     1      23.684  47.763  48.907  1.00  0.00     0.146 C 
BRANCH  15  16
HETATM   16  C   UNL     1      23.217  46.364  49.179  1.00  0.00     0.224 C 
HETATM   17  N   UNL     1      23.715  45.555  50.144  1.00  0.00    -0.327 N 
HETATM   18  H   UNL     1      23.357  44.609  50.035  1.00  0.00     0.169 HD
HETATM   19  O   UNL     1      22.493  45.843  48.319  1.00  0.00    -0.273 OA
BRANCH  17  20
HETATM   20  C   UNL     1      24.658  45.707  51.176  1.00  0.00     0.034 A 
HETATM   21  C   UNL     1      25.210  46.912  51.608  1.00  0.00     0.031 A 
HETATM   22  C   UNL     1      26.167  46.926  52.633  1.00  0.00     0.026 A 
HETATM   23  C   UNL     1      26.570  45.739  53.237  1.00  0.00     0.034 A 
HETATM   24  C   UNL     1      26.006  44.534  52.839  1.00  0.00     0.026 A 
HETATM   25 CL   UNL     1      27.753  45.765  54.482  1.00  0.00    -0.084 Cl
HETATM   26  C   UNL     1      25.045  44.523  51.823  1.00  0.00     0.031 A 
ENDBRANCH  17  20
ENDBRANCH  15  16
ENDBRANCH   1  15
TORSDOF 3
ENDMDL
MODEL 6
REMARK VINA RESULT:      -7.9      1.501      2.019
REMARK  3 active torsions:
REMARK  status: ('A' for Active; 'I' for Inactive)
REMARK    1  A    between atoms: C_2  and  N_3 
REMARK       I    between atoms: N_3  and  C_4 
REMARK    2  A    between atoms: C_4  and  C_5 
REMARK    3  A    between atoms: C_5  and  C_6 
ROOT
HETATM    1  C   UNL     1      26.441  44.299  53.334  1.00  0.00     0.286 C 
HETATM    2  N   UNL     1      27.810  43.608  53.268  1.00  0.00    -0.056 N 
HETATM    3  H   UNL     1      27.682  42.608  53.037  1.00  0.00     0.278 HD
HETATM    4  H   UNL     1      28.344  43.990  52.474  1.00  0.00     0.278 HD
HETATM    5  C   UNL     1      28.562  43.794  54.552  1.00  0.00     0.209 C 
HETATM    6  C   UNL     1      28.821  45.306  54.724  1.00  0.00     0.115 C 
HETATM    7  N   UNL     1      27.578  46.072  54.671  1.00  0.00    -0.353 N 
HETATM    8  C   UNL     1      26.547  45.769  53.803  1.00  0.00     0.249 C 
HETATM    9  O   UNL     1      25.718  46.621  53.508  1.00  0.00    -0.271 OA
HETATM   10  C   UNL     1      29.858  42.998  54.529  1.00  0.00     0.035 C 
HETATM   11  C   UNL     1      30.639  43.248  55.818  1.00  0.00     0.002 C 
HETATM   12  C   UNL     1      30.894  44.739  56.049  1.00  0.00     0.002 C 
HETATM   13  C   UNL     1      29.608  45.568  56.007  1.00  0.00     0.027 C 
HETATM   14  H   UNL     1      27.612  47.064  54.910  1.00  0.00     0.163 HD
ENDROOT
BRANCH   1  15
HETATM   15  C   UNL     1      25.748  44.195  51.981  1.00  0.00     0.146 C 
BRANCH  15  16
HETATM   16  C   UNL     1      26.797  44.349  50.921  1.00  0.00     0.224 C 
HETATM   17  N   UNL     1      26.823  45.336  49.995  1.00  0.00    -0.327 N 
HETATM   18  H   UNL     1      27.532  45.145  49.290  1.00  0.00     0.169 HD
HETATM   19  O   UNL     1      27.553  43.383  50.743  1.00  0.00    -0.273 OA
BRANCH  17  20
HETATM   20  C   UNL     1      26.051  46.485  49.749  1.00  0.00     0.034 A 
HETATM   21  C   UNL     1      24.659  46.557  49.777  1.00  0.00     0.031 A 
HETATM   22  C   UNL     1      24.005  47.762  49.484  1.00  0.00     0.026 A 
HETATM   23  C   UNL     1      24.738  48.903  49.171  1.00  0.00     0.034 A 
HETATM   24  C   UNL     1      26.125  48.855  49.169  1.00  0.00     0.026 A 
HETATM   25 CL   UNL     1      23.927  50.371  48.799  1.00  0.00    -0.084 Cl
HETATM   26  C   UNL     1      26.776  47.655  49.470  1.00  0.00     0.031 A 
ENDBRANCH  17  20
ENDBRANCH  15  16
ENDBRANCH   1  15
TORSDOF 3
ENDMDL
MODEL 7
REMARK VINA RESULT:      -7.8      2.598      3.530
REMARK  3 active torsions:
REMARK  status: ('A' for Active; 'I' for Inactive)
REMARK    1  A    between atoms: C_2  and  N_3 
REMARK       I    between atoms: N_3  and  C_4 
REMARK    2  A    between atoms: C_4  and  C_5 
REMARK    3  A    between atoms: C_5  and  C_6 
ROOT
HETATM    1  C   UNL     1      28.814  43.605  53.896  1.00  0.00     0.286 C 
HETATM    2  N   UNL     1      30.197  43.655  54.558  1.00  0.00    -0.056 N 
HETATM    3  H   UNL     1      30.663  42.736  54.458  1.00  0.00     0.278 HD
HETATM    4  H   UNL     1      30.800  44.307  54.035  1.00  0.00     0.278 HD
HETATM    5  C   UNL     1      30.086  44.072  55.994  1.00  0.00     0.209 C 
HETATM    6  C   UNL     1      29.514  45.507  56.018  1.00  0.00     0.115 C 
HETATM    7  N   UNL     1      28.247  45.591  55.295  1.00  0.00    -0.353 N 
HETATM    8  C   UNL     1      28.008  44.906  54.120  1.00  0.00     0.249 C 
HETATM    9  O   UNL     1      27.129  45.282  53.355  1.00  0.00    -0.271 OA
HETATM   10  C   UNL     1      31.441  43.992  56.678  1.00  0.00     0.035 C 
HETATM   11  C   UNL     1      31.318  44.479  58.122  1.00  0.00     0.002 C 
HETATM   12  C   UNL     1      30.728  45.887  58.200  1.00  0.00     0.002 C 
HETATM   13  C   UNL     1      29.394  46.007  57.457  1.00  0.00     0.027 C 
HETATM   14  H   UNL     1      27.712  46.457  55.361  1.00  0.00     0.163 HD
ENDROOT
BRANCH   1  15
HETATM   15  C   UNL     1      28.966  43.293  52.412  1.00  0.00     0.146 C 
BRANCH  15  16
HETATM   16  C   UNL     1      28.081  42.125  52.099  1.00  0.00     0.224 C 
HETATM   17  N   UNL     1      26.886  42.206  51.467  1.00  0.00    -0.327 N 
HETATM   18  H   UNL     1      26.400  41.312  51.509  1.00  0.00     0.169 HD
HETATM   19  O   UNL     1      28.357  41.053  52.658  1.00  0.00    -0.273 OA
BRANCH  17  20
HETATM   20  C   UNL     1      26.152  43.242  50.865  1.00  0.00     0.034 A 
HETATM   21  C   UNL     1      26.654  44.191  49.976  1.00  0.00     0.031 A 
HETATM   22  C   UNL     1      25.820  45.196  49.465  1.00  0.00     0.026 A 
HETATM   23  C   UNL     1      24.479  45.251  49.831  1.00  0.00     0.034 A 
HETATM   24  C   UNL     1      23.956  44.295  50.690  1.00  0.00     0.026 A 
HETATM   25 CL   UNL     1      23.469  46.494  49.210  1.00  0.00    -0.084 Cl
HETATM   26  C   UNL     1      24.787  43.289  51.193  1.00  0.00     0.031 A 
ENDBRANCH  17  20
ENDBRANCH  15  16
ENDBRANCH   1  15
TORSDOF 3
ENDMDL
MODEL 8
REMARK VINA RESULT:      -7.6      3.932      7.688
REMARK  3 active torsions:
REMARK  status: ('A' for Active; 'I' for Inactive)
REMARK    1  A    between atoms: C_2  and  N_3 
REMARK       I    between atoms: N_3  and  C_4 
REMARK    2  A    between atoms: C_4  and  C_5 
REMARK    3  A    between atoms: C_5  and  C_6 
ROOT
HETATM    1  C   UNL     1      26.785  43.240  52.399  1.00  0.00     0.286 C 
HETATM    2  N   UNL     1      26.019  42.224  51.540  1.00  0.00    -0.056 N 
HETATM    3  H   UNL     1      26.672  41.500  51.195  1.00  0.00     0.278 HD
HETATM    4  H   UNL     1      25.355  41.709  52.137  1.00  0.00     0.278 HD
HETATM    5  C   UNL     1      25.300  42.911  50.418  1.00  0.00     0.209 C 
HETATM    6  C   UNL     1      24.256  43.860  51.045  1.00  0.00     0.115 C 
HETATM    7  N   UNL     1      24.875  44.791  51.986  1.00  0.00    -0.353 N 
HETATM    8  C   UNL     1      25.894  44.424  52.843  1.00  0.00     0.249 C 
HETATM    9  O   UNL     1      26.117  45.080  53.853  1.00  0.00    -0.271 OA
HETATM   10  C   UNL     1      24.654  41.889  49.496  1.00  0.00     0.035 C 
HETATM   11  C   UNL     1      23.876  42.609  48.394  1.00  0.00     0.002 C 
HETATM   12  C   UNL     1      22.847  43.585  48.968  1.00  0.00     0.002 C 
HETATM   13  C   UNL     1      23.467  44.580  49.953  1.00  0.00     0.027 C 
HETATM   14  H   UNL     1      24.305  45.552  52.357  1.00  0.00     0.163 HD
ENDROOT
BRANCH   1  15
HETATM   15  C   UNL     1      27.408  42.532  53.596  1.00  0.00     0.146 C 
BRANCH  15  16
HETATM   16  C   UNL     1      28.813  42.162  53.225  1.00  0.00     0.224 C 
HETATM   17  N   UNL     1      29.925  42.636  53.834  1.00  0.00    -0.327 N 
HETATM   18  H   UNL     1      30.757  42.369  53.312  1.00  0.00     0.169 HD
HETATM   19  O   UNL     1      28.964  41.564  52.150  1.00  0.00    -0.273 OA
BRANCH  17  20
HETATM   20  C   UNL     1      30.172  43.465  54.942  1.00  0.00     0.034 A 
HETATM   21  C   UNL     1      31.054  43.194  55.986  1.00  0.00     0.031 A 
HETATM   22  C   UNL     1      31.189  44.095  57.053  1.00  0.00     0.026 A 
HETATM   23  C   UNL     1      30.451  45.274  57.076  1.00  0.00     0.034 A 
HETATM   24  C   UNL     1      29.592  45.573  56.028  1.00  0.00     0.026 A 
HETATM   25 CL   UNL     1      30.613  46.364  58.393  1.00  0.00    -0.084 Cl
HETATM   26  C   UNL     1      29.464  44.678  54.961  1.00  0.00     0.031 A 
ENDBRANCH  17  20
ENDBRANCH  15  16
ENDBRANCH   1  15
TORSDOF 3
ENDMDL
MODEL 9
REMARK VINA RESULT:      -7.5      2.941      3.872
REMARK  3 active torsions:
REMARK  status: ('A' for Active; 'I' for Inactive)
REMARK    1  A    between atoms: C_2  and  N_3 
REMARK       I    between atoms: N_3  and  C_4 
REMARK    2  A    between atoms: C_4  and  C_5 
REMARK    3  A    between atoms: C_5  and  C_6 
ROOT
HETATM    1  C   UNL     1      27.910  42.860  52.106  1.00  0.00     0.286 C 
HETATM    2  N   UNL     1      27.427  43.905  53.121  1.00  0.00    -0.056 N 
HETATM    3  H   UNL     1      26.866  44.626  52.636  1.00  0.00     0.278 HD
HETATM    4  H   UNL     1      26.765  43.462  53.775  1.00  0.00     0.278 HD
HETATM    5  C   UNL     1      28.586  44.502  53.862  1.00  0.00     0.209 C 
HETATM    6  C   UNL     1      29.261  43.366  54.661  1.00  0.00     0.115 C 
HETATM    7  N   UNL     1      29.646  42.255  53.793  1.00  0.00    -0.353 N 
HETATM    8  C   UNL     1      28.863  41.820  52.742  1.00  0.00     0.249 C 
HETATM    9  O   UNL     1      29.004  40.688  52.296  1.00  0.00    -0.271 OA
HETATM   10  C   UNL     1      28.114  45.628  54.769  1.00  0.00     0.035 C 
HETATM   11  C   UNL     1      29.298  46.182  55.560  1.00  0.00     0.002 C 
HETATM   12  C   UNL     1      30.020  45.087  56.347  1.00  0.00     0.002 C 
HETATM   13  C   UNL     1      30.443  43.911  55.463  1.00  0.00     0.027 C 
HETATM   14  H   UNL     1      30.222  41.512  54.188  1.00  0.00     0.163 HD
ENDROOT
BRANCH   1  15
HETATM   15  C   UNL     1      26.709  42.187  51.453  1.00  0.00     0.146 C 
BRANCH  15  16
HETATM   16  C   UNL     1      26.931  42.202  49.970  1.00  0.00     0.224 C 
HETATM   17  N   UNL     1      26.534  43.193  49.137  1.00  0.00    -0.327 N 
HETATM   18  H   UNL     1      26.651  42.911  48.167  1.00  0.00     0.169 HD
HETATM   19  O   UNL     1      27.295  41.136  49.452  1.00  0.00    -0.273 OA
BRANCH  17  20
HETATM   20  C   UNL     1      25.930  44.451  49.311  1.00  0.00     0.034 A 
HETATM   21  C   UNL     1      26.574  45.619  49.716  1.00  0.00     0.031 A 
HETATM   22  C   UNL     1      25.850  46.808  49.879  1.00  0.00     0.026 A 
HETATM   23  C   UNL     1      24.481  46.839  49.629  1.00  0.00     0.034 A 
HETATM   24  C   UNL     1      23.831  45.692  49.195  1.00  0.00     0.026 A 
HETATM   25 CL   UNL     1      23.600  48.297  49.845  1.00  0.00    -0.084 Cl
HETATM   26  C   UNL     1      24.557  44.509  49.024  1.00  0.00     0.031 A 
ENDBRANCH  17  20
ENDBRANCH  15  16
ENDBRANCH   1  15
TORSDOF 3
ENDMDL
MODEL 10
REMARK VINA RESULT:      -7.5      2.921      4.330
REMARK  3 active torsions:
REMARK  status: ('A' for Active; 'I' for Inactive)
REMARK    1  A    between atoms: C_2  and  N_3 
REMARK       I    between atoms: N_3  and  C_4 
REMARK    2  A    between atoms: C_4  and  C_5 
REMARK    3  A    between atoms: C_5  and  C_6 
ROOT
HETATM    1  C   UNL     1      26.266  43.137  49.986  1.00  0.00     0.286 C 
HETATM    2  N   UNL     1      26.769  43.853  51.246  1.00  0.00    -0.056 N 
HETATM    3  H   UNL     1      26.955  44.847  51.029  1.00  0.00     0.278 HD
HETATM    4  H   UNL     1      26.013  43.879  51.946  1.00  0.00     0.278 HD
HETATM    5  C   UNL     1      27.981  43.166  51.801  1.00  0.00     0.209 C 
HETATM    6  C   UNL     1      27.556  41.742  52.222  1.00  0.00     0.115 C 
HETATM    7  N   UNL     1      26.941  41.016  51.113  1.00  0.00    -0.353 N 
HETATM    8  C   UNL     1      26.090  41.615  50.205  1.00  0.00     0.249 C 
HETATM    9  O   UNL     1      25.308  40.937  49.552  1.00  0.00    -0.271 OA
HETATM   10  C   UNL     1      28.552  43.954  52.969  1.00  0.00     0.035 C 
HETATM   11  C   UNL     1      29.749  43.207  53.558  1.00  0.00     0.002 C 
HETATM   12  C   UNL     1      29.384  41.778  53.964  1.00  0.00     0.002 C 
HETATM   13  C   UNL     1      28.743  40.988  52.820  1.00  0.00     0.027 C 
HETATM   14  H   UNL     1      26.746  40.022  51.237  1.00  0.00     0.163 HD
ENDROOT
BRANCH   1  15
HETATM   15  C   UNL     1      24.970  43.783  49.512  1.00  0.00     0.146 C 
BRANCH  15  16
HETATM   16  C   UNL     1      24.317  44.420  50.703  1.00  0.00     0.224 C 
HETATM   17  N   UNL     1      24.305  45.748  50.962  1.00  0.00    -0.327 N 
HETATM   18  H   UNL     1      23.945  45.925  51.898  1.00  0.00     0.169 HD
HETATM   19  O   UNL     1      23.968  43.659  51.617  1.00  0.00    -0.273 OA
BRANCH  17  20
HETATM   20  C   UNL     1      24.751  46.895  50.282  1.00  0.00     0.034 A 
HETATM   21  C   UNL     1      23.946  47.807  49.602  1.00  0.00     0.031 A 
HETATM   22  C   UNL     1      24.519  48.900  48.936  1.00  0.00     0.026 A 
HETATM   23  C   UNL     1      25.897  49.093  48.955  1.00  0.00     0.034 A 
HETATM   24  C   UNL     1      26.709  48.211  49.654  1.00  0.00     0.026 A 
HETATM   25 CL   UNL     1      26.591  50.427  48.125  1.00  0.00    -0.084 Cl
HETATM   26  C   UNL     1      26.135  47.126  50.325  1.00  0.00     0.031 A 
ENDBRANCH  17  20
ENDBRANCH  15  16
ENDBRANCH   1  15
TORSDOF 3
ENDMDL
