MODEL 1
REMARK VINA RESULT:      -8.4      0.000      0.000
REMARK  3 active torsions:
REMARK  status: ('A' for Active; 'I' for Inactive)
REMARK    1  A    between atoms: C_6  and  C_7 
REMARK       I    between atoms: C_7  and  N_8 
REMARK    2  A    between atoms: N_8  and  C_9 
REMARK    3  A    between atoms: C_13  and  C_14 
ROOT
HETATM    1  C   UNL     1      24.959  46.626  51.124  1.00  0.00     0.036 A 
HETATM    2  C   UNL     1      25.420  47.015  52.381  1.00  0.00     0.054 A 
HETATM    3  C   UNL     1      26.313  46.205  53.108  1.00  0.00     0.050 A 
HETATM    4 CL   UNL     1      26.732  46.776  54.691  1.00  0.00    -0.083 Cl
HETATM    5  C   UNL     1      26.768  44.988  52.578  1.00  0.00     0.035 A 
HETATM    6  C   UNL     1      26.310  44.617  51.300  1.00  0.00     0.019 A 
HETATM    7  C   UNL     1      25.419  45.423  50.584  1.00  0.00     0.030 A 
ENDROOT
BRANCH   1   8
HETATM    8  N   UNL     1      24.013  47.346  50.365  1.00  0.00    -0.323 N 
HETATM    9  C   UNL     1      24.226  48.454  49.572  1.00  0.00     0.261 C 
HETATM   10  O   UNL     1      25.323  48.939  49.303  1.00  0.00    -0.267 OA
HETATM   11  H   UNL     1      23.044  47.034  50.457  1.00  0.00     0.169 HD
BRANCH   9  12
HETATM   12  C   UNL     1      22.976  49.087  49.039  1.00  0.00     0.100 A 
HETATM   13  C   UNL     1      21.779  48.316  48.587  1.00  0.00     0.261 A 
HETATM   14  N   UNL     1      20.688  49.049  48.177  1.00  0.00    -0.327 N 
HETATM   15  O   UNL     1      21.761  47.087  48.583  1.00  0.00    -0.267 OA
HETATM   16  C   UNL     1      20.641  50.423  48.152  1.00  0.00     0.008 A 
HETATM   17  H   UNL     1      19.883  48.510  47.882  1.00  0.00     0.169 HD
HETATM   18  C   UNL     1      19.364  51.056  47.692  1.00  0.00     0.068 C 
HETATM   19  C   UNL     1      21.719  51.120  48.540  1.00  0.00     0.026 A 
HETATM   20  C   UNL     1      22.908  50.430  48.993  1.00  0.00     0.025 A 
ENDBRANCH   9  12
ENDBRANCH   1   8
BRANCH   5  21
HETATM   21  C   UNL     1      27.664  44.075  53.284  1.00  0.00     0.183 A 
HETATM   22  N   UNL     1      27.440  42.751  53.377  1.00  0.00    -0.152 NA
HETATM   23  N   UNL     1      28.481  42.337  54.110  1.00  0.00    -0.263 N 
HETATM   24  H   UNL     1      28.557  41.357  54.358  1.00  0.00     0.190 HD
HETATM   25  C   UNL     1      29.313  43.368  54.424  1.00  0.00     0.118 A 
HETATM   26  C   UNL     1      30.535  43.214  55.239  1.00  0.00     0.093 C 
HETATM   27  N   UNL     1      28.834  44.469  53.893  1.00  0.00    -0.212 NA
ENDBRANCH   5  21
TORSDOF 3
ENDMDL
MODEL 2
REMARK VINA RESULT:      -8.4      2.299      3.124
REMARK  3 active torsions:
REMARK  status: ('A' for Active; 'I' for Inactive)
REMARK    1  A    between atoms: C_6  and  C_7 
REMARK       I    between atoms: C_7  and  N_8 
REMARK    2  A    between atoms: N_8  and  C_9 
REMARK    3  A    between atoms: C_13  and  C_14 
ROOT
HETATM    1  C   UNL     1      26.379  45.560  52.455  1.00  0.00     0.036 A 
HETATM    2  C   UNL     1      27.309  44.529  52.323  1.00  0.00     0.054 A 
HETATM    3  C   UNL     1      28.289  44.306  53.308  1.00  0.00     0.050 A 
HETATM    4 CL   UNL     1      29.430  43.046  52.967  1.00  0.00    -0.083 Cl
HETATM    5  C   UNL     1      28.346  45.113  54.455  1.00  0.00     0.035 A 
HETATM    6  C   UNL     1      27.390  46.137  54.585  1.00  0.00     0.019 A 
HETATM    7  C   UNL     1      26.421  46.357  53.601  1.00  0.00     0.030 A 
ENDROOT
BRANCH   1   8
HETATM    8  N   UNL     1      25.412  45.890  51.483  1.00  0.00    -0.323 N 
HETATM    9  C   UNL     1      25.354  47.018  50.692  1.00  0.00     0.261 C 
HETATM   10  O   UNL     1      26.217  47.890  50.627  1.00  0.00    -0.267 OA
HETATM   11  H   UNL     1      24.636  45.232  51.391  1.00  0.00     0.169 HD
BRANCH   9  12
HETATM   12  C   UNL     1      24.099  47.146  49.882  1.00  0.00     0.100 A 
HETATM   13  C   UNL     1      23.311  45.982  49.376  1.00  0.00     0.261 A 
HETATM   14  N   UNL     1      22.149  46.269  48.696  1.00  0.00    -0.327 N 
HETATM   15  O   UNL     1      23.676  44.822  49.558  1.00  0.00    -0.267 OA
HETATM   16  C   UNL     1      21.685  47.540  48.453  1.00  0.00     0.008 A 
HETATM   17  H   UNL     1      21.624  45.467  48.367  1.00  0.00     0.169 HD
HETATM   18  C   UNL     1      20.390  47.665  47.711  1.00  0.00     0.068 C 
HETATM   19  C   UNL     1      22.397  48.589  48.890  1.00  0.00     0.026 A 
HETATM   20  C   UNL     1      23.628  48.380  49.621  1.00  0.00     0.025 A 
ENDBRANCH   9  12
ENDBRANCH   1   8
BRANCH   5  21
HETATM   21  C   UNL     1      29.355  44.970  55.503  1.00  0.00     0.183 A 
HETATM   22  N   UNL     1      29.529  45.876  56.483  1.00  0.00    -0.152 NA
HETATM   23  N   UNL     1      30.546  45.351  57.178  1.00  0.00    -0.263 N 
HETATM   24  H   UNL     1      30.910  45.850  57.982  1.00  0.00     0.190 HD
HETATM   25  C   UNL     1      30.951  44.163  56.650  1.00  0.00     0.118 A 
HETATM   26  C   UNL     1      32.066  43.363  57.197  1.00  0.00     0.093 C 
HETATM   27  N   UNL     1      30.198  43.889  55.610  1.00  0.00    -0.212 NA
ENDBRANCH   5  21
TORSDOF 3
ENDMDL
MODEL 3
REMARK VINA RESULT:      -8.4     18.709     20.856
REMARK  3 active torsions:
REMARK  status: ('A' for Active; 'I' for Inactive)
REMARK    1  A    between atoms: C_6  and  C_7 
REMARK       I    between atoms: C_7  and  N_8 
REMARK    2  A    between atoms: N_8  and  C_9 
REMARK    3  A    between atoms: C_13  and  C_14 
ROOT
HETATM    1  C   UNL     1      38.526  47.645  65.117  1.00  0.00     0.036 A 
HETATM    2  C   UNL     1      37.621  47.909  66.144  1.00  0.00     0.054 A 
HETATM    3  C   UNL     1      37.519  49.194  66.708  1.00  0.00     0.050 A 
HETATM    4 CL   UNL     1      36.413  49.351  68.035  1.00  0.00    -0.083 Cl
HETATM    5  C   UNL     1      38.321  50.246  66.239  1.00  0.00     0.035 A 
HETATM    6  C   UNL     1      39.216  49.971  65.189  1.00  0.00     0.019 A 
HETATM    7  C   UNL     1      39.316  48.691  64.636  1.00  0.00     0.030 A 
ENDROOT
BRANCH   1   8
HETATM    8  N   UNL     1      38.736  46.372  64.549  1.00  0.00    -0.323 N 
HETATM    9  C   UNL     1      37.848  45.609  63.819  1.00  0.00     0.261 C 
HETATM   10  O   UNL     1      36.737  45.974  63.442  1.00  0.00    -0.267 OA
HETATM   11  H   UNL     1      39.643  45.945  64.746  1.00  0.00     0.169 HD
BRANCH   9  12
HETATM   12  C   UNL     1      38.327  44.223  63.508  1.00  0.00     0.100 A 
HETATM   13  C   UNL     1      39.764  43.860  63.323  1.00  0.00     0.261 A 
HETATM   14  N   UNL     1      40.043  42.531  63.099  1.00  0.00    -0.327 N 
HETATM   15  O   UNL     1      40.659  44.701  63.371  1.00  0.00    -0.267 OA
HETATM   16  C   UNL     1      39.093  41.539  63.029  1.00  0.00     0.008 A 
HETATM   17  H   UNL     1      41.023  42.302  62.984  1.00  0.00     0.169 HD
HETATM   18  C   UNL     1      39.579  40.141  62.795  1.00  0.00     0.068 C 
HETATM   19  C   UNL     1      37.800  41.862  63.177  1.00  0.00     0.026 A 
HETATM   20  C   UNL     1      37.416  43.235  63.423  1.00  0.00     0.025 A 
ENDBRANCH   9  12
ENDBRANCH   1   8
BRANCH   5  21
HETATM   21  C   UNL     1      38.301  51.597  66.796  1.00  0.00     0.183 A 
HETATM   22  N   UNL     1      38.932  51.931  67.937  1.00  0.00    -0.152 NA
HETATM   23  N   UNL     1      38.628  53.229  68.062  1.00  0.00    -0.263 N 
HETATM   24  H   UNL     1      38.964  53.744  68.868  1.00  0.00     0.190 HD
HETATM   25  C   UNL     1      37.866  53.666  67.021  1.00  0.00     0.118 A 
HETATM   26  C   UNL     1      37.365  55.050  66.898  1.00  0.00     0.093 C 
HETATM   27  N   UNL     1      37.669  52.663  66.197  1.00  0.00    -0.212 NA
ENDBRANCH   5  21
TORSDOF 3
ENDMDL
MODEL 4
REMARK VINA RESULT:      -8.2      2.912      9.246
REMARK  3 active torsions:
REMARK  status: ('A' for Active; 'I' for Inactive)
REMARK    1  A    between atoms: C_6  and  C_7 
REMARK       I    between atoms: C_7  and  N_8 
REMARK    2  A    between atoms: N_8  and  C_9 
REMARK    3  A    between atoms: C_13  and  C_14 
ROOT
HETATM    1  C   UNL     1      26.014  45.696  51.461  1.00  0.00     0.036 A 
HETATM    2  C   UNL     1      24.984  44.915  50.938  1.00  0.00     0.054 A 
HETATM    3  C   UNL     1      24.007  45.475  50.093  1.00  0.00     0.050 A 
HETATM    4 CL   UNL     1      22.740  44.403  49.590  1.00  0.00    -0.083 Cl
HETATM    5  C   UNL     1      24.055  46.834  49.747  1.00  0.00     0.035 A 
HETATM    6  C   UNL     1      25.112  47.606  50.265  1.00  0.00     0.019 A 
HETATM    7  C   UNL     1      26.076  47.046  51.109  1.00  0.00     0.030 A 
ENDROOT
BRANCH   1   8
HETATM    8  N   UNL     1      26.988  45.227  52.367  1.00  0.00    -0.323 N 
HETATM    9  C   UNL     1      26.843  44.978  53.716  1.00  0.00     0.261 C 
HETATM   10  O   UNL     1      25.785  45.019  54.339  1.00  0.00    -0.267 OA
HETATM   11  H   UNL     1      27.926  45.105  51.983  1.00  0.00     0.169 HD
BRANCH   9  12
HETATM   12  C   UNL     1      28.120  44.653  54.429  1.00  0.00     0.100 A 
HETATM   13  C   UNL     1      28.765  45.551  55.433  1.00  0.00     0.261 A 
HETATM   14  N   UNL     1      29.907  45.081  56.043  1.00  0.00    -0.327 N 
HETATM   15  O   UNL     1      28.302  46.656  55.710  1.00  0.00    -0.267 OA
HETATM   16  C   UNL     1      30.481  43.860  55.779  1.00  0.00     0.008 A 
HETATM   17  H   UNL     1      30.326  45.701  56.726  1.00  0.00     0.169 HD
HETATM   18  C   UNL     1      31.715  43.503  56.549  1.00  0.00     0.068 C 
HETATM   19  C   UNL     1      29.916  43.057  54.866  1.00  0.00     0.026 A 
HETATM   20  C   UNL     1      28.709  43.468  54.181  1.00  0.00     0.025 A 
ENDBRANCH   9  12
ENDBRANCH   1   8
BRANCH   5  21
HETATM   21  C   UNL     1      23.060  47.497  48.907  1.00  0.00     0.183 A 
HETATM   22  N   UNL     1      22.602  46.971  47.757  1.00  0.00    -0.152 NA
HETATM   23  N   UNL     1      21.746  47.911  47.334  1.00  0.00    -0.263 N 
HETATM   24  H   UNL     1      21.259  47.782  46.454  1.00  0.00     0.190 HD
HETATM   25  C   UNL     1      21.674  48.950  48.211  1.00  0.00     0.118 A 
HETATM   26  C   UNL     1      20.825  50.141  48.000  1.00  0.00     0.093 C 
HETATM   27  N   UNL     1      22.472  48.701  49.223  1.00  0.00    -0.212 NA
ENDBRANCH   5  21
TORSDOF 3
ENDMDL
MODEL 5
REMARK VINA RESULT:      -8.1      3.343      9.100
REMARK  3 active torsions:
REMARK  status: ('A' for Active; 'I' for Inactive)
REMARK    1  A    between atoms: C_6  and  C_7 
REMARK       I    between atoms: C_7  and  N_8 
REMARK    2  A    between atoms: N_8  and  C_9 
REMARK    3  A    between atoms: C_13  and  C_14 
ROOT
HETATM    1  C   UNL     1      26.025  45.586  51.863  1.00  0.00     0.036 A 
HETATM    2  C   UNL     1      26.148  46.780  51.155  1.00  0.00     0.054 A 
HETATM    3  C   UNL     1      25.208  47.139  50.170  1.00  0.00     0.050 A 
HETATM    4 CL   UNL     1      25.536  48.609  49.311  1.00  0.00    -0.083 Cl
HETATM    5  C   UNL     1      24.116  46.303  49.886  1.00  0.00     0.035 A 
HETATM    6  C   UNL     1      23.994  45.111  50.623  1.00  0.00     0.019 A 
HETATM    7  C   UNL     1      24.933  44.757  51.597  1.00  0.00     0.030 A 
ENDROOT
BRANCH   1   8
HETATM    8  N   UNL     1      26.960  45.125  52.813  1.00  0.00    -0.323 N 
HETATM    9  C   UNL     1      27.161  45.581  54.099  1.00  0.00     0.261 C 
HETATM   10  O   UNL     1      26.464  46.411  54.679  1.00  0.00    -0.267 OA
HETATM   11  H   UNL     1      27.598  44.396  52.488  1.00  0.00     0.169 HD
BRANCH   9  12
HETATM   12  C   UNL     1      28.354  44.994  54.789  1.00  0.00     0.100 A 
HETATM   13  C   UNL     1      28.853  43.605  54.554  1.00  0.00     0.261 A 
HETATM   14  N   UNL     1      29.998  43.236  55.224  1.00  0.00    -0.327 N 
HETATM   15  O   UNL     1      28.277  42.827  53.797  1.00  0.00    -0.267 OA
HETATM   16  C   UNL     1      30.690  44.053  56.087  1.00  0.00     0.008 A 
HETATM   17  H   UNL     1      30.326  42.294  55.046  1.00  0.00     0.169 HD
HETATM   18  C   UNL     1      31.927  43.491  56.717  1.00  0.00     0.068 C 
HETATM   19  C   UNL     1      30.237  45.294  56.315  1.00  0.00     0.026 A 
HETATM   20  C   UNL     1      29.044  45.768  55.648  1.00  0.00     0.025 A 
ENDBRANCH   9  12
ENDBRANCH   1   8
BRANCH   5  21
HETATM   21  C   UNL     1      23.120  46.585  48.855  1.00  0.00     0.183 A 
HETATM   22  N   UNL     1      22.417  47.732  48.807  1.00  0.00    -0.152 NA
HETATM   23  N   UNL     1      21.634  47.542  47.737  1.00  0.00    -0.263 N 
HETATM   24  H   UNL     1      20.969  48.259  47.473  1.00  0.00     0.190 HD
HETATM   25  C   UNL     1      21.877  46.338  47.148  1.00  0.00     0.118 A 
HETATM   26  C   UNL     1      21.152  45.848  45.958  1.00  0.00     0.093 C 
HETATM   27  N   UNL     1      22.827  45.728  47.819  1.00  0.00    -0.212 NA
ENDBRANCH   5  21
TORSDOF 3
ENDMDL
MODEL 6
REMARK VINA RESULT:      -8.0      2.232      3.045
REMARK  3 active torsions:
REMARK  status: ('A' for Active; 'I' for Inactive)
REMARK    1  A    between atoms: C_6  and  C_7 
REMARK       I    between atoms: C_7  and  N_8 
REMARK    2  A    between atoms: N_8  and  C_9 
REMARK    3  A    between atoms: C_13  and  C_14 
ROOT
HETATM    1  C   UNL     1      25.913  46.433  52.660  1.00  0.00     0.036 A 
HETATM    2  C   UNL     1      25.983  47.351  53.706  1.00  0.00     0.054 A 
HETATM    3  C   UNL     1      26.873  47.160  54.780  1.00  0.00     0.050 A 
HETATM    4 CL   UNL     1      26.788  48.338  56.050  1.00  0.00    -0.083 Cl
HETATM    5  C   UNL     1      27.720  46.042  54.816  1.00  0.00     0.035 A 
HETATM    6  C   UNL     1      27.653  45.133  53.744  1.00  0.00     0.019 A 
HETATM    7  C   UNL     1      26.764  45.326  52.682  1.00  0.00     0.030 A 
ENDROOT
BRANCH   1   8
HETATM    8  N   UNL     1      25.002  46.517  51.586  1.00  0.00    -0.323 N 
HETATM    9  C   UNL     1      25.055  47.353  50.491  1.00  0.00     0.261 C 
HETATM   10  O   UNL     1      25.987  48.103  50.209  1.00  0.00    -0.267 OA
HETATM   11  H   UNL     1      24.178  45.917  51.658  1.00  0.00     0.169 HD
BRANCH   9  12
HETATM   12  C   UNL     1      23.836  47.315  49.619  1.00  0.00     0.100 A 
HETATM   13  C   UNL     1      23.012  48.515  49.285  1.00  0.00     0.261 A 
HETATM   14  N   UNL     1      21.956  48.321  48.423  1.00  0.00    -0.327 N 
HETATM   15  O   UNL     1      23.261  49.625  49.751  1.00  0.00    -0.267 OA
HETATM   16  C   UNL     1      21.618  47.109  47.869  1.00  0.00     0.008 A 
HETATM   17  H   UNL     1      21.413  49.148  48.202  1.00  0.00     0.169 HD
HETATM   18  C   UNL     1      20.446  47.085  46.937  1.00  0.00     0.068 C 
HETATM   19  C   UNL     1      22.344  46.025  48.180  1.00  0.00     0.026 A 
HETATM   20  C   UNL     1      23.476  46.138  49.073  1.00  0.00     0.025 A 
ENDBRANCH   9  12
ENDBRANCH   1   8
BRANCH   5  21
HETATM   21  C   UNL     1      28.643  45.753  55.911  1.00  0.00     0.183 A 
HETATM   22  N   UNL     1      28.526  46.302  57.135  1.00  0.00    -0.152 NA
HETATM   23  N   UNL     1      29.573  45.777  57.784  1.00  0.00    -0.263 N 
HETATM   24  H   UNL     1      29.746  46.042  58.747  1.00  0.00     0.190 HD
HETATM   25  C   UNL     1      30.277  44.925  56.989  1.00  0.00     0.118 A 
HETATM   26  C   UNL     1      31.494  44.212  57.430  1.00  0.00     0.093 C 
HETATM   27  N   UNL     1      29.696  44.873  55.813  1.00  0.00    -0.212 NA
ENDBRANCH   5  21
TORSDOF 3
ENDMDL
MODEL 7
REMARK VINA RESULT:      -8.0      3.990     10.244
REMARK  3 active torsions:
REMARK  status: ('A' for Active; 'I' for Inactive)
REMARK    1  A    between atoms: C_6  and  C_7 
REMARK       I    between atoms: C_7  and  N_8 
REMARK    2  A    between atoms: N_8  and  C_9 
REMARK    3  A    between atoms: C_13  and  C_14 
ROOT
HETATM    1  C   UNL     1      20.684  49.428  49.406  1.00  0.00     0.036 A 
HETATM    2  C   UNL     1      19.488  48.853  48.978  1.00  0.00     0.054 A 
HETATM    3  C   UNL     1      18.311  49.620  48.876  1.00  0.00     0.050 A 
HETATM    4 CL   UNL     1      16.883  48.752  48.413  1.00  0.00    -0.083 Cl
HETATM    5  C   UNL     1      18.319  50.987  49.193  1.00  0.00     0.035 A 
HETATM    6  C   UNL     1      19.537  51.558  49.605  1.00  0.00     0.019 A 
HETATM    7  C   UNL     1      20.702  50.791  49.709  1.00  0.00     0.030 A 
ENDROOT
BRANCH   1   8
HETATM    8  N   UNL     1      21.885  48.715  49.601  1.00  0.00    -0.323 N 
HETATM    9  C   UNL     1      22.962  48.614  48.745  1.00  0.00     0.261 C 
HETATM   10  O   UNL     1      23.099  49.237  47.694  1.00  0.00    -0.267 OA
HETATM   11  H   UNL     1      21.939  48.167  50.461  1.00  0.00     0.169 HD
BRANCH   9  12
HETATM   12  C   UNL     1      24.010  47.634  49.176  1.00  0.00     0.100 A 
HETATM   13  C   UNL     1      23.796  46.157  49.237  1.00  0.00     0.261 A 
HETATM   14  N   UNL     1      24.878  45.388  49.599  1.00  0.00    -0.327 N 
HETATM   15  O   UNL     1      22.708  45.647  48.975  1.00  0.00    -0.267 OA
HETATM   16  C   UNL     1      26.120  45.891  49.909  1.00  0.00     0.008 A 
HETATM   17  H   UNL     1      24.716  44.388  49.627  1.00  0.00     0.169 HD
HETATM   18  C   UNL     1      27.189  44.905  50.265  1.00  0.00     0.068 C 
HETATM   19  C   UNL     1      26.313  47.217  49.872  1.00  0.00     0.026 A 
HETATM   20  C   UNL     1      25.232  48.102  49.496  1.00  0.00     0.025 A 
ENDBRANCH   9  12
ENDBRANCH   1   8
BRANCH   5  21
HETATM   21  C   UNL     1      17.134  51.841  49.149  1.00  0.00     0.183 A 
HETATM   22  N   UNL     1      16.619  52.324  48.003  1.00  0.00    -0.152 NA
HETATM   23  N   UNL     1      15.581  53.049  48.440  1.00  0.00    -0.263 N 
HETATM   24  H   UNL     1      15.011  53.556  47.773  1.00  0.00     0.190 HD
HETATM   25  C   UNL     1      15.461  52.982  49.795  1.00  0.00     0.118 A 
HETATM   26  C   UNL     1      14.418  53.695  50.560  1.00  0.00     0.093 C 
HETATM   27  N   UNL     1      16.412  52.206  50.262  1.00  0.00    -0.212 NA
ENDBRANCH   5  21
TORSDOF 3
ENDMDL
MODEL 8
REMARK VINA RESULT:      -7.7     12.253     14.960
REMARK  3 active torsions:
REMARK  status: ('A' for Active; 'I' for Inactive)
REMARK    1  A    between atoms: C_6  and  C_7 
REMARK       I    between atoms: C_7  and  N_8 
REMARK    2  A    between atoms: N_8  and  C_9 
REMARK    3  A    between atoms: C_13  and  C_14 
ROOT
HETATM    1  C   UNL     1      31.104  50.817  41.052  1.00  0.00     0.036 A 
HETATM    2  C   UNL     1      30.041  51.629  41.446  1.00  0.00     0.054 A 
HETATM    3  C   UNL     1      28.767  51.487  40.866  1.00  0.00     0.050 A 
HETATM    4 CL   UNL     1      27.566  52.622  41.392  1.00  0.00    -0.083 Cl
HETATM    5  C   UNL     1      28.534  50.512  39.883  1.00  0.00     0.035 A 
HETATM    6  C   UNL     1      29.610  49.687  39.509  1.00  0.00     0.019 A 
HETATM    7  C   UNL     1      30.876  49.836  40.085  1.00  0.00     0.030 A 
ENDROOT
BRANCH   1   8
HETATM    8  N   UNL     1      32.424  50.944  41.534  1.00  0.00    -0.323 N 
HETATM    9  C   UNL     1      32.858  50.902  42.843  1.00  0.00     0.261 C 
HETATM   10  O   UNL     1      32.161  50.630  43.818  1.00  0.00    -0.267 OA
HETATM   11  H   UNL     1      33.135  51.140  40.828  1.00  0.00     0.169 HD
BRANCH   9  12
HETATM   12  C   UNL     1      34.305  51.246  43.029  1.00  0.00     0.100 A 
HETATM   13  C   UNL     1      35.409  50.693  42.188  1.00  0.00     0.261 A 
HETATM   14  N   UNL     1      36.679  51.154  42.450  1.00  0.00    -0.327 N 
HETATM   15  O   UNL     1      35.199  49.868  41.301  1.00  0.00    -0.267 OA
HETATM   16  C   UNL     1      36.986  52.070  43.429  1.00  0.00     0.008 A 
HETATM   17  H   UNL     1      37.413  50.773  41.865  1.00  0.00     0.169 HD
HETATM   18  C   UNL     1      38.423  52.472  43.563  1.00  0.00     0.068 C 
HETATM   19  C   UNL     1      36.002  52.557  44.198  1.00  0.00     0.026 A 
HETATM   20  C   UNL     1      34.634  52.133  43.987  1.00  0.00     0.025 A 
ENDBRANCH   9  12
ENDBRANCH   1   8
BRANCH   5  21
HETATM   21  C   UNL     1      27.252  50.327  39.207  1.00  0.00     0.183 A 
HETATM   22  N   UNL     1      26.972  50.858  38.003  1.00  0.00    -0.152 NA
HETATM   23  N   UNL     1      25.712  50.452  37.797  1.00  0.00    -0.263 N 
HETATM   24  H   UNL     1      25.229  50.734  36.952  1.00  0.00     0.190 HD
HETATM   25  C   UNL     1      25.262  49.683  38.827  1.00  0.00     0.118 A 
HETATM   26  C   UNL     1      23.902  49.107  38.884  1.00  0.00     0.093 C 
HETATM   27  N   UNL     1      26.222  49.567  39.715  1.00  0.00    -0.212 NA
ENDBRANCH   5  21
TORSDOF 3
ENDMDL
MODEL 9
REMARK VINA RESULT:      -7.7     12.306     13.103
REMARK  3 active torsions:
REMARK  status: ('A' for Active; 'I' for Inactive)
REMARK    1  A    between atoms: C_6  and  C_7 
REMARK       I    between atoms: C_7  and  N_8 
REMARK    2  A    between atoms: N_8  and  C_9 
REMARK    3  A    between atoms: C_13  and  C_14 
ROOT
HETATM    1  C   UNL     1      30.836  50.587  40.963  1.00  0.00     0.036 A 
HETATM    2  C   UNL     1      31.809  51.218  40.190  1.00  0.00     0.054 A 
HETATM    3  C   UNL     1      33.104  51.443  40.696  1.00  0.00     0.050 A 
HETATM    4 CL   UNL     1      34.181  52.315  39.654  1.00  0.00    -0.083 Cl
HETATM    5  C   UNL     1      33.447  51.025  41.991  1.00  0.00     0.035 A 
HETATM    6  C   UNL     1      32.461  50.371  42.753  1.00  0.00     0.019 A 
HETATM    7  C   UNL     1      31.176  50.155  42.247  1.00  0.00     0.030 A 
ENDROOT
BRANCH   1   8
HETATM    8  N   UNL     1      29.501  50.388  40.555  1.00  0.00    -0.323 N 
HETATM    9  C   UNL     1      28.973  49.314  39.869  1.00  0.00     0.261 C 
HETATM   10  O   UNL     1      29.574  48.278  39.593  1.00  0.00    -0.267 OA
HETATM   11  H   UNL     1      28.860  51.159  40.750  1.00  0.00     0.169 HD
BRANCH   9  12
HETATM   12  C   UNL     1      27.549  49.492  39.434  1.00  0.00     0.100 A 
HETATM   13  C   UNL     1      27.101  50.525  38.452  1.00  0.00     0.261 A 
HETATM   14  N   UNL     1      25.767  50.520  38.114  1.00  0.00    -0.327 N 
HETATM   15  O   UNL     1      27.881  51.339  37.963  1.00  0.00    -0.267 OA
HETATM   16  C   UNL     1      24.839  49.643  38.625  1.00  0.00     0.008 A 
HETATM   17  H   UNL     1      25.482  51.222  37.441  1.00  0.00     0.169 HD
HETATM   18  C   UNL     1      23.431  49.772  38.131  1.00  0.00     0.068 C 
HETATM   19  C   UNL     1      25.233  48.726  39.520  1.00  0.00     0.026 A 
HETATM   20  C   UNL     1      26.619  48.653  39.928  1.00  0.00     0.025 A 
ENDBRANCH   9  12
ENDBRANCH   1   8
BRANCH   5  21
HETATM   21  C   UNL     1      34.755  51.253  42.601  1.00  0.00     0.183 A 
HETATM   22  N   UNL     1      35.822  50.466  42.370  1.00  0.00    -0.152 NA
HETATM   23  N   UNL     1      36.765  51.031  43.136  1.00  0.00    -0.263 N 
HETATM   24  H   UNL     1      37.690  50.618  43.172  1.00  0.00     0.190 HD
HETATM   25  C   UNL     1      36.290  52.132  43.781  1.00  0.00     0.118 A 
HETATM   26  C   UNL     1      37.100  52.950  44.707  1.00  0.00     0.093 C 
HETATM   27  N   UNL     1      35.034  52.308  43.440  1.00  0.00    -0.212 NA
ENDBRANCH   5  21
TORSDOF 3
ENDMDL
MODEL 10
REMARK VINA RESULT:      -7.7      7.176      9.402
REMARK  3 active torsions:
REMARK  status: ('A' for Active; 'I' for Inactive)
REMARK    1  A    between atoms: C_6  and  C_7 
REMARK       I    between atoms: C_7  and  N_8 
REMARK    2  A    between atoms: N_8  and  C_9 
REMARK    3  A    between atoms: C_13  and  C_14 
ROOT
HETATM    1  C   UNL     1      28.350  41.173  52.351  1.00  0.00     0.036 A 
HETATM    2  C   UNL     1      27.260  41.264  51.486  1.00  0.00     0.054 A 
HETATM    3  C   UNL     1      27.086  40.339  50.440  1.00  0.00     0.050 A 
HETATM    4 CL   UNL     1      25.734  40.628  49.394  1.00  0.00    -0.083 Cl
HETATM    5  C   UNL     1      28.003  39.293  50.250  1.00  0.00     0.035 A 
HETATM    6  C   UNL     1      29.088  39.202  51.142  1.00  0.00     0.019 A 
HETATM    7  C   UNL     1      29.258  40.127  52.177  1.00  0.00     0.030 A 
ENDROOT
BRANCH   1   8
HETATM    8  N   UNL     1      28.631  42.099  53.378  1.00  0.00    -0.323 N 
HETATM    9  C   UNL     1      28.678  43.474  53.291  1.00  0.00     0.261 C 
HETATM   10  O   UNL     1      28.364  44.139  52.306  1.00  0.00    -0.267 OA
HETATM   11  H   UNL     1      28.878  41.693  54.282  1.00  0.00     0.169 HD
BRANCH   9  12
HETATM   12  C   UNL     1      29.179  44.159  54.528  1.00  0.00     0.100 A 
HETATM   13  C   UNL     1      28.495  45.319  55.173  1.00  0.00     0.261 A 
HETATM   14  N   UNL     1      29.052  45.798  56.337  1.00  0.00    -0.327 N 
HETATM   15  O   UNL     1      27.482  45.825  54.694  1.00  0.00    -0.267 OA
HETATM   16  C   UNL     1      30.184  45.284  56.925  1.00  0.00     0.008 A 
HETATM   17  H   UNL     1      28.570  46.580  56.765  1.00  0.00     0.169 HD
HETATM   18  C   UNL     1      30.641  45.919  58.202  1.00  0.00     0.068 C 
HETATM   19  C   UNL     1      30.811  44.253  56.340  1.00  0.00     0.026 A 
HETATM   20  C   UNL     1      30.291  43.682  55.117  1.00  0.00     0.025 A 
ENDBRANCH   9  12
ENDBRANCH   1   8
BRANCH   5  21
HETATM   21  C   UNL     1      27.914  38.317  49.166  1.00  0.00     0.183 A 
HETATM   22  N   UNL     1      27.199  37.180  49.259  1.00  0.00    -0.152 NA
HETATM   23  N   UNL     1      27.421  36.606  48.070  1.00  0.00    -0.263 N 
HETATM   24  H   UNL     1      27.009  35.702  47.869  1.00  0.00     0.190 HD
HETATM   25  C   UNL     1      28.216  37.382  47.282  1.00  0.00     0.118 A 
HETATM   26  C   UNL     1      28.643  36.997  45.921  1.00  0.00     0.093 C 
HETATM   27  N   UNL     1      28.518  38.476  47.940  1.00  0.00    -0.212 NA
ENDBRANCH   5  21
TORSDOF 3
ENDMDL
