MODEL 1
REMARK VINA RESULT:      -9.7      0.000      0.000
REMARK  5 active torsions:
REMARK  status: ('A' for Active; 'I' for Inactive)
REMARK    1  A    between atoms: C_5  and  C_6 
REMARK    2  A    between atoms: C_6  and  O_7 
REMARK    3  A    between atoms: O_7  and  C_8 
REMARK    4  A    between atoms: C_12  and  C_13 
REMARK    5  A    between atoms: C_30  and  O_31 
ROOT
HETATM    1  C   UNL     1      24.963  44.391  50.691  1.00  0.00     0.130 A 
HETATM    2  C   UNL     1      24.536  43.300  49.925  1.00  0.00     0.048 A 
HETATM    3 BR   UNL     1      25.188  41.538  50.214  1.00  0.00    -0.048 Br
HETATM    4  C   UNL     1      23.643  43.490  48.868  1.00  0.00     0.033 A 
HETATM    5  C   UNL     1      23.194  44.774  48.516  1.00  0.00    -0.012 A 
HETATM    6  C   UNL     1      23.626  45.854  49.310  1.00  0.00     0.050 A 
HETATM    7  C   UNL     1      24.527  45.679  50.371  1.00  0.00     0.104 A 
ENDROOT
BRANCH   5   8
HETATM    8  C   UNL     1      22.337  45.050  47.281  1.00  0.00     0.219 C 
HETATM    9  N   UNL     1      20.971  44.631  47.507  1.00  0.00    -0.332 N 
HETATM   10  C   UNL     1      20.088  45.388  48.233  1.00  0.00     0.256 C 
HETATM   11  H   UNL     1      20.769  43.642  47.506  1.00  0.00     0.165 HD
HETATM   12  O   UNL     1      19.086  44.908  48.751  1.00  0.00    -0.267 OA
HETATM   13  C   UNL     1      20.423  46.800  48.325  1.00  0.00     0.073 A 
HETATM   14  C   UNL     1      21.491  47.272  47.596  1.00  0.00     0.088 A 
HETATM   15  C   UNL     1      19.826  47.830  49.115  1.00  0.00    -0.023 A 
HETATM   16  S   UNL     1      21.710  48.949  47.762  1.00  0.00    -0.074 SA
HETATM   17  N   UNL     1      22.304  46.453  46.886  1.00  0.00    -0.358 N 
HETATM   18  C   UNL     1      20.455  49.045  48.911  1.00  0.00     0.018 A 
HETATM   19  C   UNL     1      20.141  50.307  49.635  1.00  0.00     0.281 C 
HETATM   20  N   UNL     1      18.821  50.209  50.394  1.00  0.00    -0.070 N 
HETATM   21  C   UNL     1      18.659  48.855  51.082  1.00  0.00     0.239 C 
HETATM   22  H   UNL     1      18.873  50.911  51.142  1.00  0.00     0.279 HD
HETATM   23  C   UNL     1      17.642  50.589  49.547  1.00  0.00     0.270 C 
HETATM   24  C   UNL     1      18.689  47.686  50.081  1.00  0.00     0.068 C 
HETATM   25  H   UNL     1      23.186  46.809  46.529  1.00  0.00     0.162 HD
ENDBRANCH   5   8
BRANCH   7  26
HETATM   26  O   UNL     1      24.867  46.837  51.014  1.00  0.00    -0.353 OA
HETATM   27  C   UNL     1      25.925  47.585  50.423  1.00  0.00     0.210 C 
ENDBRANCH   7  26
BRANCH   1  28
HETATM   28  O   UNL     1      25.874  44.185  51.729  1.00  0.00    -0.271 OA
BRANCH  28  29
HETATM   29  C   UNL     1      27.188  44.191  51.299  1.00  0.00     0.298 C 
HETATM   30  O   UNL     1      27.596  44.453  50.178  1.00  0.00    -0.259 OA
BRANCH  29  31
HETATM   31  C   UNL     1      28.074  43.943  52.468  1.00  0.00     0.040 A 
HETATM   32  C   UNL     1      29.162  43.078  52.298  1.00  0.00     0.018 A 
HETATM   33  C   UNL     1      30.063  42.868  53.344  1.00  0.00     0.007 A 
HETATM   34  C   UNL     1      29.891  43.519  54.571  1.00  0.00    -0.062 A 
HETATM   35  C   UNL     1      30.850  43.286  55.701  1.00  0.00     0.048 C 
HETATM   36  C   UNL     1      28.783  44.356  54.750  1.00  0.00     0.007 A 
HETATM   37  C   UNL     1      27.880  44.572  53.705  1.00  0.00     0.018 A 
ENDBRANCH  29  31
ENDBRANCH  28  29
ENDBRANCH   1  28
TORSDOF 5
ENDMDL
MODEL 2
REMARK VINA RESULT:      -8.9      4.896      7.421
REMARK  5 active torsions:
REMARK  status: ('A' for Active; 'I' for Inactive)
REMARK    1  A    between atoms: C_5  and  C_6 
REMARK    2  A    between atoms: C_6  and  O_7 
REMARK    3  A    between atoms: O_7  and  C_8 
REMARK    4  A    between atoms: C_12  and  C_13 
REMARK    5  A    between atoms: C_30  and  O_31 
ROOT
HETATM    1  C   UNL     1      26.660  43.577  50.801  1.00  0.00     0.130 A 
HETATM    2  C   UNL     1      25.852  44.367  49.976  1.00  0.00     0.048 A 
HETATM    3 BR   UNL     1      25.975  46.264  49.948  1.00  0.00    -0.048 Br
HETATM    4  C   UNL     1      24.872  43.775  49.176  1.00  0.00     0.033 A 
HETATM    5  C   UNL     1      24.639  42.390  49.215  1.00  0.00    -0.012 A 
HETATM    6  C   UNL     1      25.475  41.614  50.042  1.00  0.00     0.050 A 
HETATM    7  C   UNL     1      26.459  42.195  50.855  1.00  0.00     0.104 A 
ENDROOT
BRANCH   5   8
HETATM    8  C   UNL     1      23.486  41.714  48.473  1.00  0.00     0.219 C 
HETATM    9  N   UNL     1      23.156  42.450  47.273  1.00  0.00    -0.332 N 
HETATM   10  C   UNL     1      23.898  42.341  46.125  1.00  0.00     0.256 C 
HETATM   11  H   UNL     1      22.665  43.326  47.370  1.00  0.00     0.165 HD
HETATM   12  O   UNL     1      23.881  43.200  45.250  1.00  0.00    -0.267 OA
HETATM   13  C   UNL     1      24.687  41.124  46.018  1.00  0.00     0.073 A 
HETATM   14  C   UNL     1      24.534  40.155  46.983  1.00  0.00     0.088 A 
HETATM   15  C   UNL     1      25.676  40.760  45.054  1.00  0.00    -0.023 A 
HETATM   16  S   UNL     1      25.477  38.773  46.681  1.00  0.00    -0.074 SA
HETATM   17  N   UNL     1      23.762  40.338  48.081  1.00  0.00    -0.358 N 
HETATM   18  C   UNL     1      26.197  39.506  45.321  1.00  0.00     0.018 A 
HETATM   19  C   UNL     1      27.303  38.857  44.565  1.00  0.00     0.281 C 
HETATM   20  N   UNL     1      27.584  39.575  43.249  1.00  0.00    -0.070 N 
HETATM   21  C   UNL     1      27.534  41.093  43.406  1.00  0.00     0.239 C 
HETATM   22  H   UNL     1      28.553  39.339  43.001  1.00  0.00     0.279 HD
HETATM   23  C   UNL     1      26.731  39.067  42.124  1.00  0.00     0.270 C 
HETATM   24  C   UNL     1      26.162  41.583  43.899  1.00  0.00     0.068 C 
HETATM   25  H   UNL     1      23.832  39.686  48.857  1.00  0.00     0.162 HD
ENDBRANCH   5   8
BRANCH   7  26
HETATM   26  O   UNL     1      27.155  41.300  51.619  1.00  0.00    -0.353 OA
HETATM   27  C   UNL     1      28.285  40.700  50.996  1.00  0.00     0.210 C 
ENDBRANCH   7  26
BRANCH   1  28
HETATM   28  O   UNL     1      27.619  44.189  51.612  1.00  0.00    -0.271 OA
BRANCH  28  29
HETATM   29  C   UNL     1      27.183  44.374  52.911  1.00  0.00     0.298 C 
HETATM   30  O   UNL     1      26.033  44.540  53.287  1.00  0.00    -0.259 OA
BRANCH  29  31
HETATM   31  C   UNL     1      28.343  44.216  53.829  1.00  0.00     0.040 A 
HETATM   32  C   UNL     1      28.502  45.155  54.856  1.00  0.00     0.018 A 
HETATM   33  C   UNL     1      29.533  45.010  55.787  1.00  0.00     0.007 A 
HETATM   34  C   UNL     1      30.415  43.926  55.706  1.00  0.00    -0.062 A 
HETATM   35  C   UNL     1      31.531  43.774  56.697  1.00  0.00     0.048 C 
HETATM   36  C   UNL     1      30.275  43.008  54.658  1.00  0.00     0.007 A 
HETATM   37  C   UNL     1      29.244  43.148  53.726  1.00  0.00     0.018 A 
ENDBRANCH  29  31
ENDBRANCH  28  29
ENDBRANCH   1  28
TORSDOF 5
ENDMDL
MODEL 3
REMARK VINA RESULT:      -8.6      9.905     12.010
REMARK  5 active torsions:
REMARK  status: ('A' for Active; 'I' for Inactive)
REMARK    1  A    between atoms: C_5  and  C_6 
REMARK    2  A    between atoms: C_6  and  O_7 
REMARK    3  A    between atoms: O_7  and  C_8 
REMARK    4  A    between atoms: C_12  and  C_13 
REMARK    5  A    between atoms: C_30  and  O_31 
ROOT
HETATM    1  C   UNL     1      30.009  49.252  41.675  1.00  0.00     0.130 A 
HETATM    2  C   UNL     1      30.633  48.179  41.028  1.00  0.00     0.048 A 
HETATM    3 BR   UNL     1      32.496  47.838  41.190  1.00  0.00    -0.048 Br
HETATM    4  C   UNL     1      29.899  47.347  40.180  1.00  0.00     0.033 A 
HETATM    5  C   UNL     1      28.540  47.591  39.918  1.00  0.00    -0.012 A 
HETATM    6  C   UNL     1      27.931  48.667  40.593  1.00  0.00     0.050 A 
HETATM    7  C   UNL     1      28.657  49.515  41.442  1.00  0.00     0.104 A 
ENDROOT
BRANCH   5   8
HETATM    8  C   UNL     1      27.732  46.801  38.888  1.00  0.00     0.219 C 
HETATM    9  N   UNL     1      28.357  45.523  38.626  1.00  0.00    -0.332 N 
HETATM   10  C   UNL     1      28.222  44.459  39.480  1.00  0.00     0.256 C 
HETATM   11  H   UNL     1      29.199  45.509  38.071  1.00  0.00     0.165 HD
HETATM   12  O   UNL     1      29.015  43.524  39.490  1.00  0.00    -0.267 OA
HETATM   13  C   UNL     1      27.062  44.517  40.355  1.00  0.00     0.073 A 
HETATM   14  C   UNL     1      26.154  45.535  40.175  1.00  0.00     0.088 A 
HETATM   15  C   UNL     1      26.705  43.677  41.454  1.00  0.00    -0.023 A 
HETATM   16  S   UNL     1      24.827  45.425  41.232  1.00  0.00    -0.074 SA
HETATM   17  N   UNL     1      26.356  46.541  39.290  1.00  0.00    -0.358 N 
HETATM   18  C   UNL     1      25.514  44.085  42.028  1.00  0.00     0.018 A 
HETATM   19  C   UNL     1      24.896  43.484  43.242  1.00  0.00     0.281 C 
HETATM   20  N   UNL     1      25.540  42.147  43.600  1.00  0.00    -0.070 N 
HETATM   21  C   UNL     1      27.058  42.184  43.435  1.00  0.00     0.239 C 
HETATM   22  H   UNL     1      25.359  42.007  44.601  1.00  0.00     0.279 HD
HETATM   23  C   UNL     1      24.894  40.991  42.894  1.00  0.00     0.270 C 
HETATM   24  C   UNL     1      27.479  42.511  41.992  1.00  0.00     0.068 C 
HETATM   25  H   UNL     1      25.766  47.368  39.329  1.00  0.00     0.162 HD
ENDBRANCH   5   8
BRANCH   7  26
HETATM   26  O   UNL     1      27.919  50.529  41.987  1.00  0.00    -0.353 OA
HETATM   27  C   UNL     1      27.577  51.590  41.102  1.00  0.00     0.210 C 
ENDBRANCH   7  26
BRANCH   1  28
HETATM   28  O   UNL     1      30.765  50.088  42.500  1.00  0.00    -0.271 OA
BRANCH  28  29
HETATM   29  C   UNL     1      31.444  51.066  41.796  1.00  0.00     0.298 C 
HETATM   30  O   UNL     1      31.053  51.669  40.810  1.00  0.00    -0.259 OA
BRANCH  29  31
HETATM   31  C   UNL     1      32.712  51.374  42.511  1.00  0.00     0.040 A 
HETATM   32  C   UNL     1      33.909  51.297  41.789  1.00  0.00     0.018 A 
HETATM   33  C   UNL     1      35.119  51.646  42.395  1.00  0.00     0.007 A 
HETATM   34  C   UNL     1      35.147  52.076  43.727  1.00  0.00    -0.062 A 
HETATM   35  C   UNL     1      36.445  52.440  44.384  1.00  0.00     0.048 C 
HETATM   36  C   UNL     1      33.953  52.119  44.457  1.00  0.00     0.007 A 
HETATM   37  C   UNL     1      32.740  51.774  43.854  1.00  0.00     0.018 A 
ENDBRANCH  29  31
ENDBRANCH  28  29
ENDBRANCH   1  28
TORSDOF 5
ENDMDL
MODEL 4
REMARK VINA RESULT:      -8.6      4.638      7.518
REMARK  5 active torsions:
REMARK  status: ('A' for Active; 'I' for Inactive)
REMARK    1  A    between atoms: C_5  and  C_6 
REMARK    2  A    between atoms: C_6  and  O_7 
REMARK    3  A    between atoms: O_7  and  C_8 
REMARK    4  A    between atoms: C_12  and  C_13 
REMARK    5  A    between atoms: C_30  and  O_31 
ROOT
HETATM    1  C   UNL     1      26.511  43.231  50.418  1.00  0.00     0.130 A 
HETATM    2  C   UNL     1      26.411  41.837  50.502  1.00  0.00     0.048 A 
HETATM    3 BR   UNL     1      27.634  40.790  51.512  1.00  0.00    -0.048 Br
HETATM    4  C   UNL     1      25.424  41.158  49.784  1.00  0.00     0.033 A 
HETATM    5  C   UNL     1      24.545  41.843  48.928  1.00  0.00    -0.012 A 
HETATM    6  C   UNL     1      24.656  43.247  48.871  1.00  0.00     0.050 A 
HETATM    7  C   UNL     1      25.646  43.941  49.582  1.00  0.00     0.104 A 
ENDROOT
BRANCH   5   8
HETATM    8  C   UNL     1      23.548  41.135  48.012  1.00  0.00     0.219 C 
HETATM    9  N   UNL     1      23.332  41.904  46.806  1.00  0.00    -0.332 N 
HETATM   10  C   UNL     1      24.226  41.893  45.766  1.00  0.00     0.256 C 
HETATM   11  H   UNL     1      22.776  42.744  46.869  1.00  0.00     0.165 HD
HETATM   12  O   UNL     1      24.269  42.790  44.931  1.00  0.00    -0.267 OA
HETATM   13  C   UNL     1      25.101  40.733  45.722  1.00  0.00     0.073 A 
HETATM   14  C   UNL     1      24.886  39.712  46.620  1.00  0.00     0.088 A 
HETATM   15  C   UNL     1      26.232  40.474  44.887  1.00  0.00    -0.023 A 
HETATM   16  S   UNL     1      25.950  38.406  46.396  1.00  0.00    -0.074 SA
HETATM   17  N   UNL     1      23.964  39.797  47.609  1.00  0.00    -0.358 N 
HETATM   18  C   UNL     1      26.794  39.243  45.175  1.00  0.00     0.018 A 
HETATM   19  C   UNL     1      28.031  38.697  44.552  1.00  0.00     0.281 C 
HETATM   20  N   UNL     1      28.437  39.491  43.314  1.00  0.00    -0.070 N 
HETATM   21  C   UNL     1      28.266  40.995  43.521  1.00  0.00     0.239 C 
HETATM   22  H   UNL     1      29.443  39.326  43.192  1.00  0.00     0.279 HD
HETATM   23  C   UNL     1      27.776  38.985  42.065  1.00  0.00     0.270 C 
HETATM   24  C   UNL     1      26.811  41.377  43.841  1.00  0.00     0.068 C 
HETATM   25  H   UNL     1      23.973  39.116  48.362  1.00  0.00     0.162 HD
ENDBRANCH   5   8
BRANCH   7  26
HETATM   26  O   UNL     1      25.632  45.294  49.385  1.00  0.00    -0.353 OA
HETATM   27  C   UNL     1      24.516  45.988  49.932  1.00  0.00     0.210 C 
ENDBRANCH   7  26
BRANCH   1  28
HETATM   28  O   UNL     1      27.519  43.890  51.124  1.00  0.00    -0.271 OA
BRANCH  28  29
HETATM   29  C   UNL     1      27.118  44.288  52.386  1.00  0.00     0.298 C 
HETATM   30  O   UNL     1      25.998  44.632  52.729  1.00  0.00    -0.259 OA
BRANCH  29  31
HETATM   31  C   UNL     1      28.258  44.114  53.326  1.00  0.00     0.040 A 
HETATM   32  C   UNL     1      28.272  44.887  54.493  1.00  0.00     0.018 A 
HETATM   33  C   UNL     1      29.283  44.710  55.441  1.00  0.00     0.007 A 
HETATM   34  C   UNL     1      30.289  43.758  55.237  1.00  0.00    -0.062 A 
HETATM   35  C   UNL     1      31.382  43.574  56.247  1.00  0.00     0.048 C 
HETATM   36  C   UNL     1      30.291  43.010  54.053  1.00  0.00     0.007 A 
HETATM   37  C   UNL     1      29.281  43.183  53.103  1.00  0.00     0.018 A 
ENDBRANCH  29  31
ENDBRANCH  28  29
ENDBRANCH   1  28
TORSDOF 5
ENDMDL
MODEL 5
REMARK VINA RESULT:      -8.5      4.942      7.379
REMARK  5 active torsions:
REMARK  status: ('A' for Active; 'I' for Inactive)
REMARK    1  A    between atoms: C_5  and  C_6 
REMARK    2  A    between atoms: C_6  and  O_7 
REMARK    3  A    between atoms: O_7  and  C_8 
REMARK    4  A    between atoms: C_12  and  C_13 
REMARK    5  A    between atoms: C_30  and  O_31 
ROOT
HETATM    1  C   UNL     1      20.229  48.404  49.074  1.00  0.00     0.130 A 
HETATM    2  C   UNL     1      19.862  47.361  48.216  1.00  0.00     0.048 A 
HETATM    3 BR   UNL     1      21.145  46.252  47.358  1.00  0.00    -0.048 Br
HETATM    4  C   UNL     1      18.516  47.139  47.915  1.00  0.00     0.033 A 
HETATM    5  C   UNL     1      17.509  47.978  48.420  1.00  0.00    -0.012 A 
HETATM    6  C   UNL     1      17.901  49.012  49.293  1.00  0.00     0.050 A 
HETATM    7  C   UNL     1      19.249  49.250  49.600  1.00  0.00     0.104 A 
ENDROOT
BRANCH   5   8
HETATM    8  C   UNL     1      16.042  47.867  48.004  1.00  0.00     0.219 C 
HETATM    9  N   UNL     1      15.407  49.167  48.035  1.00  0.00    -0.332 N 
HETATM   10  C   UNL     1      15.576  50.083  47.029  1.00  0.00     0.256 C 
HETATM   11  H   UNL     1      15.189  49.570  48.934  1.00  0.00     0.165 HD
HETATM   12  O   UNL     1      15.379  51.282  47.196  1.00  0.00    -0.267 OA
HETATM   13  C   UNL     1      15.987  49.523  45.752  1.00  0.00     0.073 A 
HETATM   14  C   UNL     1      16.048  48.154  45.623  1.00  0.00     0.088 A 
HETATM   15  C   UNL     1      16.399  50.186  44.555  1.00  0.00    -0.023 A 
HETATM   16  S   UNL     1      16.481  47.661  44.056  1.00  0.00    -0.074 SA
HETATM   17  N   UNL     1      15.847  47.317  46.669  1.00  0.00    -0.358 N 
HETATM   18  C   UNL     1      16.715  49.275  43.563  1.00  0.00     0.018 A 
HETATM   19  C   UNL     1      17.258  49.621  42.221  1.00  0.00     0.281 C 
HETATM   20  N   UNL     1      17.116  51.111  41.922  1.00  0.00    -0.070 N 
HETATM   21  C   UNL     1      17.446  51.970  43.142  1.00  0.00     0.239 C 
HETATM   22  H   UNL     1      17.829  51.325  41.214  1.00  0.00     0.279 HD
HETATM   23  C   UNL     1      15.794  51.449  41.298  1.00  0.00     0.270 C 
HETATM   24  C   UNL     1      16.526  51.663  44.336  1.00  0.00     0.068 C 
HETATM   25  H   UNL     1      16.094  46.335  46.580  1.00  0.00     0.162 HD
ENDBRANCH   5   8
BRANCH   7  26
HETATM   26  O   UNL     1      19.454  50.314  50.434  1.00  0.00    -0.353 OA
HETATM   27  C   UNL     1      19.244  51.600  49.861  1.00  0.00     0.210 C 
ENDBRANCH   7  26
BRANCH   1  28
HETATM   28  O   UNL     1      21.581  48.626  49.345  1.00  0.00    -0.271 OA
BRANCH  28  29
HETATM   29  C   UNL     1      22.209  49.372  48.364  1.00  0.00     0.298 C 
HETATM   30  O   UNL     1      21.677  50.066  47.513  1.00  0.00    -0.259 OA
BRANCH  29  31
HETATM   31  C   UNL     1      23.679  49.301  48.580  1.00  0.00     0.040 A 
HETATM   32  C   UNL     1      24.172  48.301  49.428  1.00  0.00     0.018 A 
HETATM   33  C   UNL     1      25.549  48.147  49.607  1.00  0.00     0.007 A 
HETATM   34  C   UNL     1      26.449  48.988  48.942  1.00  0.00    -0.062 A 
HETATM   35  C   UNL     1      27.928  48.833  49.142  1.00  0.00     0.048 C 
HETATM   36  C   UNL     1      25.953  50.009  48.122  1.00  0.00     0.007 A 
HETATM   37  C   UNL     1      24.576  50.164  47.938  1.00  0.00     0.018 A 
ENDBRANCH  29  31
ENDBRANCH  28  29
ENDBRANCH   1  28
TORSDOF 5
ENDMDL
MODEL 6
REMARK VINA RESULT:      -8.5     20.175     22.602
REMARK  5 active torsions:
REMARK  status: ('A' for Active; 'I' for Inactive)
REMARK    1  A    between atoms: C_5  and  C_6 
REMARK    2  A    between atoms: C_6  and  O_7 
REMARK    3  A    between atoms: O_7  and  C_8 
REMARK    4  A    between atoms: C_12  and  C_13 
REMARK    5  A    between atoms: C_30  and  O_31 
ROOT
HETATM    1  C   UNL     1      40.834  40.824  65.176  1.00  0.00     0.130 A 
HETATM    2  C   UNL     1      41.534  41.968  65.575  1.00  0.00     0.048 A 
HETATM    3 BR   UNL     1      42.670  41.986  67.099  1.00  0.00    -0.048 Br
HETATM    4  C   UNL     1      41.369  43.170  64.882  1.00  0.00     0.033 A 
HETATM    5  C   UNL     1      40.467  43.274  63.810  1.00  0.00    -0.012 A 
HETATM    6  C   UNL     1      39.786  42.105  63.418  1.00  0.00     0.050 A 
HETATM    7  C   UNL     1      39.937  40.893  64.107  1.00  0.00     0.104 A 
ENDROOT
BRANCH   5   8
HETATM    8  C   UNL     1      40.142  44.597  63.117  1.00  0.00     0.219 C 
HETATM    9  N   UNL     1      38.744  44.645  62.748  1.00  0.00    -0.332 N 
HETATM   10  C   UNL     1      37.760  44.933  63.659  1.00  0.00     0.256 C 
HETATM   11  H   UNL     1      38.437  44.086  61.966  1.00  0.00     0.165 HD
HETATM   12  O   UNL     1      36.589  44.617  63.480  1.00  0.00    -0.267 OA
HETATM   13  C   UNL     1      38.210  45.655  64.839  1.00  0.00     0.073 A 
HETATM   14  C   UNL     1      39.515  46.088  64.887  1.00  0.00     0.088 A 
HETATM   15  C   UNL     1      37.502  45.973  66.038  1.00  0.00    -0.023 A 
HETATM   16  S   UNL     1      39.863  46.968  66.299  1.00  0.00    -0.074 SA
HETATM   17  N   UNL     1      40.421  45.774  63.929  1.00  0.00    -0.358 N 
HETATM   18  C   UNL     1      38.306  46.671  66.922  1.00  0.00     0.018 A 
HETATM   19  C   UNL     1      37.911  47.086  68.297  1.00  0.00     0.281 C 
HETATM   20  N   UNL     1      36.407  46.956  68.516  1.00  0.00    -0.070 N 
HETATM   21  C   UNL     1      35.850  45.675  67.898  1.00  0.00     0.239 C 
HETATM   22  H   UNL     1      36.277  46.871  69.531  1.00  0.00     0.279 HD
HETATM   23  C   UNL     1      35.658  48.189  68.102  1.00  0.00     0.270 C 
HETATM   24  C   UNL     1      36.089  45.609  66.380  1.00  0.00     0.068 C 
HETATM   25  H   UNL     1      41.408  45.942  64.099  1.00  0.00     0.162 HD
ENDBRANCH   5   8
BRANCH   7  26
HETATM   26  O   UNL     1      39.176  39.870  63.616  1.00  0.00    -0.353 OA
HETATM   27  C   UNL     1      39.565  39.364  62.344  1.00  0.00     0.210 C 
ENDBRANCH   7  26
BRANCH   1  28
HETATM   28  O   UNL     1      40.995  39.637  65.895  1.00  0.00    -0.271 OA
BRANCH  28  29
HETATM   29  C   UNL     1      41.804  38.722  65.247  1.00  0.00     0.298 C 
HETATM   30  O   UNL     1      42.777  38.963  64.550  1.00  0.00    -0.259 OA
BRANCH  29  31
HETATM   31  C   UNL     1      41.377  37.350  65.633  1.00  0.00     0.040 A 
HETATM   32  C   UNL     1      40.101  37.190  66.187  1.00  0.00     0.018 A 
HETATM   33  C   UNL     1      39.626  35.915  66.500  1.00  0.00     0.007 A 
HETATM   34  C   UNL     1      40.417  34.785  66.263  1.00  0.00    -0.062 A 
HETATM   35  C   UNL     1      39.915  33.414  66.610  1.00  0.00     0.048 C 
HETATM   36  C   UNL     1      41.706  34.951  65.742  1.00  0.00     0.007 A 
HETATM   37  C   UNL     1      42.185  36.224  65.425  1.00  0.00     0.018 A 
ENDBRANCH  29  31
ENDBRANCH  28  29
ENDBRANCH   1  28
TORSDOF 5
ENDMDL
MODEL 7
REMARK VINA RESULT:      -8.4     10.958     12.569
REMARK  5 active torsions:
REMARK  status: ('A' for Active; 'I' for Inactive)
REMARK    1  A    between atoms: C_5  and  C_6 
REMARK    2  A    between atoms: C_6  and  O_7 
REMARK    3  A    between atoms: O_7  and  C_8 
REMARK    4  A    between atoms: C_12  and  C_13 
REMARK    5  A    between atoms: C_30  and  O_31 
ROOT
HETATM    1  C   UNL     1      29.982  50.219  40.303  1.00  0.00     0.130 A 
HETATM    2  C   UNL     1      29.520  49.146  39.532  1.00  0.00     0.048 A 
HETATM    3 BR   UNL     1      30.633  47.679  39.062  1.00  0.00    -0.048 Br
HETATM    4  C   UNL     1      28.218  49.153  39.027  1.00  0.00     0.033 A 
HETATM    5  C   UNL     1      27.362  50.247  39.235  1.00  0.00    -0.012 A 
HETATM    6  C   UNL     1      27.844  51.308  40.027  1.00  0.00     0.050 A 
HETATM    7  C   UNL     1      29.151  51.318  40.536  1.00  0.00     0.104 A 
ENDROOT
BRANCH   5   8
HETATM    8  C   UNL     1      25.985  50.368  38.583  1.00  0.00     0.219 C 
HETATM    9  N   UNL     1      25.976  49.713  37.293  1.00  0.00    -0.332 N 
HETATM   10  C   UNL     1      25.865  48.352  37.169  1.00  0.00     0.256 C 
HETATM   11  H   UNL     1      26.450  50.165  36.526  1.00  0.00     0.165 HD
HETATM   12  O   UNL     1      26.227  47.756  36.160  1.00  0.00    -0.267 OA
HETATM   13  C   UNL     1      25.271  47.678  38.312  1.00  0.00     0.073 A 
HETATM   14  C   UNL     1      24.768  48.445  39.339  1.00  0.00     0.088 A 
HETATM   15  C   UNL     1      25.149  46.281  38.586  1.00  0.00    -0.023 A 
HETATM   16  S   UNL     1      24.053  47.511  40.566  1.00  0.00    -0.074 SA
HETATM   17  N   UNL     1      24.904  49.792  39.373  1.00  0.00    -0.358 N 
HETATM   18  C   UNL     1      24.520  46.063  39.799  1.00  0.00     0.018 A 
HETATM   19  C   UNL     1      24.306  44.730  40.427  1.00  0.00     0.281 C 
HETATM   20  N   UNL     1      24.553  43.594  39.439  1.00  0.00    -0.070 N 
HETATM   21  C   UNL     1      25.779  43.856  38.565  1.00  0.00     0.239 C 
HETATM   22  H   UNL     1      24.773  42.768  40.009  1.00  0.00     0.279 HD
HETATM   23  C   UNL     1      23.326  43.242  38.650  1.00  0.00     0.270 C 
HETATM   24  C   UNL     1      25.639  45.146  37.739  1.00  0.00     0.068 C 
HETATM   25  H   UNL     1      24.698  50.295  40.232  1.00  0.00     0.162 HD
ENDBRANCH   5   8
BRANCH   7  26
HETATM   26  O   UNL     1      29.465  52.438  41.253  1.00  0.00    -0.353 OA
HETATM   27  C   UNL     1      30.057  53.501  40.513  1.00  0.00     0.210 C 
ENDBRANCH   7  26
BRANCH   1  28
HETATM   28  O   UNL     1      31.295  50.205  40.780  1.00  0.00    -0.271 OA
BRANCH  28  29
HETATM   29  C   UNL     1      31.378  49.849  42.114  1.00  0.00     0.298 C 
HETATM   30  O   UNL     1      30.689  49.031  42.702  1.00  0.00    -0.259 OA
BRANCH  29  31
HETATM   31  C   UNL     1      32.547  50.541  42.719  1.00  0.00     0.040 A 
HETATM   32  C   UNL     1      33.784  50.430  42.073  1.00  0.00     0.018 A 
HETATM   33  C   UNL     1      34.897  51.118  42.561  1.00  0.00     0.007 A 
HETATM   34  C   UNL     1      34.788  51.926  43.699  1.00  0.00    -0.062 A 
HETATM   35  C   UNL     1      35.984  52.657  44.234  1.00  0.00     0.048 C 
HETATM   36  C   UNL     1      33.559  52.008  44.364  1.00  0.00     0.007 A 
HETATM   37  C   UNL     1      32.442  51.323  43.877  1.00  0.00     0.018 A 
ENDBRANCH  29  31
ENDBRANCH  28  29
ENDBRANCH   1  28
TORSDOF 5
ENDMDL
MODEL 8
REMARK VINA RESULT:      -8.4      3.897      6.127
REMARK  5 active torsions:
REMARK  status: ('A' for Active; 'I' for Inactive)
REMARK    1  A    between atoms: C_5  and  C_6 
REMARK    2  A    between atoms: C_6  and  O_7 
REMARK    3  A    between atoms: O_7  and  C_8 
REMARK    4  A    between atoms: C_12  and  C_13 
REMARK    5  A    between atoms: C_30  and  O_31 
ROOT
HETATM    1  C   UNL     1      25.745  44.333  50.237  1.00  0.00     0.130 A 
HETATM    2  C   UNL     1      24.890  45.307  49.706  1.00  0.00     0.048 A 
HETATM    3 BR   UNL     1      25.027  47.144  50.174  1.00  0.00    -0.048 Br
HETATM    4  C   UNL     1      23.855  44.938  48.844  1.00  0.00     0.033 A 
HETATM    5  C   UNL     1      23.614  43.590  48.529  1.00  0.00    -0.012 A 
HETATM    6  C   UNL     1      24.496  42.631  49.064  1.00  0.00     0.050 A 
HETATM    7  C   UNL     1      25.536  42.985  49.936  1.00  0.00     0.104 A 
ENDROOT
BRANCH   5   8
HETATM    8  C   UNL     1      22.410  43.125  47.712  1.00  0.00     0.219 C 
HETATM    9  N   UNL     1      21.917  44.199  46.878  1.00  0.00    -0.332 N 
HETATM   10  C   UNL     1      22.526  44.542  45.699  1.00  0.00     0.256 C 
HETATM   11  H   UNL     1      21.409  44.951  47.319  1.00  0.00     0.165 HD
HETATM   12  O   UNL     1      22.378  45.644  45.182  1.00  0.00    -0.267 OA
HETATM   13  C   UNL     1      23.343  43.496  45.103  1.00  0.00     0.073 A 
HETATM   14  C   UNL     1      23.337  42.248  45.682  1.00  0.00     0.088 A 
HETATM   15  C   UNL     1      24.228  43.556  43.983  1.00  0.00    -0.023 A 
HETATM   16  S   UNL     1      24.288  41.125  44.832  1.00  0.00    -0.074 SA
HETATM   17  N   UNL     1      22.688  41.989  46.843  1.00  0.00    -0.358 N 
HETATM   18  C   UNL     1      24.821  42.328  43.749  1.00  0.00     0.018 A 
HETATM   19  C   UNL     1      25.856  42.058  42.713  1.00  0.00     0.281 C 
HETATM   20  N   UNL     1      25.958  43.200  41.707  1.00  0.00    -0.070 N 
HETATM   21  C   UNL     1      25.872  44.566  42.385  1.00  0.00     0.239 C 
HETATM   22  H   UNL     1      26.901  43.135  41.303  1.00  0.00     0.279 HD
HETATM   23  C   UNL     1      25.001  43.044  40.562  1.00  0.00     0.270 C 
HETATM   24  C   UNL     1      24.548  44.756  43.144  1.00  0.00     0.068 C 
HETATM   25  H   UNL     1      22.871  41.118  47.335  1.00  0.00     0.162 HD
ENDBRANCH   5   8
BRANCH   7  26
HETATM   26  O   UNL     1      26.274  41.927  50.388  1.00  0.00    -0.353 OA
HETATM   27  C   UNL     1      27.389  41.559  49.583  1.00  0.00     0.210 C 
ENDBRANCH   7  26
BRANCH   1  28
HETATM   28  O   UNL     1      26.759  44.718  51.116  1.00  0.00    -0.271 OA
BRANCH  28  29
HETATM   29  C   UNL     1      26.400  44.578  52.445  1.00  0.00     0.298 C 
HETATM   30  O   UNL     1      25.271  44.601  52.909  1.00  0.00    -0.259 OA
BRANCH  29  31
HETATM   31  C   UNL     1      27.619  44.263  53.237  1.00  0.00     0.040 A 
HETATM   32  C   UNL     1      27.943  45.106  54.307  1.00  0.00     0.018 A 
HETATM   33  C   UNL     1      29.037  44.813  55.126  1.00  0.00     0.007 A 
HETATM   34  C   UNL     1      29.817  43.676  54.888  1.00  0.00    -0.062 A 
HETATM   35  C   UNL     1      31.000  43.365  55.757  1.00  0.00     0.048 C 
HETATM   36  C   UNL     1      29.511  42.854  53.796  1.00  0.00     0.007 A 
HETATM   37  C   UNL     1      28.417  43.141  52.976  1.00  0.00     0.018 A 
ENDBRANCH  29  31
ENDBRANCH  28  29
ENDBRANCH   1  28
TORSDOF 5
ENDMDL
MODEL 9
REMARK VINA RESULT:      -8.2      5.427      8.658
REMARK  5 active torsions:
REMARK  status: ('A' for Active; 'I' for Inactive)
REMARK    1  A    between atoms: C_5  and  C_6 
REMARK    2  A    between atoms: C_6  and  O_7 
REMARK    3  A    between atoms: O_7  and  C_8 
REMARK    4  A    between atoms: C_12  and  C_13 
REMARK    5  A    between atoms: C_30  and  O_31 
ROOT
HETATM    1  C   UNL     1      26.033  42.008  50.856  1.00  0.00     0.130 A 
HETATM    2  C   UNL     1      26.610  40.997  50.079  1.00  0.00     0.048 A 
HETATM    3 BR   UNL     1      28.278  40.199  50.524  1.00  0.00    -0.048 Br
HETATM    4  C   UNL     1      25.993  40.579  48.898  1.00  0.00     0.033 A 
HETATM    5  C   UNL     1      24.814  41.189  48.437  1.00  0.00    -0.012 A 
HETATM    6  C   UNL     1      24.245  42.194  49.244  1.00  0.00     0.050 A 
HETATM    7  C   UNL     1      24.856  42.628  50.429  1.00  0.00     0.104 A 
ENDROOT
BRANCH   5   8
HETATM    8  C   UNL     1      24.182  40.871  47.082  1.00  0.00     0.219 C 
HETATM    9  N   UNL     1      25.083  41.224  46.007  1.00  0.00    -0.332 N 
HETATM   10  C   UNL     1      26.139  40.425  45.651  1.00  0.00     0.256 C 
HETATM   11  H   UNL     1      25.209  42.201  45.791  1.00  0.00     0.165 HD
HETATM   12  O   UNL     1      27.107  40.856  45.034  1.00  0.00    -0.267 OA
HETATM   13  C   UNL     1      26.014  39.031  46.044  1.00  0.00     0.073 A 
HETATM   14  C   UNL     1      24.831  38.611  46.610  1.00  0.00     0.088 A 
HETATM   15  C   UNL     1      26.973  37.974  45.978  1.00  0.00    -0.023 A 
HETATM   16  S   UNL     1      24.822  36.946  46.953  1.00  0.00    -0.074 SA
HETATM   17  N   UNL     1      23.826  39.468  46.912  1.00  0.00    -0.358 N 
HETATM   18  C   UNL     1      26.447  36.790  46.466  1.00  0.00     0.018 A 
HETATM   19  C   UNL     1      27.200  35.515  46.618  1.00  0.00     0.281 C 
HETATM   20  N   UNL     1      28.528  35.550  45.867  1.00  0.00    -0.070 N 
HETATM   21  C   UNL     1      29.234  36.896  46.022  1.00  0.00     0.239 C 
HETATM   22  H   UNL     1      29.127  34.852  46.323  1.00  0.00     0.279 HD
HETATM   23  C   UNL     1      28.391  35.113  44.438  1.00  0.00     0.270 C 
HETATM   24  C   UNL     1      28.387  38.063  45.488  1.00  0.00     0.068 C 
HETATM   25  H   UNL     1      23.061  39.154  47.502  1.00  0.00     0.162 HD
ENDBRANCH   5   8
BRANCH   7  26
HETATM   26  O   UNL     1      24.187  43.633  51.070  1.00  0.00    -0.353 OA
HETATM   27  C   UNL     1      23.300  44.399  50.262  1.00  0.00     0.210 C 
ENDBRANCH   7  26
BRANCH   1  28
HETATM   28  O   UNL     1      26.677  42.429  52.021  1.00  0.00    -0.271 OA
BRANCH  28  29
HETATM   29  C   UNL     1      27.596  43.437  51.792  1.00  0.00     0.298 C 
HETATM   30  O   UNL     1      27.644  44.185  50.829  1.00  0.00    -0.259 OA
BRANCH  29  31
HETATM   31  C   UNL     1      28.472  43.564  52.987  1.00  0.00     0.040 A 
HETATM   32  C   UNL     1      29.608  42.749  53.060  1.00  0.00     0.018 A 
HETATM   33  C   UNL     1      30.501  42.879  54.126  1.00  0.00     0.007 A 
HETATM   34  C   UNL     1      30.272  43.827  55.131  1.00  0.00    -0.062 A 
HETATM   35  C   UNL     1      31.222  43.962  56.284  1.00  0.00     0.048 C 
HETATM   36  C   UNL     1      29.117  44.617  55.074  1.00  0.00     0.007 A 
HETATM   37  C   UNL     1      28.223  44.491  54.008  1.00  0.00     0.018 A 
ENDBRANCH  29  31
ENDBRANCH  28  29
ENDBRANCH   1  28
TORSDOF 5
ENDMDL
MODEL 10
REMARK VINA RESULT:      -8.2     12.017     13.850
REMARK  5 active torsions:
REMARK  status: ('A' for Active; 'I' for Inactive)
REMARK    1  A    between atoms: C_5  and  C_6 
REMARK    2  A    between atoms: C_6  and  O_7 
REMARK    3  A    between atoms: O_7  and  C_8 
REMARK    4  A    between atoms: C_12  and  C_13 
REMARK    5  A    between atoms: C_30  and  O_31 
ROOT
HETATM    1  C   UNL     1      32.063  50.802  40.948  1.00  0.00     0.130 A 
HETATM    2  C   UNL     1      31.401  49.594  41.195  1.00  0.00     0.048 A 
HETATM    3 BR   UNL     1      32.312  47.926  41.238  1.00  0.00    -0.048 Br
HETATM    4  C   UNL     1      30.014  49.573  41.362  1.00  0.00     0.033 A 
HETATM    5  C   UNL     1      29.248  50.745  41.238  1.00  0.00    -0.012 A 
HETATM    6  C   UNL     1      29.939  51.951  41.005  1.00  0.00     0.050 A 
HETATM    7  C   UNL     1      31.330  51.986  40.829  1.00  0.00     0.104 A 
ENDROOT
BRANCH   5   8
HETATM    8  C   UNL     1      27.720  50.752  41.266  1.00  0.00     0.219 C 
HETATM    9  N   UNL     1      27.192  51.043  39.951  1.00  0.00    -0.332 N 
HETATM   10  C   UNL     1      27.124  50.091  38.967  1.00  0.00     0.256 C 
HETATM   11  H   UNL     1      27.254  51.991  39.611  1.00  0.00     0.165 HD
HETATM   12  O   UNL     1      27.047  50.383  37.778  1.00  0.00    -0.267 OA
HETATM   13  C   UNL     1      27.132  48.717  39.441  1.00  0.00     0.073 A 
HETATM   14  C   UNL     1      27.080  48.489  40.797  1.00  0.00     0.088 A 
HETATM   15  C   UNL     1      27.231  47.497  38.703  1.00  0.00    -0.023 A 
HETATM   16  S   UNL     1      27.033  46.835  41.184  1.00  0.00    -0.074 SA
HETATM   17  N   UNL     1      27.131  49.494  41.705  1.00  0.00    -0.358 N 
HETATM   18  C   UNL     1      27.209  46.400  39.546  1.00  0.00     0.018 A 
HETATM   19  C   UNL     1      27.376  44.984  39.117  1.00  0.00     0.281 C 
HETATM   20  N   UNL     1      27.239  44.833  37.605  1.00  0.00    -0.070 N 
HETATM   21  C   UNL     1      27.941  45.963  36.854  1.00  0.00     0.239 C 
HETATM   22  H   UNL     1      27.737  43.968  37.362  1.00  0.00     0.279 HD
HETATM   23  C   UNL     1      25.816  44.629  37.174  1.00  0.00     0.270 C 
HETATM   24  C   UNL     1      27.373  47.345  37.219  1.00  0.00     0.068 C 
HETATM   25  H   UNL     1      27.290  49.276  42.685  1.00  0.00     0.162 HD
ENDBRANCH   5   8
BRANCH   7  26
HETATM   26  O   UNL     1      31.832  53.232  40.576  1.00  0.00    -0.353 OA
HETATM   27  C   UNL     1      30.920  54.312  40.741  1.00  0.00     0.210 C 
ENDBRANCH   7  26
BRANCH   1  28
HETATM   28  O   UNL     1      33.447  50.800  40.761  1.00  0.00    -0.271 OA
BRANCH  28  29
HETATM   29  C   UNL     1      34.145  51.116  41.912  1.00  0.00     0.298 C 
HETATM   30  O   UNL     1      33.702  51.186  43.047  1.00  0.00    -0.259 OA
BRANCH  29  31
HETATM   31  C   UNL     1      35.588  51.244  41.574  1.00  0.00     0.040 A 
HETATM   32  C   UNL     1      36.522  50.683  42.454  1.00  0.00     0.018 A 
HETATM   33  C   UNL     1      37.884  50.714  42.146  1.00  0.00     0.007 A 
HETATM   34  C   UNL     1      38.330  51.303  40.957  1.00  0.00    -0.062 A 
HETATM   35  C   UNL     1      39.793  51.349  40.630  1.00  0.00     0.048 C 
HETATM   36  C   UNL     1      37.397  51.894  40.096  1.00  0.00     0.007 A 
HETATM   37  C   UNL     1      36.033  51.863  40.398  1.00  0.00     0.018 A 
ENDBRANCH  29  31
ENDBRANCH  28  29
ENDBRANCH   1  28
TORSDOF 5
ENDMDL
