MODEL 1
REMARK VINA RESULT:      -8.1      0.000      0.000
REMARK  6 active torsions:
REMARK  status: ('A' for Active; 'I' for Inactive)
REMARK    1  A    between atoms: C_2  and  O_3 
REMARK    2  A    between atoms: O_3  and  C_4 
REMARK    3  A    between atoms: C_4  and  C_6 
REMARK    4  A    between atoms: C_8  and  N_9 
REMARK    5  A    between atoms: N_9  and  C_10 
REMARK    6  A    between atoms: C_18  and  C_19 
ROOT
HETATM    1  C   UNL     1      24.038  45.799  49.990  1.00  0.00     0.115 A 
HETATM    2  S   UNL     1      23.089  46.777  48.942  1.00  0.00    -0.043 SA
HETATM    3  C   UNL     1      23.949  48.183  49.452  1.00  0.00     0.172 A 
HETATM    4  N   UNL     1      24.854  47.950  50.372  1.00  0.00    -0.220 NA
HETATM    5  C   UNL     1      24.909  46.601  50.698  1.00  0.00     0.118 A 
ENDROOT
BRANCH   3   6
HETATM    6  N   UNL     1      23.658  49.369  48.868  1.00  0.00    -0.335 N 
HETATM    7  H   UNL     1      24.430  49.869  48.446  1.00  0.00     0.168 HD
BRANCH   6   8
HETATM    8  C   UNL     1      22.432  50.059  48.832  1.00  0.00     0.034 A 
HETATM    9  C   UNL     1      21.932  50.594  50.032  1.00  0.00     0.031 A 
HETATM   10  C   UNL     1      20.698  51.252  50.080  1.00  0.00     0.021 A 
HETATM   11  C   UNL     1      19.945  51.385  48.918  1.00  0.00     0.011 A 
HETATM   12 BR   UNL     1      18.275  52.267  48.973  1.00  0.00    -0.051 Br
HETATM   13  C   UNL     1      20.416  50.867  47.717  1.00  0.00     0.021 A 
HETATM   14  C   UNL     1      21.649  50.206  47.680  1.00  0.00     0.031 A 
ENDBRANCH   6   8
ENDBRANCH   3   6
BRANCH   1  15
HETATM   15  C   UNL     1      23.905  44.367  49.956  1.00  0.00     0.302 C 
HETATM   16  O   UNL     1      23.222  43.692  50.715  1.00  0.00    -0.259 OA
BRANCH  15  17
HETATM   17  O   UNL     1      24.722  43.848  48.989  1.00  0.00    -0.317 OA
BRANCH  17  18
HETATM   18  C   UNL     1      25.147  42.493  49.191  1.00  0.00     0.174 C 
HETATM   19  C   UNL     1      26.663  42.414  49.165  1.00  0.00     0.034 C 
ENDBRANCH  17  18
ENDBRANCH  15  17
ENDBRANCH   1  15
BRANCH   5  20
HETATM   20  C   UNL     1      25.846  46.112  51.771  1.00  0.00     0.129 A 
HETATM   21  N   UNL     1      26.639  45.076  51.604  1.00  0.00    -0.238 NA
HETATM   22  C   UNL     1      27.392  44.865  52.747  1.00  0.00     0.075 A 
HETATM   23  C   UNL     1      28.369  43.864  52.921  1.00  0.00     0.033 A 
HETATM   24  C   UNL     1      27.133  45.739  53.804  1.00  0.00     0.035 A 
HETATM   25  C   UNL     1      29.056  43.766  54.137  1.00  0.00     0.002 A 
HETATM   26  C   UNL     1      28.780  44.649  55.176  1.00  0.00     0.002 A 
HETATM   27  C   UNL     1      27.815  45.649  55.028  1.00  0.00     0.021 A 
HETATM   28  S   UNL     1      25.910  46.847  53.323  1.00  0.00    -0.066 SA
ENDBRANCH   5  20
TORSDOF 6
ENDMDL
MODEL 2
REMARK VINA RESULT:      -8.0      3.655      8.143
REMARK  6 active torsions:
REMARK  status: ('A' for Active; 'I' for Inactive)
REMARK    1  A    between atoms: C_2  and  O_3 
REMARK    2  A    between atoms: O_3  and  C_4 
REMARK    3  A    between atoms: C_4  and  C_6 
REMARK    4  A    between atoms: C_8  and  N_9 
REMARK    5  A    between atoms: N_9  and  C_10 
REMARK    6  A    between atoms: C_18  and  C_19 
ROOT
HETATM    1  C   UNL     1      25.130  43.988  50.586  1.00  0.00     0.115 A 
HETATM    2  S   UNL     1      26.104  42.790  51.342  1.00  0.00    -0.043 SA
HETATM    3  C   UNL     1      27.256  43.991  51.797  1.00  0.00     0.172 A 
HETATM    4  N   UNL     1      26.961  45.198  51.377  1.00  0.00    -0.220 NA
HETATM    5  C   UNL     1      25.761  45.212  50.677  1.00  0.00     0.118 A 
ENDROOT
BRANCH   3   6
HETATM    6  N   UNL     1      28.320  43.619  52.544  1.00  0.00    -0.335 N 
HETATM    7  H   UNL     1      28.833  42.804  52.231  1.00  0.00     0.168 HD
BRANCH   6   8
HETATM    8  C   UNL     1      28.778  44.158  53.761  1.00  0.00     0.034 A 
HETATM    9  C   UNL     1      29.909  43.580  54.364  1.00  0.00     0.031 A 
HETATM   10  C   UNL     1      30.392  44.036  55.596  1.00  0.00     0.021 A 
HETATM   11  C   UNL     1      29.745  45.084  56.242  1.00  0.00     0.011 A 
HETATM   12 BR   UNL     1      30.386  45.702  57.908  1.00  0.00    -0.051 Br
HETATM   13  C   UNL     1      28.626  45.675  55.668  1.00  0.00     0.021 A 
HETATM   14  C   UNL     1      28.147  45.210  54.437  1.00  0.00     0.031 A 
ENDBRANCH   6   8
ENDBRANCH   3   6
BRANCH   1  15
HETATM   15  C   UNL     1      23.834  43.643  50.067  1.00  0.00     0.302 C 
HETATM   16  O   UNL     1      22.792  43.602  50.707  1.00  0.00    -0.259 OA
BRANCH  15  17
HETATM   17  O   UNL     1      23.943  43.287  48.750  1.00  0.00    -0.317 OA
BRANCH  17  18
HETATM   18  C   UNL     1      22.722  43.300  47.996  1.00  0.00     0.174 C 
HETATM   19  C   UNL     1      22.596  44.607  47.233  1.00  0.00     0.034 C 
ENDBRANCH  17  18
ENDBRANCH  15  17
ENDBRANCH   1  15
BRANCH   5  20
HETATM   20  C   UNL     1      25.251  46.488  50.060  1.00  0.00     0.129 A 
HETATM   21  N   UNL     1      23.981  46.687  49.786  1.00  0.00    -0.238 NA
HETATM   22  C   UNL     1      23.804  47.946  49.239  1.00  0.00     0.075 A 
HETATM   23  C   UNL     1      22.573  48.515  48.850  1.00  0.00     0.033 A 
HETATM   24  C   UNL     1      24.970  48.694  49.068  1.00  0.00     0.035 A 
HETATM   25  C   UNL     1      22.543  49.805  48.308  1.00  0.00     0.002 A 
HETATM   26  C   UNL     1      23.719  50.531  48.147  1.00  0.00     0.002 A 
HETATM   27  C   UNL     1      24.952  49.988  48.523  1.00  0.00     0.021 A 
HETATM   28  S   UNL     1      26.310  47.768  49.619  1.00  0.00    -0.066 SA
ENDBRANCH   5  20
TORSDOF 6
ENDMDL
MODEL 3
REMARK VINA RESULT:      -7.9      5.748      8.005
REMARK  6 active torsions:
REMARK  status: ('A' for Active; 'I' for Inactive)
REMARK    1  A    between atoms: C_2  and  O_3 
REMARK    2  A    between atoms: O_3  and  C_4 
REMARK    3  A    between atoms: C_4  and  C_6 
REMARK    4  A    between atoms: C_8  and  N_9 
REMARK    5  A    between atoms: N_9  and  C_10 
REMARK    6  A    between atoms: C_18  and  C_19 
ROOT
HETATM    1  C   UNL     1      26.101  44.283  52.197  1.00  0.00     0.115 A 
HETATM    2  S   UNL     1      25.415  44.038  50.640  1.00  0.00    -0.043 SA
HETATM    3  C   UNL     1      26.822  43.173  50.140  1.00  0.00     0.172 A 
HETATM    4  N   UNL     1      27.759  43.107  51.055  1.00  0.00    -0.220 NA
HETATM    5  C   UNL     1      27.370  43.744  52.227  1.00  0.00     0.118 A 
ENDROOT
BRANCH   3   6
HETATM    6  N   UNL     1      26.842  42.626  48.903  1.00  0.00    -0.335 N 
HETATM    7  H   UNL     1      26.637  43.246  48.129  1.00  0.00     0.168 HD
BRANCH   6   8
HETATM    8  C   UNL     1      27.028  41.281  48.534  1.00  0.00     0.034 A 
HETATM    9  C   UNL     1      27.728  41.004  47.347  1.00  0.00     0.031 A 
HETATM   10  C   UNL     1      27.910  39.692  46.896  1.00  0.00     0.021 A 
HETATM   11  C   UNL     1      27.391  38.633  47.633  1.00  0.00     0.011 A 
HETATM   12 BR   UNL     1      27.627  36.859  47.029  1.00  0.00    -0.051 Br
HETATM   13  C   UNL     1      26.696  38.878  48.812  1.00  0.00     0.021 A 
HETATM   14  C   UNL     1      26.515  40.194  49.254  1.00  0.00     0.031 A 
ENDBRANCH   6   8
ENDBRANCH   3   6
BRANCH   1  15
HETATM   15  C   UNL     1      25.319  44.888  53.242  1.00  0.00     0.302 C 
HETATM   16  O   UNL     1      24.914  44.326  54.251  1.00  0.00    -0.259 OA
BRANCH  15  17
HETATM   17  O   UNL     1      25.021  46.181  52.910  1.00  0.00    -0.317 OA
BRANCH  17  18
HETATM   18  C   UNL     1      26.101  47.119  53.024  1.00  0.00     0.174 C 
HETATM   19  C   UNL     1      26.152  47.686  54.431  1.00  0.00     0.034 C 
ENDBRANCH  17  18
ENDBRANCH  15  17
ENDBRANCH   1  15
BRANCH   5  20
HETATM   20  C   UNL     1      28.314  43.834  53.397  1.00  0.00     0.129 A 
HETATM   21  N   UNL     1      28.372  44.886  54.184  1.00  0.00    -0.238 NA
HETATM   22  C   UNL     1      29.317  44.686  55.176  1.00  0.00     0.075 A 
HETATM   23  C   UNL     1      29.630  45.586  56.215  1.00  0.00     0.033 A 
HETATM   24  C   UNL     1      30.004  43.473  55.112  1.00  0.00     0.035 A 
HETATM   25  C   UNL     1      30.613  45.251  57.153  1.00  0.00     0.002 A 
HETATM   26  C   UNL     1      31.285  44.036  57.069  1.00  0.00     0.002 A 
HETATM   27  C   UNL     1      30.993  43.127  56.047  1.00  0.00     0.021 A 
HETATM   28  S   UNL     1      29.429  42.578  53.762  1.00  0.00    -0.066 SA
ENDBRANCH   5  20
TORSDOF 6
ENDMDL
MODEL 4
REMARK VINA RESULT:      -7.8      5.677      8.918
REMARK  6 active torsions:
REMARK  status: ('A' for Active; 'I' for Inactive)
REMARK    1  A    between atoms: C_2  and  O_3 
REMARK    2  A    between atoms: O_3  and  C_4 
REMARK    3  A    between atoms: C_4  and  C_6 
REMARK    4  A    between atoms: C_8  and  N_9 
REMARK    5  A    between atoms: N_9  and  C_10 
REMARK    6  A    between atoms: C_18  and  C_19 
ROOT
HETATM    1  C   UNL     1      27.107  43.125  50.695  1.00  0.00     0.115 A 
HETATM    2  S   UNL     1      26.586  41.942  49.562  1.00  0.00    -0.043 SA
HETATM    3  C   UNL     1      27.019  40.681  50.657  1.00  0.00     0.172 A 
HETATM    4  N   UNL     1      27.556  41.108  51.775  1.00  0.00    -0.220 NA
HETATM    5  C   UNL     1      27.625  42.495  51.808  1.00  0.00     0.118 A 
ENDROOT
BRANCH   3   6
HETATM    6  N   UNL     1      26.757  39.401  50.307  1.00  0.00    -0.335 N 
HETATM    7  H   UNL     1      26.199  38.859  50.955  1.00  0.00     0.168 HD
BRANCH   6   8
HETATM    8  C   UNL     1      27.224  38.675  49.196  1.00  0.00     0.034 A 
HETATM    9  C   UNL     1      28.605  38.434  49.087  1.00  0.00     0.031 A 
HETATM   10  C   UNL     1      29.143  37.760  47.985  1.00  0.00     0.021 A 
HETATM   11  C   UNL     1      28.300  37.314  46.973  1.00  0.00     0.011 A 
HETATM   12 BR   UNL     1      29.019  36.408  45.479  1.00  0.00    -0.051 Br
HETATM   13  C   UNL     1      26.931  37.537  47.055  1.00  0.00     0.021 A 
HETATM   14  C   UNL     1      26.401  38.216  48.159  1.00  0.00     0.031 A 
ENDBRANCH   6   8
ENDBRANCH   3   6
BRANCH   1  15
HETATM   15  C   UNL     1      26.885  44.523  50.433  1.00  0.00     0.302 C 
HETATM   16  O   UNL     1      27.643  45.267  49.825  1.00  0.00    -0.259 OA
BRANCH  15  17
HETATM   17  O   UNL     1      25.724  44.928  51.031  1.00  0.00    -0.317 OA
BRANCH  17  18
HETATM   18  C   UNL     1      25.480  46.342  51.029  1.00  0.00     0.174 C 
HETATM   19  C   UNL     1      25.816  46.930  52.388  1.00  0.00     0.034 C 
ENDBRANCH  17  18
ENDBRANCH  15  17
ENDBRANCH   1  15
BRANCH   5  20
HETATM   20  C   UNL     1      28.253  43.201  52.980  1.00  0.00     0.129 A 
HETATM   21  N   UNL     1      27.660  44.188  53.616  1.00  0.00    -0.238 NA
HETATM   22  C   UNL     1      28.462  44.635  54.652  1.00  0.00     0.075 A 
HETATM   23  C   UNL     1      28.140  45.660  55.565  1.00  0.00     0.033 A 
HETATM   24  C   UNL     1      29.696  43.993  54.775  1.00  0.00     0.035 A 
HETATM   25  C   UNL     1      29.052  46.010  56.568  1.00  0.00     0.002 A 
HETATM   26  C   UNL     1      30.275  45.356  56.670  1.00  0.00     0.002 A 
HETATM   27  C   UNL     1      30.618  44.338  55.775  1.00  0.00     0.021 A 
HETATM   28  S   UNL     1      29.825  42.799  53.545  1.00  0.00    -0.066 SA
ENDBRANCH   5  20
TORSDOF 6
ENDMDL
MODEL 5
REMARK VINA RESULT:      -7.8      4.034      8.315
REMARK  6 active torsions:
REMARK  status: ('A' for Active; 'I' for Inactive)
REMARK    1  A    between atoms: C_2  and  O_3 
REMARK    2  A    between atoms: O_3  and  C_4 
REMARK    3  A    between atoms: C_4  and  C_6 
REMARK    4  A    between atoms: C_8  and  N_9 
REMARK    5  A    between atoms: N_9  and  C_10 
REMARK    6  A    between atoms: C_18  and  C_19 
ROOT
HETATM    1  C   UNL     1      26.891  43.241  50.296  1.00  0.00     0.115 A 
HETATM    2  S   UNL     1      27.781  42.097  51.218  1.00  0.00    -0.043 SA
HETATM    3  C   UNL     1      28.072  43.282  52.437  1.00  0.00     0.172 A 
HETATM    4  N   UNL     1      27.578  44.465  52.158  1.00  0.00    -0.220 NA
HETATM    5  C   UNL     1      26.913  44.462  50.939  1.00  0.00     0.118 A 
ENDROOT
BRANCH   3   6
HETATM    6  N   UNL     1      28.737  42.912  53.556  1.00  0.00    -0.335 N 
HETATM    7  H   UNL     1      28.868  41.919  53.698  1.00  0.00     0.168 HD
BRANCH   6   8
HETATM    8  C   UNL     1      29.210  43.716  54.609  1.00  0.00     0.034 A 
HETATM    9  C   UNL     1      30.397  43.336  55.259  1.00  0.00     0.031 A 
HETATM   10  C   UNL     1      30.900  44.062  56.344  1.00  0.00     0.021 A 
HETATM   11  C   UNL     1      30.218  45.187  56.794  1.00  0.00     0.011 A 
HETATM   12 BR   UNL     1      30.886  46.170  58.262  1.00  0.00    -0.051 Br
HETATM   13  C   UNL     1      29.042  45.587  56.169  1.00  0.00     0.021 A 
HETATM   14  C   UNL     1      28.544  44.852  55.087  1.00  0.00     0.031 A 
ENDBRANCH   6   8
ENDBRANCH   3   6
BRANCH   1  15
HETATM   15  C   UNL     1      26.198  42.827  49.105  1.00  0.00     0.302 C 
HETATM   16  O   UNL     1      25.018  43.033  48.853  1.00  0.00    -0.259 OA
BRANCH  15  17
HETATM   17  O   UNL     1      27.037  42.092  48.313  1.00  0.00    -0.317 OA
BRANCH  17  18
HETATM   18  C   UNL     1      26.424  41.030  47.568  1.00  0.00     0.174 C 
HETATM   19  C   UNL     1      26.359  39.771  48.415  1.00  0.00     0.034 C 
ENDBRANCH  17  18
ENDBRANCH  15  17
ENDBRANCH   1  15
BRANCH   5  20
HETATM   20  C   UNL     1      26.308  45.730  50.395  1.00  0.00     0.129 A 
HETATM   21  N   UNL     1      27.031  46.691  49.864  1.00  0.00    -0.238 NA
HETATM   22  C   UNL     1      26.211  47.724  49.442  1.00  0.00     0.075 A 
HETATM   23  C   UNL     1      26.634  48.906  48.799  1.00  0.00     0.033 A 
HETATM   24  C   UNL     1      24.850  47.548  49.693  1.00  0.00     0.035 A 
HETATM   25  C   UNL     1      25.690  49.870  48.427  1.00  0.00     0.002 A 
HETATM   26  C   UNL     1      24.338  49.673  48.688  1.00  0.00     0.002 A 
HETATM   27  C   UNL     1      23.895  48.510  49.325  1.00  0.00     0.021 A 
HETATM   28  S   UNL     1      24.619  46.037  50.478  1.00  0.00    -0.066 SA
ENDBRANCH   5  20
TORSDOF 6
ENDMDL
MODEL 6
REMARK VINA RESULT:      -7.7      5.605      8.704
REMARK  6 active torsions:
REMARK  status: ('A' for Active; 'I' for Inactive)
REMARK    1  A    between atoms: C_2  and  O_3 
REMARK    2  A    between atoms: O_3  and  C_4 
REMARK    3  A    between atoms: C_4  and  C_6 
REMARK    4  A    between atoms: C_8  and  N_9 
REMARK    5  A    between atoms: N_9  and  C_10 
REMARK    6  A    between atoms: C_18  and  C_19 
ROOT
HETATM    1  C   UNL     1      25.905  42.940  51.232  1.00  0.00     0.115 A 
HETATM    2  S   UNL     1      25.315  41.779  50.111  1.00  0.00    -0.043 SA
HETATM    3  C   UNL     1      26.390  40.591  50.751  1.00  0.00     0.172 A 
HETATM    4  N   UNL     1      27.169  41.039  51.707  1.00  0.00    -0.220 NA
HETATM    5  C   UNL     1      26.914  42.376  51.985  1.00  0.00     0.118 A 
ENDROOT
BRANCH   3   6
HETATM    6  N   UNL     1      26.333  39.332  50.259  1.00  0.00    -0.335 N 
HETATM    7  H   UNL     1      25.744  38.677  50.757  1.00  0.00     0.168 HD
BRANCH   6   8
HETATM    8  C   UNL     1      27.049  38.769  49.187  1.00  0.00     0.034 A 
HETATM    9  C   UNL     1      26.360  38.502  47.991  1.00  0.00     0.031 A 
HETATM   10  C   UNL     1      26.998  37.900  46.900  1.00  0.00     0.021 A 
HETATM   11  C   UNL     1      28.343  37.558  46.994  1.00  0.00     0.011 A 
HETATM   12 BR   UNL     1      29.211  36.740  45.528  1.00  0.00    -0.051 Br
HETATM   13  C   UNL     1      29.049  37.812  48.163  1.00  0.00     0.021 A 
HETATM   14  C   UNL     1      28.402  38.410  49.251  1.00  0.00     0.031 A 
ENDBRANCH   6   8
ENDBRANCH   3   6
BRANCH   1  15
HETATM   15  C   UNL     1      25.282  44.233  51.327  1.00  0.00     0.302 C 
HETATM   16  O   UNL     1      24.307  44.511  52.012  1.00  0.00    -0.259 OA
BRANCH  15  17
HETATM   17  O   UNL     1      25.896  45.107  50.472  1.00  0.00    -0.317 OA
BRANCH  17  18
HETATM   18  C   UNL     1      25.250  46.378  50.307  1.00  0.00     0.174 C 
HETATM   19  C   UNL     1      26.066  47.468  50.979  1.00  0.00     0.034 C 
ENDBRANCH  17  18
ENDBRANCH  15  17
ENDBRANCH   1  15
BRANCH   5  20
HETATM   20  C   UNL     1      27.729  43.110  53.017  1.00  0.00     0.129 A 
HETATM   21  N   UNL     1      28.831  42.616  53.536  1.00  0.00    -0.238 NA
HETATM   22  C   UNL     1      29.371  43.509  54.445  1.00  0.00     0.075 A 
HETATM   23  C   UNL     1      30.565  43.330  55.172  1.00  0.00     0.033 A 
HETATM   24  C   UNL     1      28.640  44.683  54.637  1.00  0.00     0.035 A 
HETATM   25  C   UNL     1      30.993  44.322  56.063  1.00  0.00     0.002 A 
HETATM   26  C   UNL     1      30.247  45.483  56.238  1.00  0.00     0.002 A 
HETATM   27  C   UNL     1      29.059  45.683  55.530  1.00  0.00     0.021 A 
HETATM   28  S   UNL     1      27.243  44.638  53.636  1.00  0.00    -0.066 SA
ENDBRANCH   5  20
TORSDOF 6
ENDMDL
MODEL 7
REMARK VINA RESULT:      -7.6      3.809      4.771
REMARK  6 active torsions:
REMARK  status: ('A' for Active; 'I' for Inactive)
REMARK    1  A    between atoms: C_2  and  O_3 
REMARK    2  A    between atoms: O_3  and  C_4 
REMARK    3  A    between atoms: C_4  and  C_6 
REMARK    4  A    between atoms: C_8  and  N_9 
REMARK    5  A    between atoms: N_9  and  C_10 
REMARK    6  A    between atoms: C_18  and  C_19 
ROOT
HETATM    1  C   UNL     1      25.446  46.133  50.389  1.00  0.00     0.115 A 
HETATM    2  S   UNL     1      23.971  46.189  49.509  1.00  0.00    -0.043 SA
HETATM    3  C   UNL     1      23.534  44.633  50.112  1.00  0.00     0.172 A 
HETATM    4  N   UNL     1      24.443  44.087  50.884  1.00  0.00    -0.220 NA
HETATM    5  C   UNL     1      25.542  44.921  51.043  1.00  0.00     0.118 A 
ENDROOT
BRANCH   3   6
HETATM    6  N   UNL     1      22.324  44.125  49.781  1.00  0.00    -0.335 N 
HETATM    7  H   UNL     1      21.957  43.399  50.383  1.00  0.00     0.168 HD
BRANCH   6   8
HETATM    8  C   UNL     1      21.525  44.405  48.657  1.00  0.00     0.034 A 
HETATM    9  C   UNL     1      21.892  43.845  47.421  1.00  0.00     0.031 A 
HETATM   10  C   UNL     1      21.171  44.118  46.253  1.00  0.00     0.021 A 
HETATM   11  C   UNL     1      20.065  44.960  46.309  1.00  0.00     0.011 A 
HETATM   12 BR   UNL     1      19.089  45.339  44.737  1.00  0.00    -0.051 Br
HETATM   13  C   UNL     1      19.680  45.527  47.518  1.00  0.00     0.021 A 
HETATM   14  C   UNL     1      20.410  45.252  48.681  1.00  0.00     0.031 A 
ENDBRANCH   6   8
ENDBRANCH   3   6
BRANCH   1  15
HETATM   15  C   UNL     1      26.307  47.285  50.429  1.00  0.00     0.302 C 
HETATM   16  O   UNL     1      26.474  48.023  51.390  1.00  0.00    -0.259 OA
BRANCH  15  17
HETATM   17  O   UNL     1      26.867  47.486  49.197  1.00  0.00    -0.317 OA
BRANCH  17  18
HETATM   18  C   UNL     1      27.513  48.753  49.004  1.00  0.00     0.174 C 
HETATM   19  C   UNL     1      26.559  49.728  48.338  1.00  0.00     0.034 C 
ENDBRANCH  17  18
ENDBRANCH  15  17
ENDBRANCH   1  15
BRANCH   5  20
HETATM   20  C   UNL     1      26.731  44.474  51.852  1.00  0.00     0.129 A 
HETATM   21  N   UNL     1      27.026  44.988  53.025  1.00  0.00    -0.238 NA
HETATM   22  C   UNL     1      28.158  44.380  53.539  1.00  0.00     0.075 A 
HETATM   23  C   UNL     1      28.750  44.655  54.789  1.00  0.00     0.033 A 
HETATM   24  C   UNL     1      28.743  43.414  52.720  1.00  0.00     0.035 A 
HETATM   25  C   UNL     1      29.900  43.961  55.182  1.00  0.00     0.002 A 
HETATM   26  C   UNL     1      30.465  43.002  54.348  1.00  0.00     0.002 A 
HETATM   27  C   UNL     1      29.898  42.713  53.103  1.00  0.00     0.021 A 
HETATM   28  S   UNL     1      27.826  43.283  51.272  1.00  0.00    -0.066 SA
ENDBRANCH   5  20
TORSDOF 6
ENDMDL
MODEL 8
REMARK VINA RESULT:      -7.6      4.774      6.775
REMARK  6 active torsions:
REMARK  status: ('A' for Active; 'I' for Inactive)
REMARK    1  A    between atoms: C_2  and  O_3 
REMARK    2  A    between atoms: O_3  and  C_4 
REMARK    3  A    between atoms: C_4  and  C_6 
REMARK    4  A    between atoms: C_8  and  N_9 
REMARK    5  A    between atoms: N_9  and  C_10 
REMARK    6  A    between atoms: C_18  and  C_19 
ROOT
HETATM    1  C   UNL     1      25.505  45.490  51.154  1.00  0.00     0.115 A 
HETATM    2  S   UNL     1      24.261  45.068  50.046  1.00  0.00    -0.043 SA
HETATM    3  C   UNL     1      24.391  43.411  50.506  1.00  0.00     0.172 A 
HETATM    4  N   UNL     1      25.327  43.177  51.394  1.00  0.00    -0.220 NA
HETATM    5  C   UNL     1      25.979  44.347  51.765  1.00  0.00     0.118 A 
ENDROOT
BRANCH   3   6
HETATM    6  N   UNL     1      23.534  42.517  49.960  1.00  0.00    -0.335 N 
HETATM    7  H   UNL     1      22.629  42.428  50.404  1.00  0.00     0.168 HD
BRANCH   6   8
HETATM    8  C   UNL     1      23.751  41.620  48.898  1.00  0.00     0.034 A 
HETATM    9  C   UNL     1      25.064  41.176  48.656  1.00  0.00     0.031 A 
HETATM   10  C   UNL     1      25.359  40.320  47.590  1.00  0.00     0.021 A 
HETATM   11  C   UNL     1      24.338  39.893  46.747  1.00  0.00     0.011 A 
HETATM   12 BR   UNL     1      24.729  38.742  45.302  1.00  0.00    -0.051 Br
HETATM   13  C   UNL     1      23.032  40.315  46.964  1.00  0.00     0.021 A 
HETATM   14  C   UNL     1      22.745  41.175  48.031  1.00  0.00     0.031 A 
ENDBRANCH   6   8
ENDBRANCH   3   6
BRANCH   1  15
HETATM   15  C   UNL     1      25.832  46.873  51.380  1.00  0.00     0.302 C 
HETATM   16  O   UNL     1      25.303  47.609  52.201  1.00  0.00    -0.259 OA
BRANCH  15  17
HETATM   17  O   UNL     1      26.783  47.277  50.483  1.00  0.00    -0.317 OA
BRANCH  17  18
HETATM   18  C   UNL     1      26.387  48.321  49.583  1.00  0.00     0.174 C 
HETATM   19  C   UNL     1      27.608  49.090  49.110  1.00  0.00     0.034 C 
ENDBRANCH  17  18
ENDBRANCH  15  17
ENDBRANCH   1  15
BRANCH   5  20
HETATM   20  C   UNL     1      27.126  44.307  52.739  1.00  0.00     0.129 A 
HETATM   21  N   UNL     1      27.269  45.188  53.705  1.00  0.00    -0.238 NA
HETATM   22  C   UNL     1      28.401  44.898  54.448  1.00  0.00     0.075 A 
HETATM   23  C   UNL     1      28.853  45.609  55.579  1.00  0.00     0.033 A 
HETATM   24  C   UNL     1      29.140  43.798  54.010  1.00  0.00     0.035 A 
HETATM   25  C   UNL     1      30.020  45.203  56.235  1.00  0.00     0.002 A 
HETATM   26  C   UNL     1      30.740  44.103  55.779  1.00  0.00     0.002 A 
HETATM   27  C   UNL     1      30.313  43.383  54.660  1.00  0.00     0.021 A 
HETATM   28  S   UNL     1      28.370  43.126  52.628  1.00  0.00    -0.066 SA
ENDBRANCH   5  20
TORSDOF 6
ENDMDL
MODEL 9
REMARK VINA RESULT:      -7.6      5.027      9.502
REMARK  6 active torsions:
REMARK  status: ('A' for Active; 'I' for Inactive)
REMARK    1  A    between atoms: C_2  and  O_3 
REMARK    2  A    between atoms: O_3  and  C_4 
REMARK    3  A    between atoms: C_4  and  C_6 
REMARK    4  A    between atoms: C_8  and  N_9 
REMARK    5  A    between atoms: N_9  and  C_10 
REMARK    6  A    between atoms: C_18  and  C_19 
ROOT
HETATM    1  C   UNL     1      27.661  42.608  52.911  1.00  0.00     0.115 A 
HETATM    2  S   UNL     1      28.443  41.091  53.109  1.00  0.00    -0.043 SA
HETATM    3  C   UNL     1      28.289  40.773  51.421  1.00  0.00     0.172 A 
HETATM    4  N   UNL     1      27.659  41.713  50.758  1.00  0.00    -0.220 NA
HETATM    5  C   UNL     1      27.284  42.759  51.593  1.00  0.00     0.118 A 
ENDROOT
BRANCH   3   6
HETATM    6  N   UNL     1      28.832  39.639  50.921  1.00  0.00    -0.335 N 
HETATM    7  H   UNL     1      29.705  39.334  51.333  1.00  0.00     0.168 HD
BRANCH   6   8
HETATM    8  C   UNL     1      28.395  38.852  49.840  1.00  0.00     0.034 A 
HETATM    9  C   UNL     1      29.327  38.503  48.847  1.00  0.00     0.031 A 
HETATM   10  C   UNL     1      28.952  37.762  47.722  1.00  0.00     0.021 A 
HETATM   11  C   UNL     1      27.630  37.356  47.575  1.00  0.00     0.011 A 
HETATM   12 BR   UNL     1      27.113  36.359  46.056  1.00  0.00    -0.051 Br
HETATM   13  C   UNL     1      26.688  37.685  48.542  1.00  0.00     0.021 A 
HETATM   14  C   UNL     1      27.070  38.431  49.663  1.00  0.00     0.031 A 
ENDBRANCH   6   8
ENDBRANCH   3   6
BRANCH   1  15
HETATM   15  C   UNL     1      27.570  43.523  54.018  1.00  0.00     0.302 C 
HETATM   16  O   UNL     1      26.670  43.559  54.846  1.00  0.00    -0.259 OA
BRANCH  15  17
HETATM   17  O   UNL     1      28.611  44.410  53.972  1.00  0.00    -0.317 OA
BRANCH  17  18
HETATM   18  C   UNL     1      29.353  44.566  55.190  1.00  0.00     0.174 C 
HETATM   19  C   UNL     1      30.486  43.556  55.241  1.00  0.00     0.034 C 
ENDBRANCH  17  18
ENDBRANCH  15  17
ENDBRANCH   1  15
BRANCH   5  20
HETATM   20  C   UNL     1      26.503  43.927  51.051  1.00  0.00     0.129 A 
HETATM   21  N   UNL     1      27.023  45.127  50.913  1.00  0.00    -0.238 NA
HETATM   22  C   UNL     1      26.082  45.994  50.384  1.00  0.00     0.075 A 
HETATM   23  C   UNL     1      26.292  47.353  50.073  1.00  0.00     0.033 A 
HETATM   24  C   UNL     1      24.821  45.441  50.153  1.00  0.00     0.035 A 
HETATM   25  C   UNL     1      25.245  48.115  49.542  1.00  0.00     0.002 A 
HETATM   26  C   UNL     1      23.997  47.541  49.319  1.00  0.00     0.002 A 
HETATM   27  C   UNL     1      23.764  46.197  49.621  1.00  0.00     0.021 A 
HETATM   28  S   UNL     1      24.846  43.786  50.617  1.00  0.00    -0.066 SA
ENDBRANCH   5  20
TORSDOF 6
ENDMDL
MODEL 10
REMARK VINA RESULT:      -7.5      3.590      8.487
REMARK  6 active torsions:
REMARK  status: ('A' for Active; 'I' for Inactive)
REMARK    1  A    between atoms: C_2  and  O_3 
REMARK    2  A    between atoms: O_3  and  C_4 
REMARK    3  A    between atoms: C_4  and  C_6 
REMARK    4  A    between atoms: C_8  and  N_9 
REMARK    5  A    between atoms: N_9  and  C_10 
REMARK    6  A    between atoms: C_18  and  C_19 
ROOT
HETATM    1  C   UNL     1      21.885  46.387  48.580  1.00  0.00     0.115 A 
HETATM    2  S   UNL     1      23.273  45.377  48.658  1.00  0.00    -0.043 SA
HETATM    3  C   UNL     1      24.201  46.677  49.309  1.00  0.00     0.172 A 
HETATM    4  N   UNL     1      23.536  47.802  49.421  1.00  0.00    -0.220 NA
HETATM    5  C   UNL     1      22.220  47.658  48.999  1.00  0.00     0.118 A 
ENDROOT
BRANCH   3   6
HETATM    6  N   UNL     1      25.485  46.443  49.666  1.00  0.00    -0.335 N 
HETATM    7  H   UNL     1      26.163  46.396  48.916  1.00  0.00     0.168 HD
BRANCH   6   8
HETATM    8  C   UNL     1      26.011  46.170  50.942  1.00  0.00     0.034 A 
HETATM    9  C   UNL     1      26.644  44.932  51.153  1.00  0.00     0.031 A 
HETATM   10  C   UNL     1      27.149  44.575  52.408  1.00  0.00     0.021 A 
HETATM   11  C   UNL     1      27.028  45.459  53.475  1.00  0.00     0.011 A 
HETATM   12 BR   UNL     1      27.702  44.983  55.174  1.00  0.00    -0.051 Br
HETATM   13  C   UNL     1      26.409  46.690  53.294  1.00  0.00     0.021 A 
HETATM   14  C   UNL     1      25.902  47.038  52.036  1.00  0.00     0.031 A 
ENDBRANCH   6   8
ENDBRANCH   3   6
BRANCH   1  15
HETATM   15  C   UNL     1      20.610  45.833  48.208  1.00  0.00     0.302 C 
HETATM   16  O   UNL     1      19.953  45.039  48.868  1.00  0.00    -0.259 OA
BRANCH  15  17
HETATM   17  O   UNL     1      20.262  46.268  46.958  1.00  0.00    -0.317 OA
BRANCH  17  18
HETATM   18  C   UNL     1      18.901  46.693  46.801  1.00  0.00     0.174 C 
HETATM   19  C   UNL     1      18.857  48.137  46.334  1.00  0.00     0.034 C 
ENDBRANCH  17  18
ENDBRANCH  15  17
ENDBRANCH   1  15
BRANCH   5  20
HETATM   20  C   UNL     1      21.285  48.839  48.995  1.00  0.00     0.129 A 
HETATM   21  N   UNL     1      20.153  48.851  49.663  1.00  0.00    -0.238 NA
HETATM   22  C   UNL     1      19.509  50.063  49.485  1.00  0.00     0.075 A 
HETATM   23  C   UNL     1      18.286  50.445  50.073  1.00  0.00     0.033 A 
HETATM   24  C   UNL     1      20.155  50.965  48.638  1.00  0.00     0.035 A 
HETATM   25  C   UNL     1      17.748  51.709  49.802  1.00  0.00     0.002 A 
HETATM   26  C   UNL     1      18.411  52.591  48.954  1.00  0.00     0.002 A 
HETATM   27  C   UNL     1      19.624  52.235  48.357  1.00  0.00     0.021 A 
HETATM   28  S   UNL     1      21.609  50.248  48.066  1.00  0.00    -0.066 SA
ENDBRANCH   5  20
TORSDOF 6
ENDMDL
