MODEL 1
REMARK VINA RESULT:      -8.3      0.000      0.000
REMARK  8 active torsions:
REMARK  status: ('A' for Active; 'I' for Inactive)
REMARK    1  A    between atoms: O_2  and  C_3 
REMARK    2  A    between atoms: C_5  and  O_6 
REMARK    3  A    between atoms: C_8  and  N_9 
REMARK       I    between atoms: N_9  and  C_10 
REMARK    4  A    between atoms: C_10  and  C_11 
REMARK    5  A    between atoms: C_11  and  N_12 
REMARK    6  A    between atoms: N_12  and  C_13 
REMARK    7  A    between atoms: C_14  and  N_15 
REMARK    8  A    between atoms: C_23  and  C_24 
ROOT
HETATM    1  N   UNL     1      29.133  42.440  52.263  1.00  0.00    -0.282 NA
HETATM    2  H   UNL     1      28.993  42.780  51.302  1.00  0.00     0.128 HD
ENDROOT
BRANCH   1   3
HETATM    3  C   UNL     1      28.436  41.168  52.478  1.00  0.00     0.195 C 
BRANCH   3   4
HETATM    4  C   UNL     1      27.835  40.641  51.170  1.00  0.00     0.235 C 
HETATM    5  N   UNL     1      28.780  40.463  50.175  1.00  0.00    -0.324 N 
HETATM    6  H   UNL     1      29.694  40.886  50.316  1.00  0.00     0.169 HD
HETATM    7  O   UNL     1      26.633  40.403  51.078  1.00  0.00    -0.272 OA
BRANCH   5   8
HETATM    8  C   UNL     1      28.635  39.769  48.953  1.00  0.00     0.068 A 
HETATM    9  C   UNL     1      29.262  38.512  48.839  1.00  0.00     0.097 A 
HETATM   10  C   UNL     1      29.090  37.755  47.673  1.00  0.00     0.075 A 
HETATM   11  C   UNL     1      28.299  38.229  46.622  1.00  0.00     0.070 A 
HETATM   12  C   UNL     1      27.701  39.483  46.728  1.00  0.00     0.039 A 
HETATM   13  C   UNL     1      27.867  40.246  47.888  1.00  0.00     0.035 A 
BRANCH   9  14
HETATM   14  O   UNL     1      29.999  38.112  49.931  1.00  0.00    -0.354 OA
HETATM   15  C   UNL     1      29.451  37.067  50.727  1.00  0.00     0.210 C 
ENDBRANCH   9  14
BRANCH  11  16
HETATM   16  O   UNL     1      28.194  37.381  45.554  1.00  0.00    -0.356 OA
HETATM   17  C   UNL     1      28.283  37.968  44.261  1.00  0.00     0.210 C 
ENDBRANCH  11  16
ENDBRANCH   5   8
ENDBRANCH   3   4
ENDBRANCH   1   3
BRANCH   1  18
HETATM   18  C   UNL     1      28.732  43.522  53.098  1.00  0.00     0.036 A 
HETATM   19  C   UNL     1      27.570  44.274  52.745  1.00  0.00     0.051 A 
HETATM   20  C   UNL     1      27.165  45.298  53.616  1.00  0.00     0.032 A 
HETATM   21  C   UNL     1      27.898  45.624  54.761  1.00  0.00     0.018 A 
HETATM   22  C   UNL     1      29.076  44.940  55.066  1.00  0.00     0.049 A 
HETATM   23  C   UNL     1      29.491  43.901  54.219  1.00  0.00     0.042 A 
BRANCH  19  24
HETATM   24  N   UNL     1      26.845  43.945  51.588  1.00  0.00    -0.379 N 
HETATM   25  C   UNL     1      25.406  43.654  51.672  1.00  0.00     0.123 C 
HETATM   26  C   UNL     1      24.541  44.871  51.337  1.00  0.00     0.020 C 
HETATM   27  C   UNL     1      24.960  45.512  50.020  1.00  0.00     0.003 C 
HETATM   28  C   UNL     1      26.449  45.840  50.039  1.00  0.00     0.020 C 
HETATM   29  C   UNL     1      27.285  44.598  50.341  1.00  0.00     0.123 C 
ENDBRANCH  19  24
BRANCH  22  30
HETATM   30  C   UNL     1      29.876  45.268  56.300  1.00  0.00     0.417 C 
HETATM   31  F   UNL     1      30.602  44.218  56.776  1.00  0.00    -0.166 F 
HETATM   32  F   UNL     1      30.771  46.273  56.083  1.00  0.00    -0.166 F 
HETATM   33  F   UNL     1      29.097  45.683  57.338  1.00  0.00    -0.166 F 
ENDBRANCH  22  30
ENDBRANCH   1  18
TORSDOF 8
ENDMDL
MODEL 2
REMARK VINA RESULT:      -8.3      0.914      1.673
REMARK  8 active torsions:
REMARK  status: ('A' for Active; 'I' for Inactive)
REMARK    1  A    between atoms: O_2  and  C_3 
REMARK    2  A    between atoms: C_5  and  O_6 
REMARK    3  A    between atoms: C_8  and  N_9 
REMARK       I    between atoms: N_9  and  C_10 
REMARK    4  A    between atoms: C_10  and  C_11 
REMARK    5  A    between atoms: C_11  and  N_12 
REMARK    6  A    between atoms: N_12  and  C_13 
REMARK    7  A    between atoms: C_14  and  N_15 
REMARK    8  A    between atoms: C_23  and  C_24 
ROOT
HETATM    1  N   UNL     1      29.123  42.420  52.307  1.00  0.00    -0.282 NA
HETATM    2  H   UNL     1      28.941  42.739  51.346  1.00  0.00     0.128 HD
ENDROOT
BRANCH   1   3
HETATM    3  C   UNL     1      28.459  41.139  52.570  1.00  0.00     0.195 C 
BRANCH   3   4
HETATM    4  C   UNL     1      27.842  40.565  51.290  1.00  0.00     0.235 C 
HETATM    5  N   UNL     1      28.767  40.389  50.277  1.00  0.00    -0.324 N 
HETATM    6  H   UNL     1      29.672  40.840  50.386  1.00  0.00     0.169 HD
HETATM    7  O   UNL     1      26.644  40.293  51.233  1.00  0.00    -0.272 OA
BRANCH   5   8
HETATM    8  C   UNL     1      28.613  39.663  49.075  1.00  0.00     0.068 A 
HETATM    9  C   UNL     1      28.040  40.334  47.976  1.00  0.00     0.097 A 
HETATM   10  C   UNL     1      27.930  39.678  46.744  1.00  0.00     0.075 A 
HETATM   11  C   UNL     1      28.387  38.366  46.589  1.00  0.00     0.070 A 
HETATM   12  C   UNL     1      28.930  37.697  47.682  1.00  0.00     0.039 A 
HETATM   13  C   UNL     1      29.044  38.344  48.918  1.00  0.00     0.035 A 
BRANCH   9  14
HETATM   14  O   UNL     1      27.642  41.631  48.211  1.00  0.00    -0.354 OA
HETATM   15  C   UNL     1      26.241  41.885  48.200  1.00  0.00     0.210 C 
ENDBRANCH   9  14
BRANCH  11  16
HETATM   16  O   UNL     1      28.243  37.853  45.328  1.00  0.00    -0.356 OA
HETATM   17  C   UNL     1      29.227  36.916  44.905  1.00  0.00     0.210 C 
ENDBRANCH  11  16
ENDBRANCH   5   8
ENDBRANCH   3   4
ENDBRANCH   1   3
BRANCH   1  18
HETATM   18  C   UNL     1      28.735  43.509  53.138  1.00  0.00     0.036 A 
HETATM   19  C   UNL     1      27.582  44.274  52.782  1.00  0.00     0.051 A 
HETATM   20  C   UNL     1      27.188  45.305  53.649  1.00  0.00     0.032 A 
HETATM   21  C   UNL     1      27.924  45.626  54.794  1.00  0.00     0.018 A 
HETATM   22  C   UNL     1      29.094  44.929  55.102  1.00  0.00     0.049 A 
HETATM   23  C   UNL     1      29.497  43.883  54.258  1.00  0.00     0.042 A 
BRANCH  19  24
HETATM   24  N   UNL     1      26.853  43.950  51.625  1.00  0.00    -0.379 N 
HETATM   25  C   UNL     1      25.422  43.627  51.716  1.00  0.00     0.123 C 
HETATM   26  C   UNL     1      24.529  44.831  51.410  1.00  0.00     0.020 C 
HETATM   27  C   UNL     1      24.923  45.504  50.100  1.00  0.00     0.003 C 
HETATM   28  C   UNL     1      26.405  45.862  50.112  1.00  0.00     0.020 C 
HETATM   29  C   UNL     1      27.270  44.633  50.386  1.00  0.00     0.123 C 
ENDBRANCH  19  24
BRANCH  22  30
HETATM   30  C   UNL     1      29.896  45.252  56.335  1.00  0.00     0.417 C 
HETATM   31  F   UNL     1      30.645  44.208  56.789  1.00  0.00    -0.166 F 
HETATM   32  F   UNL     1      30.772  46.276  56.129  1.00  0.00    -0.166 F 
HETATM   33  F   UNL     1      29.118  45.635  57.385  1.00  0.00    -0.166 F 
ENDBRANCH  22  30
ENDBRANCH   1  18
TORSDOF 8
ENDMDL
MODEL 3
REMARK VINA RESULT:      -8.2      5.260      9.072
REMARK  8 active torsions:
REMARK  status: ('A' for Active; 'I' for Inactive)
REMARK    1  A    between atoms: O_2  and  C_3 
REMARK    2  A    between atoms: C_5  and  O_6 
REMARK    3  A    between atoms: C_8  and  N_9 
REMARK       I    between atoms: N_9  and  C_10 
REMARK    4  A    between atoms: C_10  and  C_11 
REMARK    5  A    between atoms: C_11  and  N_12 
REMARK    6  A    between atoms: N_12  and  C_13 
REMARK    7  A    between atoms: C_14  and  N_15 
REMARK    8  A    between atoms: C_23  and  C_24 
ROOT
HETATM    1  N   UNL     1      25.083  47.496  51.164  1.00  0.00    -0.282 NA
HETATM    2  H   UNL     1      24.240  46.963  50.913  1.00  0.00     0.128 HD
ENDROOT
BRANCH   1   3
HETATM    3  C   UNL     1      25.784  47.965  49.965  1.00  0.00     0.195 C 
BRANCH   3   4
HETATM    4  C   UNL     1      24.874  48.852  49.106  1.00  0.00     0.235 C 
HETATM    5  N   UNL     1      23.529  48.614  49.323  1.00  0.00    -0.324 N 
HETATM    6  H   UNL     1      23.278  47.769  49.830  1.00  0.00     0.169 HD
HETATM    7  O   UNL     1      25.349  49.684  48.335  1.00  0.00    -0.272 OA
BRANCH   5   8
HETATM    8  C   UNL     1      22.430  49.399  48.909  1.00  0.00     0.068 A 
HETATM    9  C   UNL     1      21.646  48.913  47.843  1.00  0.00     0.097 A 
HETATM   10  C   UNL     1      20.506  49.621  47.442  1.00  0.00     0.075 A 
HETATM   11  C   UNL     1      20.133  50.802  48.090  1.00  0.00     0.070 A 
HETATM   12  C   UNL     1      20.923  51.293  49.126  1.00  0.00     0.039 A 
HETATM   13  C   UNL     1      22.064  50.594  49.534  1.00  0.00     0.035 A 
BRANCH   9  14
HETATM   14  O   UNL     1      22.071  47.731  47.281  1.00  0.00    -0.354 OA
HETATM   15  C   UNL     1      21.064  46.865  46.767  1.00  0.00     0.210 C 
ENDBRANCH   9  14
BRANCH  11  16
HETATM   16  O   UNL     1      18.985  51.379  47.617  1.00  0.00    -0.356 OA
HETATM   17  C   UNL     1      18.489  52.499  48.342  1.00  0.00     0.210 C 
ENDBRANCH  11  16
ENDBRANCH   5   8
ENDBRANCH   3   4
ENDBRANCH   1   3
BRANCH   1  18
HETATM   18  C   UNL     1      25.822  46.633  52.024  1.00  0.00     0.036 A 
HETATM   19  C   UNL     1      25.953  45.255  51.673  1.00  0.00     0.051 A 
HETATM   20  C   UNL     1      26.734  44.440  52.508  1.00  0.00     0.032 A 
HETATM   21  C   UNL     1      27.320  44.932  53.679  1.00  0.00     0.018 A 
HETATM   22  C   UNL     1      27.128  46.261  54.062  1.00  0.00     0.049 A 
HETATM   23  C   UNL     1      26.365  47.098  53.234  1.00  0.00     0.042 A 
BRANCH  19  24
HETATM   24  N   UNL     1      25.354  44.768  50.499  1.00  0.00    -0.379 N 
HETATM   25  C   UNL     1      26.184  44.233  49.410  1.00  0.00     0.123 C 
HETATM   26  C   UNL     1      26.304  42.708  49.458  1.00  0.00     0.020 C 
HETATM   27  C   UNL     1      24.938  42.041  49.571  1.00  0.00     0.003 C 
HETATM   28  C   UNL     1      24.168  42.606  50.761  1.00  0.00     0.020 C 
HETATM   29  C   UNL     1      24.037  44.125  50.664  1.00  0.00     0.123 C 
ENDBRANCH  19  24
BRANCH  22  30
HETATM   30  C   UNL     1      27.758  46.813  55.314  1.00  0.00     0.417 C 
HETATM   31  F   UNL     1      28.013  45.867  56.260  1.00  0.00    -0.166 F 
HETATM   32  F   UNL     1      28.951  47.424  55.066  1.00  0.00    -0.166 F 
HETATM   33  F   UNL     1      26.981  47.751  55.925  1.00  0.00    -0.166 F 
ENDBRANCH  22  30
ENDBRANCH   1  18
TORSDOF 8
ENDMDL
MODEL 4
REMARK VINA RESULT:      -8.1      5.361      8.577
REMARK  8 active torsions:
REMARK  status: ('A' for Active; 'I' for Inactive)
REMARK    1  A    between atoms: O_2  and  C_3 
REMARK    2  A    between atoms: C_5  and  O_6 
REMARK    3  A    between atoms: C_8  and  N_9 
REMARK       I    between atoms: N_9  and  C_10 
REMARK    4  A    between atoms: C_10  and  C_11 
REMARK    5  A    between atoms: C_11  and  N_12 
REMARK    6  A    between atoms: N_12  and  C_13 
REMARK    7  A    between atoms: C_14  and  N_15 
REMARK    8  A    between atoms: C_23  and  C_24 
ROOT
HETATM    1  N   UNL     1      25.982  47.230  51.890  1.00  0.00    -0.282 NA
HETATM    2  H   UNL     1      26.736  46.537  51.786  1.00  0.00     0.128 HD
ENDROOT
BRANCH   1   3
HETATM    3  C   UNL     1      25.410  47.184  53.239  1.00  0.00     0.195 C 
BRANCH   3   4
HETATM    4  C   UNL     1      26.156  46.175  54.121  1.00  0.00     0.235 C 
HETATM    5  N   UNL     1      27.486  46.504  54.308  1.00  0.00    -0.324 N 
HETATM    6  H   UNL     1      27.884  47.214  53.699  1.00  0.00     0.169 HD
HETATM    7  O   UNL     1      25.575  45.202  54.597  1.00  0.00    -0.272 OA
BRANCH   5   8
HETATM    8  C   UNL     1      28.392  45.959  55.245  1.00  0.00     0.068 A 
HETATM    9  C   UNL     1      29.165  44.852  54.839  1.00  0.00     0.097 A 
HETATM   10  C   UNL     1      30.126  44.320  55.708  1.00  0.00     0.075 A 
HETATM   11  C   UNL     1      30.332  44.877  56.973  1.00  0.00     0.070 A 
HETATM   12  C   UNL     1      29.550  45.955  57.382  1.00  0.00     0.039 A 
HETATM   13  C   UNL     1      28.588  46.493  56.521  1.00  0.00     0.035 A 
BRANCH   9  14
HETATM   14  O   UNL     1      28.914  44.385  53.568  1.00  0.00    -0.354 OA
HETATM   15  C   UNL     1      28.654  42.992  53.436  1.00  0.00     0.210 C 
ENDBRANCH   9  14
BRANCH  11  16
HETATM   16  O   UNL     1      31.317  44.280  57.711  1.00  0.00    -0.356 OA
HETATM   17  C   UNL     1      31.919  43.119  57.149  1.00  0.00     0.210 C 
ENDBRANCH  11  16
ENDBRANCH   5   8
ENDBRANCH   3   4
ENDBRANCH   1   3
BRANCH   1  18
HETATM   18  C   UNL     1      25.083  46.961  50.819  1.00  0.00     0.036 A 
HETATM   19  C   UNL     1      24.941  45.617  50.356  1.00  0.00     0.051 A 
HETATM   20  C   UNL     1      24.007  45.372  49.338  1.00  0.00     0.032 A 
HETATM   21  C   UNL     1      23.276  46.406  48.744  1.00  0.00     0.018 A 
HETATM   22  C   UNL     1      23.470  47.730  49.144  1.00  0.00     0.049 A 
HETATM   23  C   UNL     1      24.387  47.996  50.171  1.00  0.00     0.042 A 
BRANCH  19  24
HETATM   24  N   UNL     1      25.686  44.586  50.952  1.00  0.00    -0.379 N 
HETATM   25  C   UNL     1      25.004  43.467  51.617  1.00  0.00     0.123 C 
HETATM   26  C   UNL     1      24.862  42.243  50.709  1.00  0.00     0.020 C 
HETATM   27  C   UNL     1      26.193  41.858  50.075  1.00  0.00     0.003 C 
HETATM   28  C   UNL     1      26.804  43.056  49.353  1.00  0.00     0.020 C 
HETATM   29  C   UNL     1      26.963  44.247  50.296  1.00  0.00     0.123 C 
ENDBRANCH  19  24
BRANCH  22  30
HETATM   30  C   UNL     1      22.686  48.857  48.524  1.00  0.00     0.417 C 
HETATM   31  F   UNL     1      22.086  49.671  49.437  1.00  0.00    -0.166 F 
HETATM   32  F   UNL     1      23.467  49.670  47.758  1.00  0.00    -0.166 F 
HETATM   33  F   UNL     1      21.690  48.420  47.705  1.00  0.00    -0.166 F 
ENDBRANCH  22  30
ENDBRANCH   1  18
TORSDOF 8
ENDMDL
MODEL 5
REMARK VINA RESULT:      -8.1      3.600      8.326
REMARK  8 active torsions:
REMARK  status: ('A' for Active; 'I' for Inactive)
REMARK    1  A    between atoms: O_2  and  C_3 
REMARK    2  A    between atoms: C_5  and  O_6 
REMARK    3  A    between atoms: C_8  and  N_9 
REMARK       I    between atoms: N_9  and  C_10 
REMARK    4  A    between atoms: C_10  and  C_11 
REMARK    5  A    between atoms: C_11  and  N_12 
REMARK    6  A    between atoms: N_12  and  C_13 
REMARK    7  A    between atoms: C_14  and  N_15 
REMARK    8  A    between atoms: C_23  and  C_24 
ROOT
HETATM    1  N   UNL     1      27.460  41.888  48.166  1.00  0.00    -0.282 NA
HETATM    2  H   UNL     1      28.297  42.485  48.186  1.00  0.00     0.128 HD
ENDROOT
BRANCH   1   3
HETATM    3  C   UNL     1      26.530  42.250  49.241  1.00  0.00     0.195 C 
BRANCH   3   4
HETATM    4  C   UNL     1      27.199  43.183  50.257  1.00  0.00     0.235 C 
HETATM    5  N   UNL     1      27.407  42.582  51.485  1.00  0.00    -0.324 N 
HETATM    6  H   UNL     1      26.923  41.706  51.667  1.00  0.00     0.169 HD
HETATM    7  O   UNL     1      27.511  44.332  49.950  1.00  0.00    -0.272 OA
BRANCH   5   8
HETATM    8  C   UNL     1      28.209  43.043  52.553  1.00  0.00     0.068 A 
HETATM    9  C   UNL     1      27.608  43.899  53.498  1.00  0.00     0.097 A 
HETATM   10  C   UNL     1      28.341  44.326  54.612  1.00  0.00     0.075 A 
HETATM   11  C   UNL     1      29.662  43.909  54.801  1.00  0.00     0.070 A 
HETATM   12  C   UNL     1      30.261  43.083  53.854  1.00  0.00     0.039 A 
HETATM   13  C   UNL     1      29.537  42.651  52.738  1.00  0.00     0.035 A 
BRANCH   9  14
HETATM   14  O   UNL     1      26.297  44.237  53.247  1.00  0.00    -0.354 OA
HETATM   15  C   UNL     1      26.031  45.606  52.962  1.00  0.00     0.210 C 
ENDBRANCH   9  14
BRANCH  11  16
HETATM   16  O   UNL     1      30.255  44.378  55.942  1.00  0.00    -0.356 OA
HETATM   17  C   UNL     1      29.876  45.682  56.368  1.00  0.00     0.210 C 
ENDBRANCH  11  16
ENDBRANCH   5   8
ENDBRANCH   3   4
ENDBRANCH   1   3
BRANCH   1  18
HETATM   18  C   UNL     1      27.957  40.554  48.191  1.00  0.00     0.036 A 
HETATM   19  C   UNL     1      27.808  39.738  47.028  1.00  0.00     0.051 A 
HETATM   20  C   UNL     1      28.358  38.448  47.060  1.00  0.00     0.032 A 
HETATM   21  C   UNL     1      28.980  37.940  48.205  1.00  0.00     0.018 A 
HETATM   22  C   UNL     1      29.058  38.709  49.368  1.00  0.00     0.049 A 
HETATM   23  C   UNL     1      28.530  40.009  49.353  1.00  0.00     0.042 A 
BRANCH  19  24
HETATM   24  N   UNL     1      27.174  40.254  45.884  1.00  0.00    -0.379 N 
HETATM   25  C   UNL     1      27.972  40.795  44.775  1.00  0.00     0.123 C 
HETATM   26  C   UNL     1      28.190  39.773  43.656  1.00  0.00     0.020 C 
HETATM   27  C   UNL     1      26.876  39.138  43.214  1.00  0.00     0.003 C 
HETATM   28  C   UNL     1      26.143  38.546  44.413  1.00  0.00     0.020 C 
HETATM   29  C   UNL     1      25.912  39.599  45.495  1.00  0.00     0.123 C 
ENDBRANCH  19  24
BRANCH  22  30
HETATM   30  C   UNL     1      29.732  38.186  50.609  1.00  0.00     0.417 C 
HETATM   31  F   UNL     1      29.491  38.937  51.720  1.00  0.00    -0.166 F 
HETATM   32  F   UNL     1      29.331  36.921  50.920  1.00  0.00    -0.166 F 
HETATM   33  F   UNL     1      31.088  38.126  50.488  1.00  0.00    -0.166 F 
ENDBRANCH  22  30
ENDBRANCH   1  18
TORSDOF 8
ENDMDL
MODEL 6
REMARK VINA RESULT:      -8.0      6.689     10.080
REMARK  8 active torsions:
REMARK  status: ('A' for Active; 'I' for Inactive)
REMARK    1  A    between atoms: O_2  and  C_3 
REMARK    2  A    between atoms: C_5  and  O_6 
REMARK    3  A    between atoms: C_8  and  N_9 
REMARK       I    between atoms: N_9  and  C_10 
REMARK    4  A    between atoms: C_10  and  C_11 
REMARK    5  A    between atoms: C_11  and  N_12 
REMARK    6  A    between atoms: N_12  and  C_13 
REMARK    7  A    between atoms: C_14  and  N_15 
REMARK    8  A    between atoms: C_23  and  C_24 
ROOT
HETATM    1  N   UNL     1      23.019  48.375  49.751  1.00  0.00    -0.282 NA
HETATM    2  H   UNL     1      22.656  49.217  50.217  1.00  0.00     0.128 HD
ENDROOT
BRANCH   1   3
HETATM    3  C   UNL     1      24.361  48.612  49.210  1.00  0.00     0.195 C 
BRANCH   3   4
HETATM    4  C   UNL     1      25.409  47.772  49.949  1.00  0.00     0.235 C 
HETATM    5  N   UNL     1      24.899  47.133  51.065  1.00  0.00    -0.324 N 
HETATM    6  H   UNL     1      23.991  47.438  51.405  1.00  0.00     0.169 HD
HETATM    7  O   UNL     1      26.565  47.699  49.536  1.00  0.00    -0.272 OA
BRANCH   5   8
HETATM    8  C   UNL     1      25.494  46.099  51.821  1.00  0.00     0.068 A 
HETATM    9  C   UNL     1      25.857  46.391  53.152  1.00  0.00     0.097 A 
HETATM   10  C   UNL     1      26.386  45.380  53.964  1.00  0.00     0.075 A 
HETATM   11  C   UNL     1      26.554  44.082  53.472  1.00  0.00     0.070 A 
HETATM   12  C   UNL     1      26.218  43.803  52.150  1.00  0.00     0.039 A 
HETATM   13  C   UNL     1      25.689  44.806  51.331  1.00  0.00     0.035 A 
BRANCH   9  14
HETATM   14  O   UNL     1      25.633  47.686  53.561  1.00  0.00    -0.354 OA
HETATM   15  C   UNL     1      26.137  48.052  54.840  1.00  0.00     0.210 C 
ENDBRANCH   9  14
BRANCH  11  16
HETATM   16  O   UNL     1      27.055  43.185  54.376  1.00  0.00    -0.356 OA
HETATM   17  C   UNL     1      27.989  42.233  53.880  1.00  0.00     0.210 C 
ENDBRANCH  11  16
ENDBRANCH   5   8
ENDBRANCH   3   4
ENDBRANCH   1   3
BRANCH   1  18
HETATM   18  C   UNL     1      22.017  48.016  48.804  1.00  0.00     0.036 A 
HETATM   19  C   UNL     1      20.843  48.823  48.701  1.00  0.00     0.051 A 
HETATM   20  C   UNL     1      19.898  48.481  47.722  1.00  0.00     0.032 A 
HETATM   21  C   UNL     1      20.056  47.355  46.908  1.00  0.00     0.018 A 
HETATM   22  C   UNL     1      21.167  46.522  47.060  1.00  0.00     0.049 A 
HETATM   23  C   UNL     1      22.132  46.855  48.021  1.00  0.00     0.042 A 
BRANCH  19  24
HETATM   24  N   UNL     1      20.688  49.948  49.529  1.00  0.00    -0.379 N 
HETATM   25  C   UNL     1      20.995  51.292  49.020  1.00  0.00     0.123 C 
HETATM   26  C   UNL     1      19.748  52.031  48.525  1.00  0.00     0.020 C 
HETATM   27  C   UNL     1      18.635  52.010  49.566  1.00  0.00     0.003 C 
HETATM   28  C   UNL     1      18.335  50.577  49.994  1.00  0.00     0.020 C 
HETATM   29  C   UNL     1      19.591  49.880  50.514  1.00  0.00     0.123 C 
ENDBRANCH  19  24
BRANCH  22  30
HETATM   30  C   UNL     1      21.362  45.310  46.187  1.00  0.00     0.417 C 
HETATM   31  F   UNL     1      22.367  45.447  45.278  1.00  0.00    -0.166 F 
HETATM   32  F   UNL     1      21.664  44.195  46.911  1.00  0.00    -0.166 F 
HETATM   33  F   UNL     1      20.250  44.994  45.467  1.00  0.00    -0.166 F 
ENDBRANCH  22  30
ENDBRANCH   1  18
TORSDOF 8
ENDMDL
MODEL 7
REMARK VINA RESULT:      -7.8      1.796      2.570
REMARK  8 active torsions:
REMARK  status: ('A' for Active; 'I' for Inactive)
REMARK    1  A    between atoms: O_2  and  C_3 
REMARK    2  A    between atoms: C_5  and  O_6 
REMARK    3  A    between atoms: C_8  and  N_9 
REMARK       I    between atoms: N_9  and  C_10 
REMARK    4  A    between atoms: C_10  and  C_11 
REMARK    5  A    between atoms: C_11  and  N_12 
REMARK    6  A    between atoms: N_12  and  C_13 
REMARK    7  A    between atoms: C_14  and  N_15 
REMARK    8  A    between atoms: C_23  and  C_24 
ROOT
HETATM    1  N   UNL     1      27.540  41.724  52.552  1.00  0.00    -0.282 NA
HETATM    2  H   UNL     1      26.887  41.242  53.185  1.00  0.00     0.128 HD
ENDROOT
BRANCH   1   3
HETATM    3  C   UNL     1      28.623  40.829  52.133  1.00  0.00     0.195 C 
BRANCH   3   4
HETATM    4  C   UNL     1      28.315  40.190  50.773  1.00  0.00     0.235 C 
HETATM    5  N   UNL     1      27.579  41.016  49.944  1.00  0.00    -0.324 N 
HETATM    6  H   UNL     1      27.140  41.832  50.364  1.00  0.00     0.169 HD
HETATM    7  O   UNL     1      28.720  39.062  50.499  1.00  0.00    -0.272 OA
BRANCH   5   8
HETATM    8  C   UNL     1      27.337  40.866  48.560  1.00  0.00     0.068 A 
HETATM    9  C   UNL     1      25.994  40.814  48.134  1.00  0.00     0.097 A 
HETATM   10  C   UNL     1      25.703  40.735  46.767  1.00  0.00     0.075 A 
HETATM   11  C   UNL     1      26.728  40.713  45.817  1.00  0.00     0.070 A 
HETATM   12  C   UNL     1      28.054  40.740  46.241  1.00  0.00     0.039 A 
HETATM   13  C   UNL     1      28.356  40.819  47.606  1.00  0.00     0.035 A 
BRANCH   9  14
HETATM   14  O   UNL     1      25.050  40.867  49.135  1.00  0.00    -0.354 OA
HETATM   15  C   UNL     1      24.054  41.879  49.024  1.00  0.00     0.210 C 
ENDBRANCH   9  14
BRANCH  11  16
HETATM   16  O   UNL     1      26.306  40.662  44.517  1.00  0.00    -0.356 OA
HETATM   17  C   UNL     1      25.126  39.910  44.258  1.00  0.00     0.210 C 
ENDBRANCH  11  16
ENDBRANCH   5   8
ENDBRANCH   3   4
ENDBRANCH   1   3
BRANCH   1  18
HETATM   18  C   UNL     1      27.935  42.898  53.255  1.00  0.00     0.036 A 
HETATM   19  C   UNL     1      27.275  44.131  52.966  1.00  0.00     0.051 A 
HETATM   20  C   UNL     1      27.645  45.260  53.713  1.00  0.00     0.032 A 
HETATM   21  C   UNL     1      28.664  45.210  54.669  1.00  0.00     0.018 A 
HETATM   22  C   UNL     1      29.362  44.023  54.898  1.00  0.00     0.049 A 
HETATM   23  C   UNL     1      28.999  42.877  54.174  1.00  0.00     0.042 A 
BRANCH  19  24
HETATM   24  N   UNL     1      26.258  44.174  51.998  1.00  0.00    -0.379 N 
HETATM   25  C   UNL     1      25.014  44.912  52.262  1.00  0.00     0.123 C 
HETATM   26  C   UNL     1      25.033  46.324  51.670  1.00  0.00     0.020 C 
HETATM   27  C   UNL     1      25.437  46.310  50.200  1.00  0.00     0.003 C 
HETATM   28  C   UNL     1      26.766  45.582  50.022  1.00  0.00     0.020 C 
HETATM   29  C   UNL     1      26.702  44.166  50.592  1.00  0.00     0.123 C 
ENDBRANCH  19  24
BRANCH  22  30
HETATM   30  C   UNL     1      30.457  43.945  55.929  1.00  0.00     0.417 C 
HETATM   31  F   UNL     1      30.709  42.678  56.364  1.00  0.00    -0.166 F 
HETATM   32  F   UNL     1      31.645  44.420  55.459  1.00  0.00    -0.166 F 
HETATM   33  F   UNL     1      30.183  44.673  57.046  1.00  0.00    -0.166 F 
ENDBRANCH  22  30
ENDBRANCH   1  18
TORSDOF 8
ENDMDL
MODEL 8
REMARK VINA RESULT:      -7.8      7.152     10.312
REMARK  8 active torsions:
REMARK  status: ('A' for Active; 'I' for Inactive)
REMARK    1  A    between atoms: O_2  and  C_3 
REMARK    2  A    between atoms: C_5  and  O_6 
REMARK    3  A    between atoms: C_8  and  N_9 
REMARK       I    between atoms: N_9  and  C_10 
REMARK    4  A    between atoms: C_10  and  C_11 
REMARK    5  A    between atoms: C_11  and  N_12 
REMARK    6  A    between atoms: N_12  and  C_13 
REMARK    7  A    between atoms: C_14  and  N_15 
REMARK    8  A    between atoms: C_23  and  C_24 
ROOT
HETATM    1  N   UNL     1      22.246  48.383  49.479  1.00  0.00    -0.282 NA
HETATM    2  H   UNL     1      21.823  49.057  50.131  1.00  0.00     0.128 HD
ENDROOT
BRANCH   1   3
HETATM    3  C   UNL     1      23.581  48.823  49.061  1.00  0.00     0.195 C 
BRANCH   3   4
HETATM    4  C   UNL     1      24.674  48.087  49.845  1.00  0.00     0.235 C 
HETATM    5  N   UNL     1      24.174  47.090  50.662  1.00  0.00    -0.324 N 
HETATM    6  H   UNL     1      23.171  47.083  50.834  1.00  0.00     0.169 HD
HETATM    7  O   UNL     1      25.859  48.386  49.708  1.00  0.00    -0.272 OA
BRANCH   5   8
HETATM    8  C   UNL     1      24.889  46.064  51.319  1.00  0.00     0.068 A 
HETATM    9  C   UNL     1      24.749  44.751  50.823  1.00  0.00     0.097 A 
HETATM   10  C   UNL     1      25.492  43.711  51.396  1.00  0.00     0.075 A 
HETATM   11  C   UNL     1      26.374  43.959  52.452  1.00  0.00     0.070 A 
HETATM   12  C   UNL     1      26.492  45.252  52.955  1.00  0.00     0.039 A 
HETATM   13  C   UNL     1      25.754  46.298  52.390  1.00  0.00     0.035 A 
BRANCH   9  14
HETATM   14  O   UNL     1      23.880  44.603  49.766  1.00  0.00    -0.354 OA
HETATM   15  C   UNL     1      22.731  43.792  49.989  1.00  0.00     0.210 C 
ENDBRANCH   9  14
BRANCH  11  16
HETATM   16  O   UNL     1      27.056  42.861  52.901  1.00  0.00    -0.356 OA
HETATM   17  C   UNL     1      27.910  42.214  51.965  1.00  0.00     0.210 C 
ENDBRANCH  11  16
ENDBRANCH   5   8
ENDBRANCH   3   4
ENDBRANCH   1   3
BRANCH   1  18
HETATM   18  C   UNL     1      21.286  48.222  48.440  1.00  0.00     0.036 A 
HETATM   19  C   UNL     1      20.227  49.174  48.324  1.00  0.00     0.051 A 
HETATM   20  C   UNL     1      19.328  49.025  47.256  1.00  0.00     0.032 A 
HETATM   21  C   UNL     1      19.416  47.952  46.364  1.00  0.00     0.018 A 
HETATM   22  C   UNL     1      20.404  46.978  46.523  1.00  0.00     0.049 A 
HETATM   23  C   UNL     1      21.324  47.117  47.573  1.00  0.00     0.042 A 
BRANCH  19  24
HETATM   24  N   UNL     1      20.142  50.245  49.230  1.00  0.00    -0.379 N 
HETATM   25  C   UNL     1      20.448  51.614  48.791  1.00  0.00     0.123 C 
HETATM   26  C   UNL     1      19.192  52.404  48.417  1.00  0.00     0.020 C 
HETATM   27  C   UNL     1      18.138  52.335  49.515  1.00  0.00     0.003 C 
HETATM   28  C   UNL     1      17.832  50.883  49.867  1.00  0.00     0.020 C 
HETATM   29  C   UNL     1      19.101  50.132  50.268  1.00  0.00     0.123 C 
ENDBRANCH  19  24
BRANCH  22  30
HETATM   30  C   UNL     1      20.522  45.819  45.568  1.00  0.00     0.417 C 
HETATM   31  F   UNL     1      21.225  46.112  44.438  1.00  0.00    -0.166 F 
HETATM   32  F   UNL     1      21.149  44.748  46.130  1.00  0.00    -0.166 F 
HETATM   33  F   UNL     1      19.312  45.360  45.144  1.00  0.00    -0.166 F 
ENDBRANCH  22  30
ENDBRANCH   1  18
TORSDOF 8
ENDMDL
MODEL 9
REMARK VINA RESULT:      -7.7      6.950     10.268
REMARK  8 active torsions:
REMARK  status: ('A' for Active; 'I' for Inactive)
REMARK    1  A    between atoms: O_2  and  C_3 
REMARK    2  A    between atoms: C_5  and  O_6 
REMARK    3  A    between atoms: C_8  and  N_9 
REMARK       I    between atoms: N_9  and  C_10 
REMARK    4  A    between atoms: C_10  and  C_11 
REMARK    5  A    between atoms: C_11  and  N_12 
REMARK    6  A    between atoms: N_12  and  C_13 
REMARK    7  A    between atoms: C_14  and  N_15 
REMARK    8  A    between atoms: C_23  and  C_24 
ROOT
HETATM    1  N   UNL     1      22.093  48.270  49.548  1.00  0.00    -0.282 NA
HETATM    2  H   UNL     1      22.061  48.600  50.521  1.00  0.00     0.128 HD
ENDROOT
BRANCH   1   3
HETATM    3  C   UNL     1      23.349  48.661  48.900  1.00  0.00     0.195 C 
BRANCH   3   4
HETATM    4  C   UNL     1      24.558  48.110  49.666  1.00  0.00     0.235 C 
HETATM    5  N   UNL     1      24.201  47.370  50.778  1.00  0.00    -0.324 N 
HETATM    6  H   UNL     1      23.239  47.442  51.100  1.00  0.00     0.169 HD
HETATM    7  O   UNL     1      25.704  48.323  49.274  1.00  0.00    -0.272 OA
BRANCH   5   8
HETATM    8  C   UNL     1      25.018  46.519  51.555  1.00  0.00     0.068 A 
HETATM    9  C   UNL     1      25.085  45.161  51.184  1.00  0.00     0.097 A 
HETATM   10  C   UNL     1      25.935  44.293  51.880  1.00  0.00     0.075 A 
HETATM   11  C   UNL     1      26.723  44.758  52.937  1.00  0.00     0.070 A 
HETATM   12  C   UNL     1      26.637  46.095  53.318  1.00  0.00     0.039 A 
HETATM   13  C   UNL     1      25.790  46.970  52.628  1.00  0.00     0.035 A 
BRANCH   9  14
HETATM   14  O   UNL     1      24.296  44.796  50.116  1.00  0.00    -0.354 OA
HETATM   15  C   UNL     1      24.899  43.969  49.126  1.00  0.00     0.210 C 
ENDBRANCH   9  14
BRANCH  11  16
HETATM   16  O   UNL     1      27.527  43.813  53.514  1.00  0.00    -0.356 OA
HETATM   17  C   UNL     1      28.802  44.252  53.969  1.00  0.00     0.210 C 
ENDBRANCH  11  16
ENDBRANCH   5   8
ENDBRANCH   3   4
ENDBRANCH   1   3
BRANCH   1  18
HETATM   18  C   UNL     1      20.899  48.768  48.950  1.00  0.00     0.036 A 
HETATM   19  C   UNL     1      20.146  47.909  48.093  1.00  0.00     0.051 A 
HETATM   20  C   UNL     1      18.945  48.406  47.563  1.00  0.00     0.032 A 
HETATM   21  C   UNL     1      18.517  49.714  47.808  1.00  0.00     0.018 A 
HETATM   22  C   UNL     1      19.292  50.579  48.583  1.00  0.00     0.049 A 
HETATM   23  C   UNL     1      20.488  50.099  49.137  1.00  0.00     0.042 A 
BRANCH  19  24
HETATM   24  N   UNL     1      20.588  46.598  47.845  1.00  0.00    -0.379 N 
HETATM   25  C   UNL     1      19.820  45.450  48.349  1.00  0.00     0.123 C 
HETATM   26  C   UNL     1      18.881  44.864  47.292  1.00  0.00     0.020 C 
HETATM   27  C   UNL     1      19.613  44.586  45.984  1.00  0.00     0.003 C 
HETATM   28  C   UNL     1      20.329  45.842  45.499  1.00  0.00     0.020 C 
HETATM   29  C   UNL     1      21.283  46.381  46.563  1.00  0.00     0.123 C 
ENDBRANCH  19  24
BRANCH  22  30
HETATM   30  C   UNL     1      18.845  51.989  48.867  1.00  0.00     0.417 C 
HETATM   31  F   UNL     1      18.802  52.292  50.195  1.00  0.00    -0.166 F 
HETATM   32  F   UNL     1      19.668  52.916  48.300  1.00  0.00    -0.166 F 
HETATM   33  F   UNL     1      17.600  52.255  48.385  1.00  0.00    -0.166 F 
ENDBRANCH  22  30
ENDBRANCH   1  18
TORSDOF 8
ENDMDL
MODEL 10
REMARK VINA RESULT:      -7.6     13.085     15.148
REMARK  8 active torsions:
REMARK  status: ('A' for Active; 'I' for Inactive)
REMARK    1  A    between atoms: O_2  and  C_3 
REMARK    2  A    between atoms: C_5  and  O_6 
REMARK    3  A    between atoms: C_8  and  N_9 
REMARK       I    between atoms: N_9  and  C_10 
REMARK    4  A    between atoms: C_10  and  C_11 
REMARK    5  A    between atoms: C_11  and  N_12 
REMARK    6  A    between atoms: N_12  and  C_13 
REMARK    7  A    between atoms: C_14  and  N_15 
REMARK    8  A    between atoms: C_23  and  C_24 
ROOT
HETATM    1  N   UNL     1      30.046  48.140  40.869  1.00  0.00    -0.282 NA
HETATM    2  H   UNL     1      30.331  48.639  41.723  1.00  0.00     0.128 HD
ENDROOT
BRANCH   1   3
HETATM    3  C   UNL     1      31.212  47.602  40.161  1.00  0.00     0.195 C 
BRANCH   3   4
HETATM    4  C   UNL     1      32.516  48.014  40.854  1.00  0.00     0.235 C 
HETATM    5  N   UNL     1      32.823  49.351  40.675  1.00  0.00    -0.324 N 
HETATM    6  H   UNL     1      32.311  49.858  39.957  1.00  0.00     0.169 HD
HETATM    7  O   UNL     1      33.171  47.200  41.502  1.00  0.00    -0.272 OA
BRANCH   5   8
HETATM    8  C   UNL     1      33.788  50.120  41.363  1.00  0.00     0.068 A 
HETATM    9  C   UNL     1      33.353  50.867  42.477  1.00  0.00     0.097 A 
HETATM   10  C   UNL     1      34.284  51.591  43.233  1.00  0.00     0.075 A 
HETATM   11  C   UNL     1      35.641  51.577  42.899  1.00  0.00     0.070 A 
HETATM   12  C   UNL     1      36.065  50.858  41.784  1.00  0.00     0.039 A 
HETATM   13  C   UNL     1      35.142  50.132  41.023  1.00  0.00     0.035 A 
BRANCH   9  14
HETATM   14  O   UNL     1      32.005  50.802  42.748  1.00  0.00    -0.354 OA
HETATM   15  C   UNL     1      31.312  52.041  42.857  1.00  0.00     0.210 C 
ENDBRANCH   9  14
BRANCH  11  16
HETATM   16  O   UNL     1      36.446  52.304  43.734  1.00  0.00    -0.356 OA
HETATM   17  C   UNL     1      37.688  51.713  44.098  1.00  0.00     0.210 C 
ENDBRANCH  11  16
ENDBRANCH   5   8
ENDBRANCH   3   4
ENDBRANCH   1   3
BRANCH   1  18
HETATM   18  C   UNL     1      29.249  49.073  40.145  1.00  0.00     0.036 A 
HETATM   19  C   UNL     1      28.156  48.588  39.365  1.00  0.00     0.051 A 
HETATM   20  C   UNL     1      27.352  49.532  38.708  1.00  0.00     0.032 A 
HETATM   21  C   UNL     1      27.636  50.901  38.755  1.00  0.00     0.018 A 
HETATM   22  C   UNL     1      28.750  51.369  39.455  1.00  0.00     0.049 A 
HETATM   23  C   UNL     1      29.557  50.444  40.133  1.00  0.00     0.042 A 
BRANCH  19  24
HETATM   24  N   UNL     1      27.883  47.210  39.316  1.00  0.00    -0.379 N 
HETATM   25  C   UNL     1      26.686  46.667  39.974  1.00  0.00     0.123 C 
HETATM   26  C   UNL     1      25.515  46.487  39.005  1.00  0.00     0.020 C 
HETATM   27  C   UNL     1      25.932  45.715  37.759  1.00  0.00     0.003 C 
HETATM   28  C   UNL     1      27.139  46.378  37.103  1.00  0.00     0.020 C 
HETATM   29  C   UNL     1      28.300  46.512  38.086  1.00  0.00     0.123 C 
ENDBRANCH  19  24
BRANCH  22  30
HETATM   30  C   UNL     1      29.068  52.840  39.527  1.00  0.00     0.417 C 
HETATM   31  F   UNL     1      28.440  53.485  40.549  1.00  0.00    -0.166 F 
HETATM   32  F   UNL     1      30.400  53.073  39.701  1.00  0.00    -0.166 F 
HETATM   33  F   UNL     1      28.720  53.511  38.394  1.00  0.00    -0.166 F 
ENDBRANCH  22  30
ENDBRANCH   1  18
TORSDOF 8
ENDMDL
