MODEL 1
REMARK VINA RESULT:      -9.9      0.000      0.000
REMARK  8 active torsions:
REMARK  status: ('A' for Active; 'I' for Inactive)
REMARK    1  A    between atoms: C_8  and  C_9 
REMARK    2  A    between atoms: C_9  and  C_10 
REMARK       I    between atoms: C_10  and  N_11 
REMARK    3  A    between atoms: N_11  and  C_12 
REMARK    4  A    between atoms: N_11  and  C_27 
REMARK    5  A    between atoms: C_12  and  C_13 
REMARK    6  A    between atoms: C_12  and  C_22 
REMARK       I    between atoms: C_13  and  N_14 
REMARK    7  A    between atoms: N_14  and  C_15 
REMARK    8  A    between atoms: C_27  and  C_28 
ROOT
HETATM    1  C   UNL     1      26.556  44.077  52.664  1.00  0.00     0.225 C 
HETATM    2  N   UNL     1      26.259  43.858  51.313  1.00  0.00    -0.330 N 
HETATM    3  O   UNL     1      26.438  43.185  53.509  1.00  0.00    -0.273 OA
ENDROOT
BRANCH   2   4
HETATM    4  C   UNL     1      25.781  42.508  50.936  1.00  0.00     0.219 C 
BRANCH   4   5
HETATM    5  C   UNL     1      24.299  42.532  50.465  1.00  0.00     0.246 C 
HETATM    6  N   UNL     1      24.030  41.991  49.222  1.00  0.00    -0.354 N 
HETATM    7  H   UNL     1      24.830  42.032  48.594  1.00  0.00     0.162 HD
HETATM    8  O   UNL     1      23.437  43.098  51.143  1.00  0.00    -0.271 OA
BRANCH   6   9
HETATM    9  C   UNL     1      22.719  42.093  48.586  1.00  0.00     0.084 C 
HETATM   10  C   UNL     1      22.499  43.521  48.058  1.00  0.00     0.025 C 
HETATM   11  C   UNL     1      23.356  43.834  46.830  1.00  0.00     0.002 C 
HETATM   12  C   UNL     1      23.149  42.807  45.721  1.00  0.00     0.000 C 
HETATM   13  C   UNL     1      23.380  41.386  46.223  1.00  0.00     0.002 C 
HETATM   14  C   UNL     1      22.518  41.078  47.446  1.00  0.00     0.025 C 
ENDBRANCH   6   9
ENDBRANCH   4   5
BRANCH   4  15
HETATM   15  C   UNL     1      26.741  41.760  50.019  1.00  0.00     0.014 A 
HETATM   16  S   UNL     1      27.937  40.736  50.732  1.00  0.00    -0.104 SA
HETATM   17  C   UNL     1      28.579  40.297  49.212  1.00  0.00     0.050 A 
HETATM   18  C   UNL     1      27.930  40.925  48.177  1.00  0.00     0.008 A 
HETATM   19  C   UNL     1      26.885  41.776  48.640  1.00  0.00     0.017 A 
ENDBRANCH   4  15
ENDBRANCH   2   4
BRANCH   2  20
HETATM   20  C   UNL     1      26.953  44.619  50.270  1.00  0.00     0.165 C 
BRANCH  20  21
HETATM   21  C   UNL     1      26.314  45.943  49.920  1.00  0.00    -0.037 A 
HETATM   22  C   UNL     1      24.918  46.052  49.828  1.00  0.00     0.048 A 
HETATM   23  C   UNL     1      24.382  47.295  49.564  1.00  0.00     0.105 A 
HETATM   24  C   UNL     1      25.174  48.404  49.379  1.00  0.00     0.105 A 
HETATM   25  O   UNL     1      23.056  47.585  49.471  1.00  0.00    -0.323 OA
HETATM   26  O   UNL     1      24.447  49.529  49.144  1.00  0.00    -0.323 OA
HETATM   27  C   UNL     1      26.548  48.334  49.445  1.00  0.00     0.040 A 
HETATM   28  C   UNL     1      23.105  49.006  49.230  1.00  0.00     0.352 A 
HETATM   29  C   UNL     1      27.121  47.090  49.722  1.00  0.00     0.012 A 
ENDBRANCH  20  21
ENDBRANCH   2  20
BRANCH   1  30
HETATM   30  C   UNL     1      26.902  45.489  53.114  1.00  0.00     0.144 C 
BRANCH  30  31
HETATM   31  C   UNL     1      27.743  45.638  54.346  1.00  0.00    -0.021 A 
HETATM   32  C   UNL     1      28.860  44.861  54.809  1.00  0.00    -0.001 A 
HETATM   33  C   UNL     1      29.549  43.722  54.338  1.00  0.00     0.014 A 
HETATM   34  C   UNL     1      29.323  45.460  55.985  1.00  0.00     0.042 A 
HETATM   35  C   UNL     1      30.673  43.252  55.029  1.00  0.00     0.001 A 
HETATM   36  C   UNL     1      31.111  43.881  56.188  1.00  0.00     0.002 A 
HETATM   37  C   UNL     1      30.437  44.994  56.694  1.00  0.00     0.030 A 
HETATM   38  N   UNL     1      28.496  46.522  56.257  1.00  0.00    -0.365 N 
HETATM   39  H   UNL     1      28.590  47.129  57.060  1.00  0.00     0.165 HD
HETATM   40  C   UNL     1      27.549  46.641  55.281  1.00  0.00     0.097 A 
ENDBRANCH  30  31
ENDBRANCH   1  30
TORSDOF 8
ENDMDL
MODEL 2
REMARK VINA RESULT:      -9.5      1.897      3.419
REMARK  8 active torsions:
REMARK  status: ('A' for Active; 'I' for Inactive)
REMARK    1  A    between atoms: C_8  and  C_9 
REMARK    2  A    between atoms: C_9  and  C_10 
REMARK       I    between atoms: C_10  and  N_11 
REMARK    3  A    between atoms: N_11  and  C_12 
REMARK    4  A    between atoms: N_11  and  C_27 
REMARK    5  A    between atoms: C_12  and  C_13 
REMARK    6  A    between atoms: C_12  and  C_22 
REMARK       I    between atoms: C_13  and  N_14 
REMARK    7  A    between atoms: N_14  and  C_15 
REMARK    8  A    between atoms: C_27  and  C_28 
ROOT
HETATM    1  C   UNL     1      25.830  44.761  52.437  1.00  0.00     0.225 C 
HETATM    2  N   UNL     1      25.671  45.617  51.341  1.00  0.00    -0.330 N 
HETATM    3  O   UNL     1      25.962  43.541  52.296  1.00  0.00    -0.273 OA
ENDROOT
BRANCH   2   4
HETATM    4  C   UNL     1      25.653  44.998  49.995  1.00  0.00     0.219 C 
BRANCH   4   5
HETATM    5  C   UNL     1      26.886  44.079  49.768  1.00  0.00     0.246 C 
HETATM    6  N   UNL     1      26.630  42.756  49.460  1.00  0.00    -0.354 N 
HETATM    7  H   UNL     1      25.735  42.433  49.825  1.00  0.00     0.162 HD
HETATM    8  O   UNL     1      28.028  44.506  49.952  1.00  0.00    -0.271 OA
BRANCH   6   9
HETATM    9  C   UNL     1      27.683  41.747  49.382  1.00  0.00     0.084 C 
HETATM   10  C   UNL     1      27.496  40.702  50.496  1.00  0.00     0.025 C 
HETATM   11  C   UNL     1      26.300  39.782  50.246  1.00  0.00     0.002 C 
HETATM   12  C   UNL     1      26.382  39.109  48.880  1.00  0.00     0.000 C 
HETATM   13  C   UNL     1      26.551  40.131  47.761  1.00  0.00     0.002 C 
HETATM   14  C   UNL     1      27.749  41.044  48.014  1.00  0.00     0.025 C 
ENDBRANCH   6   9
ENDBRANCH   4   5
BRANCH   4  15
HETATM   15  C   UNL     1      24.308  44.382  49.631  1.00  0.00     0.014 A 
HETATM   16  S   UNL     1      23.528  44.898  48.177  1.00  0.00    -0.104 SA
HETATM   17  C   UNL     1      22.192  43.868  48.435  1.00  0.00     0.050 A 
HETATM   18  C   UNL     1      22.305  43.160  49.607  1.00  0.00     0.008 A 
HETATM   19  C   UNL     1      23.511  43.467  50.301  1.00  0.00     0.017 A 
ENDBRANCH   4  15
ENDBRANCH   2   4
BRANCH   2  20
HETATM   20  C   UNL     1      26.136  47.006  51.414  1.00  0.00     0.165 C 
BRANCH  20  21
HETATM   21  C   UNL     1      25.671  47.891  50.281  1.00  0.00    -0.037 A 
HETATM   22  C   UNL     1      24.300  48.077  50.046  1.00  0.00     0.048 A 
HETATM   23  C   UNL     1      23.927  48.941  49.038  1.00  0.00     0.105 A 
HETATM   24  C   UNL     1      24.854  49.601  48.266  1.00  0.00     0.105 A 
HETATM   25  O   UNL     1      22.649  49.258  48.696  1.00  0.00    -0.323 OA
HETATM   26  O   UNL     1      24.278  50.413  47.341  1.00  0.00    -0.323 OA
HETATM   27  C   UNL     1      26.209  49.432  48.455  1.00  0.00     0.040 A 
HETATM   28  C   UNL     1      22.881  50.210  47.637  1.00  0.00     0.352 A 
HETATM   29  C   UNL     1      26.617  48.571  49.477  1.00  0.00     0.012 A 
ENDBRANCH  20  21
ENDBRANCH   2  20
BRANCH   1  30
HETATM   30  C   UNL     1      25.702  45.340  53.838  1.00  0.00     0.144 C 
BRANCH  30  31
HETATM   31  C   UNL     1      26.967  45.607  54.597  1.00  0.00    -0.021 A 
HETATM   32  C   UNL     1      28.116  44.772  54.812  1.00  0.00    -0.001 A 
HETATM   33  C   UNL     1      28.480  43.459  54.442  1.00  0.00     0.014 A 
HETATM   34  C   UNL     1      29.045  45.523  55.539  1.00  0.00     0.042 A 
HETATM   35  C   UNL     1      29.747  42.965  54.778  1.00  0.00     0.001 A 
HETATM   36  C   UNL     1      30.649  43.747  55.491  1.00  0.00     0.002 A 
HETATM   37  C   UNL     1      30.310  45.040  55.894  1.00  0.00     0.030 A 
HETATM   38  N   UNL     1      28.471  46.742  55.801  1.00  0.00    -0.365 N 
HETATM   39  H   UNL     1      28.915  47.483  56.325  1.00  0.00     0.165 HD
HETATM   40  C   UNL     1      27.228  46.806  55.240  1.00  0.00     0.097 A 
ENDBRANCH  30  31
ENDBRANCH   1  30
TORSDOF 8
ENDMDL
MODEL 3
REMARK VINA RESULT:      -9.2      1.722      6.072
REMARK  8 active torsions:
REMARK  status: ('A' for Active; 'I' for Inactive)
REMARK    1  A    between atoms: C_8  and  C_9 
REMARK    2  A    between atoms: C_9  and  C_10 
REMARK       I    between atoms: C_10  and  N_11 
REMARK    3  A    between atoms: N_11  and  C_12 
REMARK    4  A    between atoms: N_11  and  C_27 
REMARK    5  A    between atoms: C_12  and  C_13 
REMARK    6  A    between atoms: C_12  and  C_22 
REMARK       I    between atoms: C_13  and  N_14 
REMARK    7  A    between atoms: N_14  and  C_15 
REMARK    8  A    between atoms: C_27  and  C_28 
ROOT
HETATM    1  C   UNL     1      25.692  45.260  50.423  1.00  0.00     0.225 C 
HETATM    2  N   UNL     1      25.643  44.255  51.397  1.00  0.00    -0.330 N 
HETATM    3  O   UNL     1      25.353  45.049  49.254  1.00  0.00    -0.273 OA
ENDROOT
BRANCH   2   4
HETATM    4  C   UNL     1      25.179  42.916  50.966  1.00  0.00     0.219 C 
BRANCH   4   5
HETATM    5  C   UNL     1      23.777  42.980  50.298  1.00  0.00     0.246 C 
HETATM    6  N   UNL     1      23.682  42.511  49.001  1.00  0.00    -0.354 N 
HETATM    7  H   UNL     1      24.561  42.578  48.493  1.00  0.00     0.162 HD
HETATM    8  O   UNL     1      22.830  43.516  50.879  1.00  0.00    -0.271 OA
BRANCH   6   9
HETATM    9  C   UNL     1      22.472  42.659  48.197  1.00  0.00     0.084 C 
HETATM   10  C   UNL     1      22.482  44.017  47.474  1.00  0.00     0.025 C 
HETATM   11  C   UNL     1      23.503  44.072  46.336  1.00  0.00     0.002 C 
HETATM   12  C   UNL     1      23.302  42.931  45.344  1.00  0.00     0.000 C 
HETATM   13  C   UNL     1      23.306  41.575  46.040  1.00  0.00     0.002 C 
HETATM   14  C   UNL     1      22.282  41.526  47.172  1.00  0.00     0.025 C 
ENDBRANCH   6   9
ENDBRANCH   4   5
BRANCH   4  15
HETATM   15  C   UNL     1      26.232  42.130  50.193  1.00  0.00     0.014 A 
HETATM   16  S   UNL     1      27.270  41.059  51.066  1.00  0.00    -0.104 SA
HETATM   17  C   UNL     1      28.108  40.594  49.653  1.00  0.00     0.050 A 
HETATM   18  C   UNL     1      27.642  41.249  48.538  1.00  0.00     0.008 A 
HETATM   19  C   UNL     1      26.576  42.141  48.851  1.00  0.00     0.017 A 
ENDBRANCH   4  15
ENDBRANCH   2   4
BRANCH   2  20
HETATM   20  C   UNL     1      25.422  44.601  52.805  1.00  0.00     0.165 C 
BRANCH  20  21
HETATM   21  C   UNL     1      26.677  44.679  53.643  1.00  0.00    -0.037 A 
HETATM   22  C   UNL     1      27.515  43.560  53.768  1.00  0.00     0.048 A 
HETATM   23  C   UNL     1      28.679  43.701  54.495  1.00  0.00     0.105 A 
HETATM   24  C   UNL     1      29.019  44.888  55.100  1.00  0.00     0.105 A 
HETATM   25  O   UNL     1      29.614  42.733  54.691  1.00  0.00    -0.323 OA
HETATM   26  O   UNL     1      30.208  44.817  55.754  1.00  0.00    -0.323 OA
HETATM   27  C   UNL     1      28.214  46.004  55.015  1.00  0.00     0.040 A 
HETATM   28  C   UNL     1      30.592  43.456  55.468  1.00  0.00     0.352 A 
HETATM   29  C   UNL     1      27.033  45.895  54.274  1.00  0.00     0.012 A 
ENDBRANCH  20  21
ENDBRANCH   2  20
BRANCH   1  30
HETATM   30  C   UNL     1      26.306  46.602  50.790  1.00  0.00     0.144 C 
BRANCH  30  31
HETATM   31  C   UNL     1      26.163  47.723  49.805  1.00  0.00    -0.021 A 
HETATM   32  C   UNL     1      24.988  48.402  49.332  1.00  0.00    -0.001 A 
HETATM   33  C   UNL     1      23.602  48.283  49.570  1.00  0.00     0.014 A 
HETATM   34  C   UNL     1      25.413  49.413  48.464  1.00  0.00     0.042 A 
HETATM   35  C   UNL     1      22.711  49.181  48.968  1.00  0.00     0.001 A 
HETATM   36  C   UNL     1      23.173  50.181  48.121  1.00  0.00     0.002 A 
HETATM   37  C   UNL     1      24.535  50.311  47.846  1.00  0.00     0.030 A 
HETATM   38  N   UNL     1      26.780  49.324  48.371  1.00  0.00    -0.365 N 
HETATM   39  H   UNL     1      27.355  49.926  47.798  1.00  0.00     0.165 HD
HETATM   40  C   UNL     1      27.242  48.319  49.171  1.00  0.00     0.097 A 
ENDBRANCH  30  31
ENDBRANCH   1  30
TORSDOF 8
ENDMDL
MODEL 4
REMARK VINA RESULT:      -9.2      2.373      5.856
REMARK  8 active torsions:
REMARK  status: ('A' for Active; 'I' for Inactive)
REMARK    1  A    between atoms: C_8  and  C_9 
REMARK    2  A    between atoms: C_9  and  C_10 
REMARK       I    between atoms: C_10  and  N_11 
REMARK    3  A    between atoms: N_11  and  C_12 
REMARK    4  A    between atoms: N_11  and  C_27 
REMARK    5  A    between atoms: C_12  and  C_13 
REMARK    6  A    between atoms: C_12  and  C_22 
REMARK       I    between atoms: C_13  and  N_14 
REMARK    7  A    between atoms: N_14  and  C_15 
REMARK    8  A    between atoms: C_27  and  C_28 
ROOT
HETATM    1  C   UNL     1      25.247  44.808  51.846  1.00  0.00     0.225 C 
HETATM    2  N   UNL     1      25.262  45.449  50.601  1.00  0.00    -0.330 N 
HETATM    3  O   UNL     1      24.259  44.848  52.586  1.00  0.00    -0.273 OA
ENDROOT
BRANCH   2   4
HETATM    4  C   UNL     1      24.044  46.193  50.208  1.00  0.00     0.219 C 
BRANCH   4   5
HETATM    5  C   UNL     1      24.334  47.708  50.008  1.00  0.00     0.246 C 
HETATM    6  N   UNL     1      23.269  48.502  49.627  1.00  0.00    -0.354 N 
HETATM    7  H   UNL     1      22.555  47.985  49.118  1.00  0.00     0.162 HD
HETATM    8  O   UNL     1      25.486  48.141  50.099  1.00  0.00    -0.271 OA
BRANCH   6   9
HETATM    9  C   UNL     1      23.429  49.904  49.247  1.00  0.00     0.084 C 
HETATM   10  C   UNL     1      23.108  50.085  47.753  1.00  0.00     0.025 C 
HETATM   11  C   UNL     1      21.614  49.950  47.451  1.00  0.00     0.002 C 
HETATM   12  C   UNL     1      20.779  50.899  48.304  1.00  0.00     0.000 C 
HETATM   13  C   UNL     1      21.072  50.723  49.790  1.00  0.00     0.002 C 
HETATM   14  C   UNL     1      22.564  50.862  50.086  1.00  0.00     0.025 C 
ENDBRANCH   6   9
ENDBRANCH   4   5
BRANCH   4  15
HETATM   15  C   UNL     1      23.265  45.528  49.080  1.00  0.00     0.014 A 
HETATM   16  S   UNL     1      22.156  44.263  49.475  1.00  0.00    -0.104 SA
HETATM   17  C   UNL     1      21.718  44.029  47.841  1.00  0.00     0.050 A 
HETATM   18  C   UNL     1      22.410  44.865  46.998  1.00  0.00     0.008 A 
HETATM   19  C   UNL     1      23.308  45.714  47.707  1.00  0.00     0.017 A 
ENDBRANCH   4  15
ENDBRANCH   2   4
BRANCH   2  20
HETATM   20  C   UNL     1      26.086  44.922  49.509  1.00  0.00     0.165 C 
BRANCH  20  21
HETATM   21  C   UNL     1      26.153  43.414  49.435  1.00  0.00    -0.037 A 
HETATM   22  C   UNL     1      27.351  42.744  49.730  1.00  0.00     0.048 A 
HETATM   23  C   UNL     1      27.344  41.365  49.706  1.00  0.00     0.105 A 
HETATM   24  C   UNL     1      26.213  40.649  49.392  1.00  0.00     0.105 A 
HETATM   25  O   UNL     1      28.402  40.561  49.994  1.00  0.00    -0.323 OA
HETATM   26  O   UNL     1      26.417  39.306  49.438  1.00  0.00    -0.323 OA
HETATM   27  C   UNL     1      25.023  41.271  49.080  1.00  0.00     0.040 A 
HETATM   28  C   UNL     1      27.800  39.258  49.846  1.00  0.00     0.352 A 
HETATM   29  C   UNL     1      24.996  42.668  49.107  1.00  0.00     0.012 A 
ENDBRANCH  20  21
ENDBRANCH   2  20
BRANCH   1  30
HETATM   30  C   UNL     1      26.530  44.164  52.350  1.00  0.00     0.144 C 
BRANCH  30  31
HETATM   31  C   UNL     1      27.276  44.866  53.444  1.00  0.00    -0.021 A 
HETATM   32  C   UNL     1      28.430  44.455  54.195  1.00  0.00    -0.001 A 
HETATM   33  C   UNL     1      29.248  43.305  54.220  1.00  0.00     0.014 A 
HETATM   34  C   UNL     1      28.762  45.507  55.054  1.00  0.00     0.042 A 
HETATM   35  C   UNL     1      30.366  43.262  55.062  1.00  0.00     0.001 A 
HETATM   36  C   UNL     1      30.672  44.334  55.893  1.00  0.00     0.002 A 
HETATM   37  C   UNL     1      29.869  45.475  55.911  1.00  0.00     0.030 A 
HETATM   38  N   UNL     1      27.826  46.495  54.873  1.00  0.00    -0.365 N 
HETATM   39  H   UNL     1      27.814  47.371  55.378  1.00  0.00     0.165 HD
HETATM   40  C   UNL     1      26.933  46.125  53.910  1.00  0.00     0.097 A 
ENDBRANCH  30  31
ENDBRANCH   1  30
TORSDOF 8
ENDMDL
MODEL 5
REMARK VINA RESULT:      -8.9     17.567     21.008
REMARK  8 active torsions:
REMARK  status: ('A' for Active; 'I' for Inactive)
REMARK    1  A    between atoms: C_8  and  C_9 
REMARK    2  A    between atoms: C_9  and  C_10 
REMARK       I    between atoms: C_10  and  N_11 
REMARK    3  A    between atoms: N_11  and  C_12 
REMARK    4  A    between atoms: N_11  and  C_27 
REMARK    5  A    between atoms: C_12  and  C_13 
REMARK    6  A    between atoms: C_12  and  C_22 
REMARK       I    between atoms: C_13  and  N_14 
REMARK    7  A    between atoms: N_14  and  C_15 
REMARK    8  A    between atoms: C_27  and  C_28 
ROOT
HETATM    1  C   UNL     1      36.535  44.982  65.138  1.00  0.00     0.225 C 
HETATM    2  N   UNL     1      37.328  45.788  65.963  1.00  0.00    -0.330 N 
HETATM    3  O   UNL     1      35.609  44.301  65.590  1.00  0.00    -0.273 OA
ENDROOT
BRANCH   2   4
HETATM    4  C   UNL     1      37.021  45.784  67.411  1.00  0.00     0.219 C 
BRANCH   4   5
HETATM    5  C   UNL     1      37.885  44.745  68.180  1.00  0.00     0.246 C 
HETATM    6  N   UNL     1      39.123  44.444  67.645  1.00  0.00    -0.354 N 
HETATM    7  H   UNL     1      39.161  44.586  66.638  1.00  0.00     0.162 HD
HETATM    8  O   UNL     1      37.429  44.158  69.165  1.00  0.00    -0.271 OA
BRANCH   6   9
HETATM    9  C   UNL     1      39.968  43.372  68.167  1.00  0.00     0.084 C 
HETATM   10  C   UNL     1      40.314  42.380  67.043  1.00  0.00     0.025 C 
HETATM   11  C   UNL     1      41.304  42.958  66.030  1.00  0.00     0.002 C 
HETATM   12  C   UNL     1      42.569  43.472  66.709  1.00  0.00     0.000 C 
HETATM   13  C   UNL     1      42.246  44.470  67.815  1.00  0.00     0.002 C 
HETATM   14  C   UNL     1      41.261  43.886  68.825  1.00  0.00     0.025 C 
ENDBRANCH   6   9
ENDBRANCH   4   5
BRANCH   4  15
HETATM   15  C   UNL     1      36.984  47.178  68.026  1.00  0.00     0.014 A 
HETATM   16  S   UNL     1      38.111  47.560  69.279  1.00  0.00    -0.104 SA
HETATM   17  C   UNL     1      37.500  49.144  69.454  1.00  0.00     0.050 A 
HETATM   18  C   UNL     1      36.445  49.386  68.608  1.00  0.00     0.008 A 
HETATM   19  C   UNL     1      36.139  48.253  67.800  1.00  0.00     0.017 A 
ENDBRANCH   4  15
ENDBRANCH   2   4
BRANCH   2  20
HETATM   20  C   UNL     1      37.948  47.006  65.430  1.00  0.00     0.165 C 
BRANCH  20  21
HETATM   21  C   UNL     1      39.459  47.008  65.446  1.00  0.00    -0.037 A 
HETATM   22  C   UNL     1      40.177  46.216  64.536  1.00  0.00     0.048 A 
HETATM   23  C   UNL     1      41.554  46.299  64.552  1.00  0.00     0.105 A 
HETATM   24  C   UNL     1      42.223  47.115  65.433  1.00  0.00     0.105 A 
HETATM   25  O   UNL     1      42.399  45.627  63.724  1.00  0.00    -0.323 OA
HETATM   26  O   UNL     1      43.571  47.058  65.274  1.00  0.00    -0.323 OA
HETATM   27  C   UNL     1      41.554  47.894  66.352  1.00  0.00     0.040 A 
HETATM   28  C   UNL     1      43.674  46.133  64.171  1.00  0.00     0.352 A 
HETATM   29  C   UNL     1      40.158  47.840  66.353  1.00  0.00     0.012 A 
ENDBRANCH  20  21
ENDBRANCH   2  20
BRANCH   1  30
HETATM   30  C   UNL     1      36.915  44.842  63.671  1.00  0.00     0.144 C 
BRANCH  30  31
HETATM   31  C   UNL     1      37.965  43.832  63.320  1.00  0.00    -0.021 A 
HETATM   32  C   UNL     1      38.160  42.489  63.794  1.00  0.00    -0.001 A 
HETATM   33  C   UNL     1      37.505  41.654  64.725  1.00  0.00     0.014 A 
HETATM   34  C   UNL     1      39.253  41.958  63.101  1.00  0.00     0.042 A 
HETATM   35  C   UNL     1      37.938  40.333  64.902  1.00  0.00     0.001 A 
HETATM   36  C   UNL     1      39.020  39.837  64.185  1.00  0.00     0.002 A 
HETATM   37  C   UNL     1      39.705  40.645  63.276  1.00  0.00     0.030 A 
HETATM   38  N   UNL     1      39.736  42.946  62.279  1.00  0.00    -0.365 N 
HETATM   39  H   UNL     1      40.535  42.843  61.670  1.00  0.00     0.165 HD
HETATM   40  C   UNL     1      38.972  44.071  62.398  1.00  0.00     0.097 A 
ENDBRANCH  30  31
ENDBRANCH   1  30
TORSDOF 8
ENDMDL
MODEL 6
REMARK VINA RESULT:      -8.6      8.057     13.434
REMARK  8 active torsions:
REMARK  status: ('A' for Active; 'I' for Inactive)
REMARK    1  A    between atoms: C_8  and  C_9 
REMARK    2  A    between atoms: C_9  and  C_10 
REMARK       I    between atoms: C_10  and  N_11 
REMARK    3  A    between atoms: N_11  and  C_12 
REMARK    4  A    between atoms: N_11  and  C_27 
REMARK    5  A    between atoms: C_12  and  C_13 
REMARK    6  A    between atoms: C_12  and  C_22 
REMARK       I    between atoms: C_13  and  N_14 
REMARK    7  A    between atoms: N_14  and  C_15 
REMARK    8  A    between atoms: C_27  and  C_28 
ROOT
HETATM    1  C   UNL     1      17.337  50.616  45.166  1.00  0.00     0.225 C 
HETATM    2  N   UNL     1      17.412  50.810  46.550  1.00  0.00    -0.330 N 
HETATM    3  O   UNL     1      16.310  50.196  44.623  1.00  0.00    -0.273 OA
ENDROOT
BRANCH   2   4
HETATM    4  C   UNL     1      16.209  50.476  47.347  1.00  0.00     0.219 C 
BRANCH   4   5
HETATM    5  C   UNL     1      16.332  49.078  48.016  1.00  0.00     0.246 C 
HETATM    6  N   UNL     1      17.581  48.486  48.002  1.00  0.00    -0.354 N 
HETATM    7  H   UNL     1      18.156  48.799  47.223  1.00  0.00     0.162 HD
HETATM    8  O   UNL     1      15.330  48.500  48.447  1.00  0.00    -0.271 OA
BRANCH   6   9
HETATM    9  C   UNL     1      17.807  47.113  48.445  1.00  0.00     0.084 C 
HETATM   10  C   UNL     1      17.484  46.131  47.306  1.00  0.00     0.025 C 
HETATM   11  C   UNL     1      18.523  46.168  46.183  1.00  0.00     0.002 C 
HETATM   12  C   UNL     1      19.934  45.936  46.715  1.00  0.00     0.000 C 
HETATM   13  C   UNL     1      20.278  46.912  47.835  1.00  0.00     0.002 C 
HETATM   14  C   UNL     1      19.239  46.867  48.954  1.00  0.00     0.025 C 
ENDBRANCH   6   9
ENDBRANCH   4   5
BRANCH   4  15
HETATM   15  C   UNL     1      15.765  51.602  48.274  1.00  0.00     0.014 A 
HETATM   16  S   UNL     1      14.948  52.962  47.589  1.00  0.00    -0.104 SA
HETATM   17  C   UNL     1      14.795  53.732  49.106  1.00  0.00     0.050 A 
HETATM   18  C   UNL     1      15.370  53.000  50.116  1.00  0.00     0.008 A 
HETATM   19  C   UNL     1      15.941  51.785  49.636  1.00  0.00     0.017 A 
ENDBRANCH   4  15
ENDBRANCH   2   4
BRANCH   2  20
HETATM   20  C   UNL     1      18.299  51.837  47.106  1.00  0.00     0.165 C 
BRANCH  20  21
HETATM   21  C   UNL     1      19.471  51.304  47.896  1.00  0.00    -0.037 A 
HETATM   22  C   UNL     1      20.501  50.603  47.248  1.00  0.00     0.048 A 
HETATM   23  C   UNL     1      21.577  50.189  48.003  1.00  0.00     0.105 A 
HETATM   24  C   UNL     1      21.654  50.433  49.354  1.00  0.00     0.105 A 
HETATM   25  O   UNL     1      22.669  49.527  47.534  1.00  0.00    -0.323 OA
HETATM   26  O   UNL     1      22.800  49.954  49.905  1.00  0.00    -0.323 OA
HETATM   27  C   UNL     1      20.656  51.103  50.029  1.00  0.00     0.040 A 
HETATM   28  C   UNL     1      23.450  49.404  48.740  1.00  0.00     0.352 A 
HETATM   29  C   UNL     1      19.558  51.545  49.288  1.00  0.00     0.012 A 
ENDBRANCH  20  21
ENDBRANCH   2  20
BRANCH   1  30
HETATM   30  C   UNL     1      18.597  50.803  44.334  1.00  0.00     0.144 C 
BRANCH  30  31
HETATM   31  C   UNL     1      18.438  50.902  42.847  1.00  0.00    -0.021 A 
HETATM   32  C   UNL     1      17.821  51.922  42.043  1.00  0.00    -0.001 A 
HETATM   33  C   UNL     1      17.150  53.135  42.311  1.00  0.00     0.014 A 
HETATM   34  C   UNL     1      17.998  51.560  40.705  1.00  0.00     0.042 A 
HETATM   35  C   UNL     1      16.717  53.941  41.251  1.00  0.00     0.001 A 
HETATM   36  C   UNL     1      16.923  53.554  39.932  1.00  0.00     0.002 A 
HETATM   37  C   UNL     1      17.560  52.348  39.634  1.00  0.00     0.030 A 
HETATM   38  N   UNL     1      18.647  50.350  40.690  1.00  0.00    -0.365 N 
HETATM   39  H   UNL     1      18.894  49.843  39.851  1.00  0.00     0.165 HD
HETATM   40  C   UNL     1      18.919  49.948  41.966  1.00  0.00     0.097 A 
ENDBRANCH  30  31
ENDBRANCH   1  30
TORSDOF 8
ENDMDL
MODEL 7
REMARK VINA RESULT:      -8.6      2.096      3.552
REMARK  8 active torsions:
REMARK  status: ('A' for Active; 'I' for Inactive)
REMARK    1  A    between atoms: C_8  and  C_9 
REMARK    2  A    between atoms: C_9  and  C_10 
REMARK       I    between atoms: C_10  and  N_11 
REMARK    3  A    between atoms: N_11  and  C_12 
REMARK    4  A    between atoms: N_11  and  C_27 
REMARK    5  A    between atoms: C_12  and  C_13 
REMARK    6  A    between atoms: C_12  and  C_22 
REMARK       I    between atoms: C_13  and  N_14 
REMARK    7  A    between atoms: N_14  and  C_15 
REMARK    8  A    between atoms: C_27  and  C_28 
ROOT
HETATM    1  C   UNL     1      26.693  44.007  51.282  1.00  0.00     0.225 C 
HETATM    2  N   UNL     1      25.447  44.291  50.710  1.00  0.00    -0.330 N 
HETATM    3  O   UNL     1      27.562  43.377  50.670  1.00  0.00    -0.273 OA
ENDROOT
BRANCH   2   4
HETATM    4  C   UNL     1      25.204  43.793  49.337  1.00  0.00     0.219 C 
BRANCH   4   5
HETATM    5  C   UNL     1      25.572  42.289  49.196  1.00  0.00     0.246 C 
HETATM    6  N   UNL     1      26.441  41.951  48.176  1.00  0.00    -0.354 N 
HETATM    7  H   UNL     1      26.408  42.606  47.398  1.00  0.00     0.162 HD
HETATM    8  O   UNL     1      25.028  41.442  49.911  1.00  0.00    -0.271 OA
BRANCH   6   9
HETATM    9  C   UNL     1      26.744  40.565  47.826  1.00  0.00     0.084 C 
HETATM   10  C   UNL     1      25.684  40.024  46.852  1.00  0.00     0.025 C 
HETATM   11  C   UNL     1      25.806  40.629  45.452  1.00  0.00     0.002 C 
HETATM   12  C   UNL     1      27.209  40.451  44.881  1.00  0.00     0.000 C 
HETATM   13  C   UNL     1      28.273  40.998  45.827  1.00  0.00     0.002 C 
HETATM   14  C   UNL     1      28.148  40.386  47.221  1.00  0.00     0.025 C 
ENDBRANCH   6   9
ENDBRANCH   4   5
BRANCH   4  15
HETATM   15  C   UNL     1      23.837  44.181  48.785  1.00  0.00     0.014 A 
HETATM   16  S   UNL     1      22.439  43.885  49.757  1.00  0.00    -0.104 SA
HETATM   17  C   UNL     1      21.385  44.514  48.570  1.00  0.00     0.050 A 
HETATM   18  C   UNL     1      22.059  44.919  47.444  1.00  0.00     0.008 A 
HETATM   19  C   UNL     1      23.465  44.713  47.561  1.00  0.00     0.017 A 
ENDBRANCH   4  15
ENDBRANCH   2   4
BRANCH   2  20
HETATM   20  C   UNL     1      24.707  45.492  51.109  1.00  0.00     0.165 C 
BRANCH  20  21
HETATM   21  C   UNL     1      25.014  46.727  50.295  1.00  0.00    -0.037 A 
HETATM   22  C   UNL     1      23.972  47.493  49.751  1.00  0.00     0.048 A 
HETATM   23  C   UNL     1      24.303  48.644  49.066  1.00  0.00     0.105 A 
HETATM   24  C   UNL     1      25.609  49.040  48.900  1.00  0.00     0.105 A 
HETATM   25  O   UNL     1      23.422  49.514  48.503  1.00  0.00    -0.323 OA
HETATM   26  O   UNL     1      25.715  50.206  48.209  1.00  0.00    -0.323 OA
HETATM   27  C   UNL     1      26.661  48.306  49.405  1.00  0.00     0.040 A 
HETATM   28  C   UNL     1      24.324  50.513  47.984  1.00  0.00     0.352 A 
HETATM   29  C   UNL     1      26.356  47.141  50.113  1.00  0.00     0.012 A 
ENDBRANCH  20  21
ENDBRANCH   2  20
BRANCH   1  30
HETATM   30  C   UNL     1      26.924  44.368  52.742  1.00  0.00     0.144 C 
BRANCH  30  31
HETATM   31  C   UNL     1      28.071  43.709  53.447  1.00  0.00    -0.021 A 
HETATM   32  C   UNL     1      28.954  44.215  54.462  1.00  0.00    -0.001 A 
HETATM   33  C   UNL     1      29.098  45.447  55.136  1.00  0.00     0.014 A 
HETATM   34  C   UNL     1      29.814  43.173  54.822  1.00  0.00     0.042 A 
HETATM   35  C   UNL     1      30.056  45.580  56.149  1.00  0.00     0.001 A 
HETATM   36  C   UNL     1      30.885  44.517  56.488  1.00  0.00     0.002 A 
HETATM   37  C   UNL     1      30.785  43.293  55.823  1.00  0.00     0.030 A 
HETATM   38  N   UNL     1      29.506  42.096  54.029  1.00  0.00    -0.365 N 
HETATM   39  H   UNL     1      29.982  41.205  54.064  1.00  0.00     0.165 HD
HETATM   40  C   UNL     1      28.462  42.403  53.204  1.00  0.00     0.097 A 
ENDBRANCH  30  31
ENDBRANCH   1  30
TORSDOF 8
ENDMDL
MODEL 8
REMARK VINA RESULT:      -8.5     17.756     20.220
REMARK  8 active torsions:
REMARK  status: ('A' for Active; 'I' for Inactive)
REMARK    1  A    between atoms: C_8  and  C_9 
REMARK    2  A    between atoms: C_9  and  C_10 
REMARK       I    between atoms: C_10  and  N_11 
REMARK    3  A    between atoms: N_11  and  C_12 
REMARK    4  A    between atoms: N_11  and  C_27 
REMARK    5  A    between atoms: C_12  and  C_13 
REMARK    6  A    between atoms: C_12  and  C_22 
REMARK       I    between atoms: C_13  and  N_14 
REMARK    7  A    between atoms: N_14  and  C_15 
REMARK    8  A    between atoms: C_27  and  C_28 
ROOT
HETATM    1  C   UNL     1      37.398  47.269  64.499  1.00  0.00     0.225 C 
HETATM    2  N   UNL     1      38.017  46.027  64.688  1.00  0.00    -0.330 N 
HETATM    3  O   UNL     1      36.352  47.384  63.852  1.00  0.00    -0.273 OA
ENDROOT
BRANCH   2   4
HETATM    4  C   UNL     1      37.372  44.848  64.066  1.00  0.00     0.219 C 
BRANCH   4   5
HETATM    5  C   UNL     1      38.414  43.905  63.403  1.00  0.00     0.246 C 
HETATM    6  N   UNL     1      38.905  42.872  64.179  1.00  0.00    -0.354 N 
HETATM    7  H   UNL     1      38.874  43.080  65.175  1.00  0.00     0.162 HD
HETATM    8  O   UNL     1      38.840  44.141  62.269  1.00  0.00    -0.271 OA
BRANCH   6   9
HETATM    9  C   UNL     1      40.003  42.012  63.744  1.00  0.00     0.084 C 
HETATM   10  C   UNL     1      40.993  41.796  64.902  1.00  0.00     0.025 C 
HETATM   11  C   UNL     1      40.431  40.887  65.997  1.00  0.00     0.002 C 
HETATM   12  C   UNL     1      39.956  39.552  65.433  1.00  0.00     0.000 C 
HETATM   13  C   UNL     1      38.960  39.747  64.294  1.00  0.00     0.002 C 
HETATM   14  C   UNL     1      39.529  40.651  63.203  1.00  0.00     0.025 C 
ENDBRANCH   6   9
ENDBRANCH   4   5
BRANCH   4  15
HETATM   15  C   UNL     1      36.361  44.161  64.976  1.00  0.00     0.014 A 
HETATM   16  S   UNL     1      36.114  42.459  64.802  1.00  0.00    -0.104 SA
HETATM   17  C   UNL     1      34.938  42.424  66.039  1.00  0.00     0.050 A 
HETATM   18  C   UNL     1      34.705  43.672  66.565  1.00  0.00     0.008 A 
HETATM   19  C   UNL     1      35.510  44.671  65.944  1.00  0.00     0.017 A 
ENDBRANCH   4  15
ENDBRANCH   2   4
BRANCH   2  20
HETATM   20  C   UNL     1      38.817  45.775  65.891  1.00  0.00     0.165 C 
BRANCH  20  21
HETATM   21  C   UNL     1      40.281  46.127  65.764  1.00  0.00    -0.037 A 
HETATM   22  C   UNL     1      41.036  45.634  64.688  1.00  0.00     0.048 A 
HETATM   23  C   UNL     1      42.352  46.032  64.585  1.00  0.00     0.105 A 
HETATM   24  C   UNL     1      42.931  46.874  65.506  1.00  0.00     0.105 A 
HETATM   25  O   UNL     1      43.214  45.676  63.595  1.00  0.00    -0.323 OA
HETATM   26  O   UNL     1      44.229  47.151  65.213  1.00  0.00    -0.323 OA
HETATM   27  C   UNL     1      42.228  47.365  66.584  1.00  0.00     0.040 A 
HETATM   28  C   UNL     1      44.394  46.409  63.987  1.00  0.00     0.352 A 
HETATM   29  C   UNL     1      40.888  46.988  66.709  1.00  0.00     0.012 A 
ENDBRANCH  20  21
ENDBRANCH   2  20
BRANCH   1  30
HETATM   30  C   UNL     1      38.110  48.521  64.992  1.00  0.00     0.144 C 
BRANCH  30  31
HETATM   31  C   UNL     1      37.657  49.109  66.294  1.00  0.00    -0.021 A 
HETATM   32  C   UNL     1      37.645  50.474  66.743  1.00  0.00    -0.001 A 
HETATM   33  C   UNL     1      38.043  51.711  66.192  1.00  0.00     0.014 A 
HETATM   34  C   UNL     1      37.065  50.487  68.016  1.00  0.00     0.042 A 
HETATM   35  C   UNL     1      37.821  52.896  66.905  1.00  0.00     0.001 A 
HETATM   36  C   UNL     1      37.230  52.870  68.162  1.00  0.00     0.002 A 
HETATM   37  C   UNL     1      36.848  51.661  68.746  1.00  0.00     0.030 A 
HETATM   38  N   UNL     1      36.782  49.186  68.350  1.00  0.00    -0.365 N 
HETATM   39  H   UNL     1      36.367  48.897  69.226  1.00  0.00     0.165 HD
HETATM   40  C   UNL     1      37.129  48.351  67.326  1.00  0.00     0.097 A 
ENDBRANCH  30  31
ENDBRANCH   1  30
TORSDOF 8
ENDMDL
MODEL 9
REMARK VINA RESULT:      -8.3     13.043     16.406
REMARK  8 active torsions:
REMARK  status: ('A' for Active; 'I' for Inactive)
REMARK    1  A    between atoms: C_8  and  C_9 
REMARK    2  A    between atoms: C_9  and  C_10 
REMARK       I    between atoms: C_10  and  N_11 
REMARK    3  A    between atoms: N_11  and  C_12 
REMARK    4  A    between atoms: N_11  and  C_27 
REMARK    5  A    between atoms: C_12  and  C_13 
REMARK    6  A    between atoms: C_12  and  C_22 
REMARK       I    between atoms: C_13  and  N_14 
REMARK    7  A    between atoms: N_14  and  C_15 
REMARK    8  A    between atoms: C_27  and  C_28 
ROOT
HETATM    1  C   UNL     1      34.504  50.544  41.595  1.00  0.00     0.225 C 
HETATM    2  N   UNL     1      35.041  51.324  40.564  1.00  0.00    -0.330 N 
HETATM    3  O   UNL     1      34.638  50.855  42.783  1.00  0.00    -0.273 OA
ENDROOT
BRANCH   2   4
HETATM    4  C   UNL     1      35.792  52.539  40.955  1.00  0.00     0.219 C 
BRANCH   4   5
HETATM    5  C   UNL     1      36.961  52.206  41.924  1.00  0.00     0.246 C 
HETATM    6  N   UNL     1      37.090  53.005  43.045  1.00  0.00    -0.354 N 
HETATM    7  H   UNL     1      36.709  53.939  42.908  1.00  0.00     0.162 HD
HETATM    8  O   UNL     1      37.780  51.328  41.639  1.00  0.00    -0.271 OA
BRANCH   6   9
HETATM    9  C   UNL     1      38.231  52.912  43.952  1.00  0.00     0.084 C 
HETATM   10  C   UNL     1      39.347  53.868  43.495  1.00  0.00     0.025 C 
HETATM   11  C   UNL     1      39.000  55.338  43.738  1.00  0.00     0.002 C 
HETATM   12  C   UNL     1      38.628  55.595  45.195  1.00  0.00     0.000 C 
HETATM   13  C   UNL     1      37.511  54.667  45.661  1.00  0.00     0.002 C 
HETATM   14  C   UNL     1      37.866  53.201  45.419  1.00  0.00     0.025 C 
ENDBRANCH   6   9
ENDBRANCH   4   5
BRANCH   4  15
HETATM   15  C   UNL     1      36.162  53.429  39.774  1.00  0.00     0.014 A 
HETATM   16  S   UNL     1      37.502  52.973  38.783  1.00  0.00    -0.104 SA
HETATM   17  C   UNL     1      37.320  54.338  37.773  1.00  0.00     0.050 A 
HETATM   18  C   UNL     1      36.287  55.147  38.181  1.00  0.00     0.008 A 
HETATM   19  C   UNL     1      35.633  54.633  39.338  1.00  0.00     0.017 A 
ENDBRANCH   4  15
ENDBRANCH   2   4
BRANCH   2  20
HETATM   20  C   UNL     1      34.399  51.350  39.246  1.00  0.00     0.165 C 
BRANCH  20  21
HETATM   21  C   UNL     1      32.944  51.757  39.256  1.00  0.00    -0.037 A 
HETATM   22  C   UNL     1      32.080  51.321  38.239  1.00  0.00     0.048 A 
HETATM   23  C   UNL     1      30.749  51.671  38.327  1.00  0.00     0.105 A 
HETATM   24  C   UNL     1      30.264  52.434  39.362  1.00  0.00     0.105 A 
HETATM   25  O   UNL     1      29.774  51.311  37.449  1.00  0.00    -0.323 OA
HETATM   26  O   UNL     1      28.926  52.653  39.266  1.00  0.00    -0.323 OA
HETATM   27  C   UNL     1      31.084  52.895  40.370  1.00  0.00     0.040 A 
HETATM   28  C   UNL     1      28.618  51.916  38.064  1.00  0.00     0.352 A 
HETATM   29  C   UNL     1      32.436  52.547  40.315  1.00  0.00     0.012 A 
ENDBRANCH  20  21
ENDBRANCH   2  20
BRANCH   1  30
HETATM   30  C   UNL     1      33.859  49.212  41.242  1.00  0.00     0.144 C 
BRANCH  30  31
HETATM   31  C   UNL     1      32.394  49.057  41.515  1.00  0.00    -0.021 A 
HETATM   32  C   UNL     1      31.333  48.592  40.665  1.00  0.00    -0.001 A 
HETATM   33  C   UNL     1      31.246  48.148  39.328  1.00  0.00     0.014 A 
HETATM   34  C   UNL     1      30.161  48.584  41.429  1.00  0.00     0.042 A 
HETATM   35  C   UNL     1      30.022  47.692  38.822  1.00  0.00     0.001 A 
HETATM   36  C   UNL     1      28.882  47.688  39.616  1.00  0.00     0.002 A 
HETATM   37  C   UNL     1      28.928  48.144  40.935  1.00  0.00     0.030 A 
HETATM   38  N   UNL     1      30.480  49.071  42.672  1.00  0.00    -0.365 N 
HETATM   39  H   UNL     1      29.819  49.189  43.428  1.00  0.00     0.165 HD
HETATM   40  C   UNL     1      31.814  49.354  42.738  1.00  0.00     0.097 A 
ENDBRANCH  30  31
ENDBRANCH   1  30
TORSDOF 8
ENDMDL
MODEL 10
REMARK VINA RESULT:      -8.2     10.805     12.701
REMARK  8 active torsions:
REMARK  status: ('A' for Active; 'I' for Inactive)
REMARK    1  A    between atoms: C_8  and  C_9 
REMARK    2  A    between atoms: C_9  and  C_10 
REMARK       I    between atoms: C_10  and  N_11 
REMARK    3  A    between atoms: N_11  and  C_12 
REMARK    4  A    between atoms: N_11  and  C_27 
REMARK    5  A    between atoms: C_12  and  C_13 
REMARK    6  A    between atoms: C_12  and  C_22 
REMARK       I    between atoms: C_13  and  N_14 
REMARK    7  A    between atoms: N_14  and  C_15 
REMARK    8  A    between atoms: C_27  and  C_28 
ROOT
HETATM    1  C   UNL     1      27.974  47.250  39.310  1.00  0.00     0.225 C 
HETATM    2  N   UNL     1      26.698  47.672  39.705  1.00  0.00    -0.330 N 
HETATM    3  O   UNL     1      28.179  46.754  38.197  1.00  0.00    -0.273 OA
ENDROOT
BRANCH   2   4
HETATM    4  C   UNL     1      25.594  47.488  38.736  1.00  0.00     0.219 C 
BRANCH   4   5
HETATM    5  C   UNL     1      25.302  45.983  38.475  1.00  0.00     0.246 C 
HETATM    6  N   UNL     1      25.689  45.092  39.458  1.00  0.00    -0.354 N 
HETATM    7  H   UNL     1      26.470  45.435  40.014  1.00  0.00     0.162 HD
HETATM    8  O   UNL     1      24.833  45.615  37.394  1.00  0.00    -0.271 OA
BRANCH   6   9
HETATM    9  C   UNL     1      25.626  43.644  39.277  1.00  0.00     0.084 C 
HETATM   10  C   UNL     1      26.923  43.138  38.620  1.00  0.00     0.025 C 
HETATM   11  C   UNL     1      28.122  43.184  39.570  1.00  0.00     0.002 C 
HETATM   12  C   UNL     1      27.842  42.432  40.867  1.00  0.00     0.000 C 
HETATM   13  C   UNL     1      26.568  42.931  41.541  1.00  0.00     0.002 C 
HETATM   14  C   UNL     1      25.375  42.880  40.590  1.00  0.00     0.025 C 
ENDBRANCH   6   9
ENDBRANCH   4   5
BRANCH   4  15
HETATM   15  C   UNL     1      24.370  48.342  39.044  1.00  0.00     0.014 A 
HETATM   16  S   UNL     1      23.196  47.736  40.158  1.00  0.00    -0.104 SA
HETATM   17  C   UNL     1      22.209  49.118  39.992  1.00  0.00     0.050 A 
HETATM   18  C   UNL     1      22.729  50.019  39.094  1.00  0.00     0.008 A 
HETATM   19  C   UNL     1      23.961  49.567  38.538  1.00  0.00     0.017 A 
ENDBRANCH   4  15
ENDBRANCH   2   4
BRANCH   2  20
HETATM   20  C   UNL     1      26.548  48.770  40.666  1.00  0.00     0.165 C 
BRANCH  20  21
HETATM   21  C   UNL     1      27.321  50.022  40.325  1.00  0.00    -0.037 A 
HETATM   22  C   UNL     1      28.000  50.730  41.330  1.00  0.00     0.048 A 
HETATM   23  C   UNL     1      28.740  51.832  40.957  1.00  0.00     0.105 A 
HETATM   24  C   UNL     1      28.814  52.251  39.650  1.00  0.00     0.105 A 
HETATM   25  O   UNL     1      29.479  52.611  41.793  1.00  0.00    -0.323 OA
HETATM   26  O   UNL     1      29.604  53.346  39.497  1.00  0.00    -0.323 OA
HETATM   27  C   UNL     1      28.149  51.592  38.638  1.00  0.00     0.040 A 
HETATM   28  C   UNL     1      30.043  53.553  40.856  1.00  0.00     0.352 A 
HETATM   29  C   UNL     1      27.399  50.464  38.983  1.00  0.00     0.012 A 
ENDBRANCH  20  21
ENDBRANCH   2  20
BRANCH   1  30
HETATM   30  C   UNL     1      29.101  47.282  40.331  1.00  0.00     0.144 C 
BRANCH  30  31
HETATM   31  C   UNL     1      30.196  48.284  40.124  1.00  0.00    -0.021 A 
HETATM   32  C   UNL     1      30.969  49.028  41.080  1.00  0.00    -0.001 A 
HETATM   33  C   UNL     1      30.992  49.124  42.488  1.00  0.00     0.014 A 
HETATM   34  C   UNL     1      31.904  49.781  40.363  1.00  0.00     0.042 A 
HETATM   35  C   UNL     1      31.952  49.927  43.117  1.00  0.00     0.001 A 
HETATM   36  C   UNL     1      32.873  50.652  42.370  1.00  0.00     0.002 A 
HETATM   37  C   UNL     1      32.861  50.599  40.975  1.00  0.00     0.030 A 
HETATM   38  N   UNL     1      31.680  49.548  39.028  1.00  0.00    -0.365 N 
HETATM   39  H   UNL     1      32.204  49.975  38.277  1.00  0.00     0.165 HD
HETATM   40  C   UNL     1      30.663  48.651  38.872  1.00  0.00     0.097 A 
ENDBRANCH  30  31
ENDBRANCH   1  30
TORSDOF 8
ENDMDL
