MODEL 1
REMARK VINA RESULT:      -9.2      0.000      0.000
REMARK  8 active torsions:
REMARK  status: ('A' for Active; 'I' for Inactive)
REMARK       I    between atoms: C_2  and  N_3 
REMARK    1  A    between atoms: N_3  and  C_4 
REMARK    2  A    between atoms: C_6  and  N_7 
REMARK    3  A    between atoms: N_7  and  C_8 
REMARK    4  A    between atoms: C_8  and  C_9 
REMARK       I    between atoms: C_9  and  N_10 
REMARK    5  A    between atoms: N_10  and  C_11 
REMARK    6  A    between atoms: C_12  and  C_13 
REMARK       I    between atoms: C_13  and  N_14 
REMARK    7  A    between atoms: N_14  and  C_15 
REMARK    8  A    between atoms: C_24  and  O_25 
ROOT
HETATM    1  C   UNL     1      25.049  46.035  51.485  1.00  0.00     0.235 C 
HETATM    2  N   UNL     1      25.268  46.377  50.158  1.00  0.00    -0.325 N 
HETATM    3  O   UNL     1      25.159  46.777  52.455  1.00  0.00    -0.272 OA
HETATM    4  H   UNL     1      24.914  45.719  49.474  1.00  0.00     0.169 HD
ENDROOT
BRANCH   1   5
HETATM    5  C   UNL     1      24.524  44.596  51.637  1.00  0.00     0.195 C 
BRANCH   5   6
HETATM    6  N   UNL     1      25.096  43.885  52.782  1.00  0.00    -0.282 NA
HETATM    7  H   UNL     1      24.752  44.290  53.658  1.00  0.00     0.128 HD
BRANCH   6   8
HETATM    8  C   UNL     1      26.485  43.702  52.893  1.00  0.00     0.044 A 
HETATM    9  C   UNL     1      27.241  44.254  53.942  1.00  0.00     0.055 A 
HETATM   10  C   UNL     1      28.596  43.953  54.122  1.00  0.00     0.036 A 
HETATM   11  C   UNL     1      29.234  43.117  53.204  1.00  0.00     0.032 A 
HETATM   12  C   UNL     1      28.511  42.554  52.154  1.00  0.00     0.041 A 
HETATM   13  C   UNL     1      27.154  42.845  51.995  1.00  0.00     0.089 A 
BRANCH  10  14
HETATM   14  N   UNL     1      29.360  44.423  55.214  1.00  0.00    -0.327 N 
HETATM   15  C   UNL     1      29.434  45.725  55.679  1.00  0.00     0.218 C 
HETATM   16  C   UNL     1      30.285  45.856  56.918  1.00  0.00     0.117 C 
HETATM   17  O   UNL     1      28.847  46.703  55.223  1.00  0.00    -0.274 OA
HETATM   18  H   UNL     1      29.788  43.706  55.788  1.00  0.00     0.169 HD
ENDBRANCH  10  14
BRANCH  13  19
HETATM   19  O   UNL     1      26.544  42.200  50.947  1.00  0.00    -0.354 OA
HETATM   20  C   UNL     1      26.953  42.693  49.671  1.00  0.00     0.210 C 
ENDBRANCH  13  19
ENDBRANCH   6   8
ENDBRANCH   5   6
ENDBRANCH   1   5
BRANCH   2  21
HETATM   21  C   UNL     1      25.622  47.644  49.637  1.00  0.00     0.050 A 
HETATM   22  C   UNL     1      24.772  48.632  49.119  1.00  0.00     0.058 A 
HETATM   23  C   UNL     1      25.329  49.789  48.530  1.00  0.00     0.019 A 
HETATM   24  C   UNL     1      26.707  49.991  48.489  1.00  0.00     0.001 A 
HETATM   25  C   UNL     1      27.549  49.045  49.054  1.00  0.00     0.002 A 
HETATM   26  C   UNL     1      27.011  47.890  49.627  1.00  0.00     0.030 A 
BRANCH  22  27
HETATM   27  C   UNL     1      23.294  48.681  49.230  1.00  0.00     0.254 C 
HETATM   28  N   UNL     1      22.720  49.941  49.278  1.00  0.00    -0.352 N 
HETATM   29  H   UNL     1      23.317  50.765  49.303  1.00  0.00     0.163 HD
HETATM   30  O   UNL     1      22.653  47.638  49.117  1.00  0.00    -0.268 OA
BRANCH  28  31
HETATM   31  C   UNL     1      21.300  50.097  49.203  1.00  0.00     0.084 A 
HETATM   32  C   UNL     1      20.599  51.105  50.069  1.00  0.00     0.027 A 
HETATM   33  C   UNL     1      20.661  51.307  48.584  1.00  0.00     0.027 A 
ENDBRANCH  28  31
ENDBRANCH  22  27
ENDBRANCH   2  21
TORSDOF 8
ENDMDL
MODEL 2
REMARK VINA RESULT:      -9.2      1.488      8.761
REMARK  8 active torsions:
REMARK  status: ('A' for Active; 'I' for Inactive)
REMARK       I    between atoms: C_2  and  N_3 
REMARK    1  A    between atoms: N_3  and  C_4 
REMARK    2  A    between atoms: C_6  and  N_7 
REMARK    3  A    between atoms: N_7  and  C_8 
REMARK    4  A    between atoms: C_8  and  C_9 
REMARK       I    between atoms: C_9  and  N_10 
REMARK    5  A    between atoms: N_10  and  C_11 
REMARK    6  A    between atoms: C_12  and  C_13 
REMARK       I    between atoms: C_13  and  N_14 
REMARK    7  A    between atoms: N_14  and  C_15 
REMARK    8  A    between atoms: C_24  and  O_25 
ROOT
HETATM    1  C   UNL     1      25.431  45.333  52.177  1.00  0.00     0.235 C 
HETATM    2  N   UNL     1      26.810  45.214  52.071  1.00  0.00    -0.325 N 
HETATM    3  O   UNL     1      24.665  44.508  52.661  1.00  0.00    -0.272 OA
HETATM    4  H   UNL     1      27.307  46.070  51.860  1.00  0.00     0.169 HD
ENDROOT
BRANCH   1   5
HETATM    5  C   UNL     1      24.928  46.709  51.705  1.00  0.00     0.195 C 
BRANCH   5   6
HETATM    6  N   UNL     1      24.304  46.679  50.381  1.00  0.00    -0.282 NA
HETATM    7  H   UNL     1      24.704  45.920  49.819  1.00  0.00     0.128 HD
BRANCH   6   8
HETATM    8  C   UNL     1      24.247  47.837  49.586  1.00  0.00     0.044 A 
HETATM    9  C   UNL     1      23.036  48.461  49.241  1.00  0.00     0.055 A 
HETATM   10  C   UNL     1      22.996  49.687  48.566  1.00  0.00     0.036 A 
HETATM   11  C   UNL     1      24.195  50.289  48.181  1.00  0.00     0.032 A 
HETATM   12  C   UNL     1      25.412  49.695  48.509  1.00  0.00     0.041 A 
HETATM   13  C   UNL     1      25.440  48.481  49.199  1.00  0.00     0.089 A 
BRANCH  10  14
HETATM   14  N   UNL     1      21.799  50.381  48.282  1.00  0.00    -0.327 N 
HETATM   15  C   UNL     1      20.971  51.019  49.190  1.00  0.00     0.218 C 
HETATM   16  C   UNL     1      19.815  51.730  48.530  1.00  0.00     0.117 C 
HETATM   17  O   UNL     1      21.133  51.095  50.406  1.00  0.00    -0.274 OA
HETATM   18  H   UNL     1      21.605  50.534  47.300  1.00  0.00     0.169 HD
ENDBRANCH  10  14
BRANCH  13  19
HETATM   19  O   UNL     1      26.698  48.015  49.497  1.00  0.00    -0.354 OA
HETATM   20  C   UNL     1      27.737  48.907  49.093  1.00  0.00     0.210 C 
ENDBRANCH  13  19
ENDBRANCH   6   8
ENDBRANCH   5   6
ENDBRANCH   1   5
BRANCH   2  21
HETATM   21  C   UNL     1      27.625  44.151  52.526  1.00  0.00     0.050 A 
HETATM   22  C   UNL     1      28.499  44.142  53.623  1.00  0.00     0.058 A 
HETATM   23  C   UNL     1      29.323  43.017  53.846  1.00  0.00     0.019 A 
HETATM   24  C   UNL     1      29.258  41.895  53.022  1.00  0.00     0.001 A 
HETATM   25  C   UNL     1      28.353  41.874  51.973  1.00  0.00     0.002 A 
HETATM   26  C   UNL     1      27.541  42.986  51.734  1.00  0.00     0.030 A 
BRANCH  22  27
HETATM   27  C   UNL     1      28.580  45.155  54.703  1.00  0.00     0.254 C 
HETATM   28  N   UNL     1      29.537  44.939  55.681  1.00  0.00    -0.352 N 
HETATM   29  H   UNL     1      30.089  44.084  55.665  1.00  0.00     0.163 HD
HETATM   30  O   UNL     1      27.925  46.191  54.599  1.00  0.00    -0.268 OA
BRANCH  28  31
HETATM   31  C   UNL     1      29.816  45.944  56.661  1.00  0.00     0.084 A 
HETATM   32  C   UNL     1      29.025  46.003  57.937  1.00  0.00     0.027 A 
HETATM   33  C   UNL     1      30.475  45.621  57.971  1.00  0.00     0.027 A 
ENDBRANCH  28  31
ENDBRANCH  22  27
ENDBRANCH   2  21
TORSDOF 8
ENDMDL
MODEL 3
REMARK VINA RESULT:      -8.9      1.639      2.069
REMARK  8 active torsions:
REMARK  status: ('A' for Active; 'I' for Inactive)
REMARK       I    between atoms: C_2  and  N_3 
REMARK    1  A    between atoms: N_3  and  C_4 
REMARK    2  A    between atoms: C_6  and  N_7 
REMARK    3  A    between atoms: N_7  and  C_8 
REMARK    4  A    between atoms: C_8  and  C_9 
REMARK       I    between atoms: C_9  and  N_10 
REMARK    5  A    between atoms: N_10  and  C_11 
REMARK    6  A    between atoms: C_12  and  C_13 
REMARK       I    between atoms: C_13  and  N_14 
REMARK    7  A    between atoms: N_14  and  C_15 
REMARK    8  A    between atoms: C_24  and  O_25 
ROOT
HETATM    1  C   UNL     1      24.883  45.270  50.223  1.00  0.00     0.235 C 
HETATM    2  N   UNL     1      24.776  46.603  50.593  1.00  0.00    -0.325 N 
HETATM    3  O   UNL     1      25.347  44.842  49.173  1.00  0.00    -0.272 OA
HETATM    4  H   UNL     1      24.585  46.769  51.574  1.00  0.00     0.169 HD
ENDROOT
BRANCH   1   5
HETATM    5  C   UNL     1      24.442  44.315  51.348  1.00  0.00     0.195 C 
BRANCH   5   6
HETATM    6  N   UNL     1      25.506  43.417  51.799  1.00  0.00    -0.282 NA
HETATM    7  H   UNL     1      25.106  42.531  52.128  1.00  0.00     0.128 HD
BRANCH   6   8
HETATM    8  C   UNL     1      26.461  43.847  52.736  1.00  0.00     0.044 A 
HETATM    9  C   UNL     1      26.384  45.093  53.380  1.00  0.00     0.055 A 
HETATM   10  C   UNL     1      27.260  45.455  54.411  1.00  0.00     0.036 A 
HETATM   11  C   UNL     1      28.275  44.571  54.781  1.00  0.00     0.032 A 
HETATM   12  C   UNL     1      28.377  43.327  54.161  1.00  0.00     0.041 A 
HETATM   13  C   UNL     1      27.485  42.969  53.147  1.00  0.00     0.089 A 
BRANCH  10  14
HETATM   14  N   UNL     1      27.153  46.663  55.135  1.00  0.00    -0.327 N 
HETATM   15  C   UNL     1      26.360  47.754  54.824  1.00  0.00     0.218 C 
HETATM   16  C   UNL     1      26.431  48.846  55.862  1.00  0.00     0.117 C 
HETATM   17  O   UNL     1      25.606  47.862  53.859  1.00  0.00    -0.274 OA
HETATM   18  H   UNL     1      27.606  46.671  56.042  1.00  0.00     0.169 HD
ENDBRANCH  10  14
BRANCH  13  19
HETATM   19  O   UNL     1      27.664  41.704  52.641  1.00  0.00    -0.354 OA
HETATM   20  C   UNL     1      29.037  41.318  52.569  1.00  0.00     0.210 C 
ENDBRANCH  13  19
ENDBRANCH   6   8
ENDBRANCH   5   6
ENDBRANCH   1   5
BRANCH   2  21
HETATM   21  C   UNL     1      25.207  47.740  49.871  1.00  0.00     0.050 A 
HETATM   22  C   UNL     1      24.427  48.633  49.122  1.00  0.00     0.058 A 
HETATM   23  C   UNL     1      25.062  49.645  48.368  1.00  0.00     0.019 A 
HETATM   24  C   UNL     1      26.446  49.803  48.383  1.00  0.00     0.001 A 
HETATM   25  C   UNL     1      27.217  48.960  49.169  1.00  0.00     0.002 A 
HETATM   26  C   UNL     1      26.603  47.947  49.910  1.00  0.00     0.030 A 
BRANCH  22  27
HETATM   27  C   UNL     1      22.948  48.738  49.122  1.00  0.00     0.254 C 
HETATM   28  N   UNL     1      22.419  50.012  48.998  1.00  0.00    -0.352 N 
HETATM   29  H   UNL     1      23.043  50.817  48.980  1.00  0.00     0.163 HD
HETATM   30  O   UNL     1      22.278  47.708  49.073  1.00  0.00    -0.268 OA
BRANCH  28  31
HETATM   31  C   UNL     1      21.014  50.202  48.806  1.00  0.00     0.084 A 
HETATM   32  C   UNL     1      20.459  51.577  48.559  1.00  0.00     0.027 A 
HETATM   33  C   UNL     1      20.431  50.549  47.466  1.00  0.00     0.027 A 
ENDBRANCH  28  31
ENDBRANCH  22  27
ENDBRANCH   2  21
TORSDOF 8
ENDMDL
MODEL 4
REMARK VINA RESULT:      -8.8      2.216      8.970
REMARK  8 active torsions:
REMARK  status: ('A' for Active; 'I' for Inactive)
REMARK       I    between atoms: C_2  and  N_3 
REMARK    1  A    between atoms: N_3  and  C_4 
REMARK    2  A    between atoms: C_6  and  N_7 
REMARK    3  A    between atoms: N_7  and  C_8 
REMARK    4  A    between atoms: C_8  and  C_9 
REMARK       I    between atoms: C_9  and  N_10 
REMARK    5  A    between atoms: N_10  and  C_11 
REMARK    6  A    between atoms: C_12  and  C_13 
REMARK       I    between atoms: C_13  and  N_14 
REMARK    7  A    between atoms: N_14  and  C_15 
REMARK    8  A    between atoms: C_24  and  O_25 
ROOT
HETATM    1  C   UNL     1      25.289  44.619  51.716  1.00  0.00     0.235 C 
HETATM    2  N   UNL     1      26.641  44.373  51.517  1.00  0.00    -0.325 N 
HETATM    3  O   UNL     1      24.621  44.268  52.681  1.00  0.00    -0.272 OA
HETATM    4  H   UNL     1      27.081  44.923  50.790  1.00  0.00     0.169 HD
ENDROOT
BRANCH   1   5
HETATM    5  C   UNL     1      24.691  45.511  50.613  1.00  0.00     0.195 C 
BRANCH   5   6
HETATM    6  N   UNL     1      24.737  46.940  50.931  1.00  0.00    -0.282 NA
HETATM    7  H   UNL     1      24.090  47.153  51.697  1.00  0.00     0.128 HD
BRANCH   6   8
HETATM    8  C   UNL     1      24.567  47.906  49.925  1.00  0.00     0.044 A 
HETATM    9  C   UNL     1      23.305  48.398  49.551  1.00  0.00     0.055 A 
HETATM   10  C   UNL     1      23.155  49.457  48.648  1.00  0.00     0.036 A 
HETATM   11  C   UNL     1      24.292  50.014  48.060  1.00  0.00     0.032 A 
HETATM   12  C   UNL     1      25.558  49.548  48.411  1.00  0.00     0.041 A 
HETATM   13  C   UNL     1      25.696  48.504  49.328  1.00  0.00     0.089 A 
BRANCH  10  14
HETATM   14  N   UNL     1      21.906  50.029  48.320  1.00  0.00    -0.327 N 
HETATM   15  C   UNL     1      21.105  50.808  49.139  1.00  0.00     0.218 C 
HETATM   16  C   UNL     1      19.873  51.321  48.436  1.00  0.00     0.117 C 
HETATM   17  O   UNL     1      21.342  51.138  50.298  1.00  0.00    -0.274 OA
HETATM   18  H   UNL     1      21.641  49.969  47.344  1.00  0.00     0.169 HD
ENDBRANCH  10  14
BRANCH  13  19
HETATM   19  O   UNL     1      26.994  48.160  49.620  1.00  0.00    -0.354 OA
HETATM   20  C   UNL     1      27.944  49.128  49.176  1.00  0.00     0.210 C 
ENDBRANCH  13  19
ENDBRANCH   6   8
ENDBRANCH   5   6
ENDBRANCH   1   5
BRANCH   2  21
HETATM   21  C   UNL     1      27.538  43.708  52.385  1.00  0.00     0.050 A 
HETATM   22  C   UNL     1      27.921  42.360  52.362  1.00  0.00     0.058 A 
HETATM   23  C   UNL     1      28.740  41.852  53.395  1.00  0.00     0.019 A 
HETATM   24  C   UNL     1      29.211  42.672  54.418  1.00  0.00     0.001 A 
HETATM   25  C   UNL     1      28.884  44.020  54.412  1.00  0.00     0.002 A 
HETATM   26  C   UNL     1      28.064  44.531  53.403  1.00  0.00     0.030 A 
BRANCH  22  27
HETATM   27  C   UNL     1      27.673  41.383  51.274  1.00  0.00     0.254 C 
HETATM   28  N   UNL     1      28.659  40.435  51.058  1.00  0.00    -0.352 N 
HETATM   29  H   UNL     1      29.526  40.480  51.591  1.00  0.00     0.163 HD
HETATM   30  O   UNL     1      26.568  41.360  50.735  1.00  0.00    -0.268 OA
BRANCH  28  31
HETATM   31  C   UNL     1      28.437  39.344  50.159  1.00  0.00     0.084 A 
HETATM   32  C   UNL     1      29.147  39.293  48.836  1.00  0.00     0.027 A 
HETATM   33  C   UNL     1      29.479  38.294  49.904  1.00  0.00     0.027 A 
ENDBRANCH  28  31
ENDBRANCH  22  27
ENDBRANCH   2  21
TORSDOF 8
ENDMDL
MODEL 5
REMARK VINA RESULT:      -8.7      1.580      3.581
REMARK  8 active torsions:
REMARK  status: ('A' for Active; 'I' for Inactive)
REMARK       I    between atoms: C_2  and  N_3 
REMARK    1  A    between atoms: N_3  and  C_4 
REMARK    2  A    between atoms: C_6  and  N_7 
REMARK    3  A    between atoms: N_7  and  C_8 
REMARK    4  A    between atoms: C_8  and  C_9 
REMARK       I    between atoms: C_9  and  N_10 
REMARK    5  A    between atoms: N_10  and  C_11 
REMARK    6  A    between atoms: C_12  and  C_13 
REMARK       I    between atoms: C_13  and  N_14 
REMARK    7  A    between atoms: N_14  and  C_15 
REMARK    8  A    between atoms: C_24  and  O_25 
ROOT
HETATM    1  C   UNL     1      25.341  45.432  50.413  1.00  0.00     0.235 C 
HETATM    2  N   UNL     1      25.267  46.777  50.745  1.00  0.00    -0.325 N 
HETATM    3  O   UNL     1      25.692  44.967  49.334  1.00  0.00    -0.272 OA
HETATM    4  H   UNL     1      25.182  46.978  51.733  1.00  0.00     0.169 HD
ENDROOT
BRANCH   1   5
HETATM    5  C   UNL     1      25.030  44.518  51.612  1.00  0.00     0.195 C 
BRANCH   5   6
HETATM    6  N   UNL     1      25.965  44.683  52.727  1.00  0.00    -0.282 NA
HETATM    7  H   UNL     1      26.255  45.664  52.804  1.00  0.00     0.128 HD
BRANCH   6   8
HETATM    8  C   UNL     1      27.108  43.873  52.834  1.00  0.00     0.044 A 
HETATM    9  C   UNL     1      27.269  42.687  52.097  1.00  0.00     0.055 A 
HETATM   10  C   UNL     1      28.466  41.962  52.105  1.00  0.00     0.036 A 
HETATM   11  C   UNL     1      29.521  42.401  52.907  1.00  0.00     0.032 A 
HETATM   12  C   UNL     1      29.392  43.573  53.649  1.00  0.00     0.041 A 
HETATM   13  C   UNL     1      28.199  44.300  53.619  1.00  0.00     0.089 A 
BRANCH  10  14
HETATM   14  N   UNL     1      28.688  40.816  51.308  1.00  0.00    -0.327 N 
HETATM   15  C   UNL     1      28.246  40.604  50.013  1.00  0.00     0.218 C 
HETATM   16  C   UNL     1      28.734  39.299  49.435  1.00  0.00     0.117 C 
HETATM   17  O   UNL     1      27.583  41.378  49.327  1.00  0.00    -0.274 OA
HETATM   18  H   UNL     1      29.347  40.144  51.683  1.00  0.00     0.169 HD
ENDBRANCH  10  14
BRANCH  13  19
HETATM   19  O   UNL     1      28.208  45.456  54.361  1.00  0.00    -0.354 OA
HETATM   20  C   UNL     1      29.127  45.415  55.452  1.00  0.00     0.210 C 
ENDBRANCH  13  19
ENDBRANCH   6   8
ENDBRANCH   5   6
ENDBRANCH   1   5
BRANCH   2  21
HETATM   21  C   UNL     1      25.611  47.888  49.940  1.00  0.00     0.050 A 
HETATM   22  C   UNL     1      24.756  48.705  49.186  1.00  0.00     0.058 A 
HETATM   23  C   UNL     1      25.306  49.698  48.345  1.00  0.00     0.019 A 
HETATM   24  C   UNL     1      26.680  49.912  48.278  1.00  0.00     0.001 A 
HETATM   25  C   UNL     1      27.527  49.148  49.066  1.00  0.00     0.002 A 
HETATM   26  C   UNL     1      26.996  48.154  49.893  1.00  0.00     0.030 A 
BRANCH  22  27
HETATM   27  C   UNL     1      23.275  48.750  49.259  1.00  0.00     0.254 C 
HETATM   28  N   UNL     1      22.690  50.002  49.179  1.00  0.00    -0.352 N 
HETATM   29  H   UNL     1      23.280  50.832  49.143  1.00  0.00     0.163 HD
HETATM   30  O   UNL     1      22.646  47.694  49.227  1.00  0.00    -0.268 OA
BRANCH  28  31
HETATM   31  C   UNL     1      21.271  50.137  49.059  1.00  0.00     0.084 A 
HETATM   32  C   UNL     1      20.667  51.427  48.577  1.00  0.00     0.027 A 
HETATM   33  C   UNL     1      20.585  50.195  47.724  1.00  0.00     0.027 A 
ENDBRANCH  28  31
ENDBRANCH  22  27
ENDBRANCH   2  21
TORSDOF 8
ENDMDL
MODEL 6
REMARK VINA RESULT:      -8.7      2.041      8.026
REMARK  8 active torsions:
REMARK  status: ('A' for Active; 'I' for Inactive)
REMARK       I    between atoms: C_2  and  N_3 
REMARK    1  A    between atoms: N_3  and  C_4 
REMARK    2  A    between atoms: C_6  and  N_7 
REMARK    3  A    between atoms: N_7  and  C_8 
REMARK    4  A    between atoms: C_8  and  C_9 
REMARK       I    between atoms: C_9  and  N_10 
REMARK    5  A    between atoms: N_10  and  C_11 
REMARK    6  A    between atoms: C_12  and  C_13 
REMARK       I    between atoms: C_13  and  N_14 
REMARK    7  A    between atoms: N_14  and  C_15 
REMARK    8  A    between atoms: C_24  and  O_25 
ROOT
HETATM    1  C   UNL     1      24.363  44.100  50.609  1.00  0.00     0.235 C 
HETATM    2  N   UNL     1      25.733  44.068  50.826  1.00  0.00    -0.325 N 
HETATM    3  O   UNL     1      23.530  43.354  51.111  1.00  0.00    -0.272 OA
HETATM    4  H   UNL     1      26.242  44.888  50.518  1.00  0.00     0.169 HD
ENDROOT
BRANCH   1   5
HETATM    5  C   UNL     1      23.940  45.283  49.720  1.00  0.00     0.195 C 
BRANCH   5   6
HETATM    6  N   UNL     1      24.149  46.588  50.349  1.00  0.00    -0.282 NA
HETATM    7  H   UNL     1      23.508  46.706  51.141  1.00  0.00     0.128 HD
BRANCH   6   8
HETATM    8  C   UNL     1      24.131  47.767  49.585  1.00  0.00     0.044 A 
HETATM    9  C   UNL     1      22.940  48.428  49.238  1.00  0.00     0.055 A 
HETATM   10  C   UNL     1      22.938  49.672  48.596  1.00  0.00     0.036 A 
HETATM   11  C   UNL     1      24.155  50.256  48.243  1.00  0.00     0.032 A 
HETATM   12  C   UNL     1      25.353  49.625  48.574  1.00  0.00     0.041 A 
HETATM   13  C   UNL     1      25.344  48.393  49.232  1.00  0.00     0.089 A 
BRANCH  10  14
HETATM   14  N   UNL     1      21.760  50.400  48.313  1.00  0.00    -0.327 N 
HETATM   15  C   UNL     1      20.935  51.036  49.225  1.00  0.00     0.218 C 
HETATM   16  C   UNL     1      19.806  51.789  48.567  1.00  0.00     0.117 C 
HETATM   17  O   UNL     1      21.084  51.080  50.444  1.00  0.00    -0.274 OA
HETATM   18  H   UNL     1      21.583  50.580  47.332  1.00  0.00     0.169 HD
ENDBRANCH  10  14
BRANCH  13  19
HETATM   19  O   UNL     1      26.586  47.891  49.536  1.00  0.00    -0.354 OA
HETATM   20  C   UNL     1      27.653  48.741  49.114  1.00  0.00     0.210 C 
ENDBRANCH  13  19
ENDBRANCH   6   8
ENDBRANCH   5   6
ENDBRANCH   1   5
BRANCH   2  21
HETATM   21  C   UNL     1      26.455  43.209  51.687  1.00  0.00     0.050 A 
HETATM   22  C   UNL     1      26.779  43.414  53.036  1.00  0.00     0.058 A 
HETATM   23  C   UNL     1      27.616  42.489  53.698  1.00  0.00     0.019 A 
HETATM   24  C   UNL     1      28.096  41.352  53.051  1.00  0.00     0.001 A 
HETATM   25  C   UNL     1      27.729  41.113  51.736  1.00  0.00     0.002 A 
HETATM   26  C   UNL     1      26.912  42.028  51.066  1.00  0.00     0.030 A 
BRANCH  22  27
HETATM   27  C   UNL     1      26.226  44.455  53.936  1.00  0.00     0.254 C 
HETATM   28  N   UNL     1      27.104  45.441  54.353  1.00  0.00    -0.352 N 
HETATM   29  H   UNL     1      28.087  45.383  54.092  1.00  0.00     0.163 HD
HETATM   30  O   UNL     1      25.013  44.487  54.135  1.00  0.00    -0.268 OA
BRANCH  28  31
HETATM   31  C   UNL     1      26.629  46.584  55.070  1.00  0.00     0.084 A 
HETATM   32  C   UNL     1      27.430  47.856  55.092  1.00  0.00     0.027 A 
HETATM   33  C   UNL     1      26.116  47.810  54.370  1.00  0.00     0.027 A 
ENDBRANCH  28  31
ENDBRANCH  22  27
ENDBRANCH   2  21
TORSDOF 8
ENDMDL
MODEL 7
REMARK VINA RESULT:      -8.7      3.344      7.105
REMARK  8 active torsions:
REMARK  status: ('A' for Active; 'I' for Inactive)
REMARK       I    between atoms: C_2  and  N_3 
REMARK    1  A    between atoms: N_3  and  C_4 
REMARK    2  A    between atoms: C_6  and  N_7 
REMARK    3  A    between atoms: N_7  and  C_8 
REMARK    4  A    between atoms: C_8  and  C_9 
REMARK       I    between atoms: C_9  and  N_10 
REMARK    5  A    between atoms: N_10  and  C_11 
REMARK    6  A    between atoms: C_12  and  C_13 
REMARK       I    between atoms: C_13  and  N_14 
REMARK    7  A    between atoms: N_14  and  C_15 
REMARK    8  A    between atoms: C_24  and  O_25 
ROOT
HETATM    1  C   UNL     1      28.600  42.368  52.530  1.00  0.00     0.235 C 
HETATM    2  N   UNL     1      28.864  42.347  53.892  1.00  0.00    -0.325 N 
HETATM    3  O   UNL     1      28.632  43.351  51.798  1.00  0.00    -0.272 OA
HETATM    4  H   UNL     1      29.017  41.430  54.292  1.00  0.00     0.169 HD
ENDROOT
BRANCH   1   5
HETATM    5  C   UNL     1      28.355  40.959  51.962  1.00  0.00     0.195 C 
BRANCH   5   6
HETATM    6  N   UNL     1      26.935  40.618  51.842  1.00  0.00    -0.282 NA
HETATM    7  H   UNL     1      26.787  39.631  52.081  1.00  0.00     0.128 HD
BRANCH   6   8
HETATM    8  C   UNL     1      26.225  40.900  50.662  1.00  0.00     0.044 A 
HETATM    9  C   UNL     1      25.592  42.133  50.435  1.00  0.00     0.055 A 
HETATM   10  C   UNL     1      25.006  42.454  49.204  1.00  0.00     0.036 A 
HETATM   11  C   UNL     1      25.007  41.502  48.183  1.00  0.00     0.032 A 
HETATM   12  C   UNL     1      25.628  40.270  48.378  1.00  0.00     0.041 A 
HETATM   13  C   UNL     1      26.226  39.968  49.604  1.00  0.00     0.089 A 
BRANCH  10  14
HETATM   14  N   UNL     1      24.439  43.716  48.917  1.00  0.00    -0.327 N 
HETATM   15  C   UNL     1      23.142  44.125  49.178  1.00  0.00     0.218 C 
HETATM   16  C   UNL     1      22.898  45.568  48.812  1.00  0.00     0.117 C 
HETATM   17  O   UNL     1      22.254  43.460  49.706  1.00  0.00    -0.274 OA
HETATM   18  H   UNL     1      25.091  44.429  48.612  1.00  0.00     0.169 HD
ENDBRANCH  10  14
BRANCH  13  19
HETATM   19  O   UNL     1      26.837  38.738  49.661  1.00  0.00    -0.354 OA
HETATM   20  C   UNL     1      28.021  38.664  48.867  1.00  0.00     0.210 C 
ENDBRANCH  13  19
ENDBRANCH   6   8
ENDBRANCH   5   6
ENDBRANCH   1   5
BRANCH   2  21
HETATM   21  C   UNL     1      29.258  43.428  54.715  1.00  0.00     0.050 A 
HETATM   22  C   UNL     1      28.577  44.633  54.941  1.00  0.00     0.058 A 
HETATM   23  C   UNL     1      29.195  45.647  55.706  1.00  0.00     0.019 A 
HETATM   24  C   UNL     1      30.451  45.461  56.278  1.00  0.00     0.001 A 
HETATM   25  C   UNL     1      31.103  44.249  56.109  1.00  0.00     0.002 A 
HETATM   26  C   UNL     1      30.508  43.243  55.343  1.00  0.00     0.030 A 
BRANCH  22  27
HETATM   27  C   UNL     1      27.176  44.946  54.571  1.00  0.00     0.254 C 
HETATM   28  N   UNL     1      26.982  46.054  53.763  1.00  0.00    -0.352 N 
HETATM   29  H   UNL     1      27.777  46.640  53.513  1.00  0.00     0.163 HD
HETATM   30  O   UNL     1      26.291  44.141  54.856  1.00  0.00    -0.268 OA
BRANCH  28  31
HETATM   31  C   UNL     1      25.695  46.334  53.205  1.00  0.00     0.084 A 
HETATM   32  C   UNL     1      25.576  46.968  51.848  1.00  0.00     0.027 A 
HETATM   33  C   UNL     1      25.136  45.548  52.054  1.00  0.00     0.027 A 
ENDBRANCH  28  31
ENDBRANCH  22  27
ENDBRANCH   2  21
TORSDOF 8
ENDMDL
MODEL 8
REMARK VINA RESULT:      -8.5      3.820      7.882
REMARK  8 active torsions:
REMARK  status: ('A' for Active; 'I' for Inactive)
REMARK       I    between atoms: C_2  and  N_3 
REMARK    1  A    between atoms: N_3  and  C_4 
REMARK    2  A    between atoms: C_6  and  N_7 
REMARK    3  A    between atoms: N_7  and  C_8 
REMARK    4  A    between atoms: C_8  and  C_9 
REMARK       I    between atoms: C_9  and  N_10 
REMARK    5  A    between atoms: N_10  and  C_11 
REMARK    6  A    between atoms: C_12  and  C_13 
REMARK       I    between atoms: C_13  and  N_14 
REMARK    7  A    between atoms: N_14  and  C_15 
REMARK    8  A    between atoms: C_24  and  O_25 
ROOT
HETATM    1  C   UNL     1      28.405  41.804  53.041  1.00  0.00     0.235 C 
HETATM    2  N   UNL     1      29.189  42.944  53.156  1.00  0.00    -0.325 N 
HETATM    3  O   UNL     1      27.779  41.258  53.942  1.00  0.00    -0.272 OA
HETATM    4  H   UNL     1      29.445  43.386  52.282  1.00  0.00     0.169 HD
ENDROOT
BRANCH   1   5
HETATM    5  C   UNL     1      28.295  41.316  51.585  1.00  0.00     0.195 C 
BRANCH   5   6
HETATM    6  N   UNL     1      28.830  39.969  51.380  1.00  0.00    -0.282 NA
HETATM    7  H   UNL     1      29.817  39.933  51.658  1.00  0.00     0.128 HD
BRANCH   6   8
HETATM    8  C   UNL     1      28.696  39.323  50.139  1.00  0.00     0.044 A 
HETATM    9  C   UNL     1      27.853  39.801  49.122  1.00  0.00     0.055 A 
HETATM   10  C   UNL     1      27.831  39.231  47.844  1.00  0.00     0.036 A 
HETATM   11  C   UNL     1      28.635  38.121  47.581  1.00  0.00     0.032 A 
HETATM   12  C   UNL     1      29.482  37.624  48.569  1.00  0.00     0.041 A 
HETATM   13  C   UNL     1      29.510  38.212  49.836  1.00  0.00     0.089 A 
BRANCH  10  14
HETATM   14  N   UNL     1      27.060  39.743  46.776  1.00  0.00    -0.327 N 
HETATM   15  C   UNL     1      27.422  40.748  45.894  1.00  0.00     0.218 C 
HETATM   16  C   UNL     1      26.386  40.988  44.824  1.00  0.00     0.117 C 
HETATM   17  O   UNL     1      28.480  41.371  45.885  1.00  0.00    -0.274 OA
HETATM   18  H   UNL     1      26.215  39.228  46.561  1.00  0.00     0.169 HD
ENDBRANCH  10  14
BRANCH  13  19
HETATM   19  O   UNL     1      30.413  37.656  50.711  1.00  0.00    -0.354 OA
HETATM   20  C   UNL     1      29.861  36.590  51.483  1.00  0.00     0.210 C 
ENDBRANCH  13  19
ENDBRANCH   6   8
ENDBRANCH   5   6
ENDBRANCH   1   5
BRANCH   2  21
HETATM   21  C   UNL     1      29.403  43.735  54.309  1.00  0.00     0.050 A 
HETATM   22  C   UNL     1      28.571  44.733  54.837  1.00  0.00     0.058 A 
HETATM   23  C   UNL     1      29.019  45.501  55.935  1.00  0.00     0.019 A 
HETATM   24  C   UNL     1      30.254  45.262  56.532  1.00  0.00     0.001 A 
HETATM   25  C   UNL     1      31.055  44.237  56.052  1.00  0.00     0.002 A 
HETATM   26  C   UNL     1      30.629  43.479  54.959  1.00  0.00     0.030 A 
BRANCH  22  27
HETATM   27  C   UNL     1      27.165  45.012  54.457  1.00  0.00     0.254 C 
HETATM   28  N   UNL     1      26.960  46.056  53.571  1.00  0.00    -0.352 N 
HETATM   29  H   UNL     1      27.750  46.625  53.272  1.00  0.00     0.163 HD
HETATM   30  O   UNL     1      26.286  44.226  54.809  1.00  0.00    -0.268 OA
BRANCH  28  31
HETATM   31  C   UNL     1      25.667  46.288  53.006  1.00  0.00     0.084 A 
HETATM   32  C   UNL     1      25.529  47.007  51.693  1.00  0.00     0.027 A 
HETATM   33  C   UNL     1      25.183  45.551  51.790  1.00  0.00     0.027 A 
ENDBRANCH  28  31
ENDBRANCH  22  27
ENDBRANCH   2  21
TORSDOF 8
ENDMDL
MODEL 9
REMARK VINA RESULT:      -8.4      1.957      8.706
REMARK  8 active torsions:
REMARK  status: ('A' for Active; 'I' for Inactive)
REMARK       I    between atoms: C_2  and  N_3 
REMARK    1  A    between atoms: N_3  and  C_4 
REMARK    2  A    between atoms: C_6  and  N_7 
REMARK    3  A    between atoms: N_7  and  C_8 
REMARK    4  A    between atoms: C_8  and  C_9 
REMARK       I    between atoms: C_9  and  N_10 
REMARK    5  A    between atoms: N_10  and  C_11 
REMARK    6  A    between atoms: C_12  and  C_13 
REMARK       I    between atoms: C_13  and  N_14 
REMARK    7  A    between atoms: N_14  and  C_15 
REMARK    8  A    between atoms: C_24  and  O_25 
ROOT
HETATM    1  C   UNL     1      25.649  45.340  52.413  1.00  0.00     0.235 C 
HETATM    2  N   UNL     1      27.008  45.118  52.245  1.00  0.00    -0.325 N 
HETATM    3  O   UNL     1      24.854  44.594  52.973  1.00  0.00    -0.272 OA
HETATM    4  H   UNL     1      27.551  45.927  51.969  1.00  0.00     0.169 HD
ENDROOT
BRANCH   1   5
HETATM    5  C   UNL     1      25.218  46.728  51.905  1.00  0.00     0.195 C 
BRANCH   5   6
HETATM    6  N   UNL     1      25.226  46.843  50.446  1.00  0.00    -0.282 NA
HETATM    7  H   UNL     1      25.866  47.589  50.153  1.00  0.00     0.128 HD
BRANCH   6   8
HETATM    8  C   UNL     1      24.026  46.980  49.728  1.00  0.00     0.044 A 
HETATM    9  C   UNL     1      23.411  48.225  49.511  1.00  0.00     0.055 A 
HETATM   10  C   UNL     1      22.293  48.368  48.680  1.00  0.00     0.036 A 
HETATM   11  C   UNL     1      21.739  47.233  48.085  1.00  0.00     0.032 A 
HETATM   12  C   UNL     1      22.327  45.985  48.281  1.00  0.00     0.041 A 
HETATM   13  C   UNL     1      23.454  45.857  49.097  1.00  0.00     0.089 A 
BRANCH  10  14
HETATM   14  N   UNL     1      21.705  49.616  48.374  1.00  0.00    -0.327 N 
HETATM   15  C   UNL     1      20.660  50.231  49.042  1.00  0.00     0.218 C 
HETATM   16  C   UNL     1      20.338  51.599  48.493  1.00  0.00     0.117 C 
HETATM   17  O   UNL     1      20.058  49.798  50.021  1.00  0.00    -0.274 OA
HETATM   18  H   UNL     1      22.191  50.168  47.677  1.00  0.00     0.169 HD
ENDBRANCH  10  14
BRANCH  13  19
HETATM   19  O   UNL     1      23.963  44.583  49.182  1.00  0.00    -0.354 OA
HETATM   20  C   UNL     1      23.136  43.697  49.935  1.00  0.00     0.210 C 
ENDBRANCH  13  19
ENDBRANCH   6   8
ENDBRANCH   5   6
ENDBRANCH   1   5
BRANCH   2  21
HETATM   21  C   UNL     1      27.770  44.019  52.706  1.00  0.00     0.050 A 
HETATM   22  C   UNL     1      28.666  43.982  53.785  1.00  0.00     0.058 A 
HETATM   23  C   UNL     1      29.428  42.816  54.015  1.00  0.00     0.019 A 
HETATM   24  C   UNL     1      29.281  41.683  53.219  1.00  0.00     0.001 A 
HETATM   25  C   UNL     1      28.353  41.693  52.188  1.00  0.00     0.002 A 
HETATM   26  C   UNL     1      27.602  42.845  51.942  1.00  0.00     0.030 A 
BRANCH  22  27
HETATM   27  C   UNL     1      28.829  45.011  54.840  1.00  0.00     0.254 C 
HETATM   28  N   UNL     1      29.766  44.743  55.824  1.00  0.00    -0.352 N 
HETATM   29  H   UNL     1      30.248  43.846  55.829  1.00  0.00     0.163 HD
HETATM   30  O   UNL     1      28.259  46.093  54.710  1.00  0.00    -0.268 OA
BRANCH  28  31
HETATM   31  C   UNL     1      30.126  45.746  56.779  1.00  0.00     0.084 A 
HETATM   32  C   UNL     1      29.280  45.971  58.001  1.00  0.00     0.027 A 
HETATM   33  C   UNL     1      30.659  45.398  58.140  1.00  0.00     0.027 A 
ENDBRANCH  28  31
ENDBRANCH  22  27
ENDBRANCH   2  21
TORSDOF 8
ENDMDL
MODEL 10
REMARK VINA RESULT:      -8.4      3.855      7.826
REMARK  8 active torsions:
REMARK  status: ('A' for Active; 'I' for Inactive)
REMARK       I    between atoms: C_2  and  N_3 
REMARK    1  A    between atoms: N_3  and  C_4 
REMARK    2  A    between atoms: C_6  and  N_7 
REMARK    3  A    between atoms: N_7  and  C_8 
REMARK    4  A    between atoms: C_8  and  C_9 
REMARK       I    between atoms: C_9  and  N_10 
REMARK    5  A    between atoms: N_10  and  C_11 
REMARK    6  A    between atoms: C_12  and  C_13 
REMARK       I    between atoms: C_13  and  N_14 
REMARK    7  A    between atoms: N_14  and  C_15 
REMARK    8  A    between atoms: C_24  and  O_25 
ROOT
HETATM    1  C   UNL     1      28.697  43.380  53.814  1.00  0.00     0.235 C 
HETATM    2  N   UNL     1      29.888  43.933  54.265  1.00  0.00    -0.325 N 
HETATM    3  O   UNL     1      27.755  43.018  54.509  1.00  0.00    -0.272 OA
HETATM    4  H   UNL     1      30.455  44.382  53.557  1.00  0.00     0.169 HD
ENDROOT
BRANCH   1   5
HETATM    5  C   UNL     1      28.609  43.359  52.277  1.00  0.00     0.195 C 
BRANCH   5   6
HETATM    6  N   UNL     1      27.267  43.647  51.766  1.00  0.00    -0.282 NA
HETATM    7  H   UNL     1      26.627  43.842  52.544  1.00  0.00     0.128 HD
BRANCH   6   8
HETATM    8  C   UNL     1      26.631  42.764  50.878  1.00  0.00     0.044 A 
HETATM    9  C   UNL     1      26.858  41.378  50.894  1.00  0.00     0.055 A 
HETATM   10  C   UNL     1      26.119  40.492  50.101  1.00  0.00     0.036 A 
HETATM   11  C   UNL     1      25.156  41.004  49.229  1.00  0.00     0.032 A 
HETATM   12  C   UNL     1      24.907  42.374  49.191  1.00  0.00     0.041 A 
HETATM   13  C   UNL     1      25.638  43.246  50.001  1.00  0.00     0.089 A 
BRANCH  10  14
HETATM   14  N   UNL     1      26.265  39.088  50.158  1.00  0.00    -0.327 N 
HETATM   15  C   UNL     1      27.059  38.299  49.343  1.00  0.00     0.218 C 
HETATM   16  C   UNL     1      27.037  36.843  49.736  1.00  0.00     0.117 C 
HETATM   17  O   UNL     1      27.779  38.684  48.425  1.00  0.00    -0.274 OA
HETATM   18  H   UNL     1      25.845  38.638  50.963  1.00  0.00     0.169 HD
ENDBRANCH  10  14
BRANCH  13  19
HETATM   19  O   UNL     1      25.275  44.568  49.901  1.00  0.00    -0.354 OA
HETATM   20  C   UNL     1      24.134  44.897  50.694  1.00  0.00     0.210 C 
ENDBRANCH  13  19
ENDBRANCH   6   8
ENDBRANCH   5   6
ENDBRANCH   1   5
BRANCH   2  21
HETATM   21  C   UNL     1      30.256  44.229  55.598  1.00  0.00     0.050 A 
HETATM   22  C   UNL     1      29.808  45.288  56.401  1.00  0.00     0.058 A 
HETATM   23  C   UNL     1      30.388  45.488  57.674  1.00  0.00     0.019 A 
HETATM   24  C   UNL     1      31.368  44.630  58.168  1.00  0.00     0.001 A 
HETATM   25  C   UNL     1      31.771  43.547  57.403  1.00  0.00     0.002 A 
HETATM   26  C   UNL     1      31.215  43.345  56.137  1.00  0.00     0.030 A 
BRANCH  22  27
HETATM   27  C   UNL     1      28.662  46.188  56.128  1.00  0.00     0.254 C 
HETATM   28  N   UNL     1      28.241  46.271  54.811  1.00  0.00    -0.352 N 
HETATM   29  H   UNL     1      28.759  45.779  54.086  1.00  0.00     0.163 HD
HETATM   30  O   UNL     1      28.054  46.682  57.076  1.00  0.00    -0.268 OA
BRANCH  28  31
HETATM   31  C   UNL     1      27.037  46.967  54.474  1.00  0.00     0.084 A 
HETATM   32  C   UNL     1      26.557  47.008  53.050  1.00  0.00     0.027 A 
HETATM   33  C   UNL     1      25.780  46.245  54.082  1.00  0.00     0.027 A 
ENDBRANCH  28  31
ENDBRANCH  22  27
ENDBRANCH   2  21
TORSDOF 8
ENDMDL
