MODEL 1
REMARK VINA RESULT:      -8.4      0.000      0.000
REMARK  11 active torsions:
REMARK  status: ('A' for Active; 'I' for Inactive)
REMARK    1  A    between atoms: C_4  and  C_5 
REMARK    2  A    between atoms: C_5  and  N_6 
REMARK    3  A    between atoms: C_7  and  S_8 
REMARK    4  A    between atoms: C_9  and  C_10 
REMARK       I    between atoms: C_10  and  N_11 
REMARK    5  A    between atoms: N_11  and  C_12 
REMARK    6  A    between atoms: C_15  and  O_16 
REMARK    7  A    between atoms: O_16  and  C_17 
REMARK    8  A    between atoms: C_27  and  C_28 
REMARK       I    between atoms: C_28  and  N_29 
REMARK    9  A    between atoms: N_29  and  C_30 
REMARK   10  A    between atoms: C_30  and  C_31 
REMARK   11  A    between atoms: C_31  and  O_32 
ROOT
HETATM    1  N   UNL     1      23.341  44.395  48.396  1.00  0.00    -0.321 N 
HETATM    2  C   UNL     1      24.522  43.766  48.842  1.00  0.00     0.104 A 
HETATM    3  C   UNL     1      25.303  44.716  49.503  1.00  0.00     0.142 A 
HETATM    4  N   UNL     1      24.542  45.886  49.408  1.00  0.00    -0.301 N 
HETATM    5  C   UNL     1      23.393  45.676  48.776  1.00  0.00     0.116 A 
HETATM    6  C   UNL     1      24.890  47.224  49.962  1.00  0.00     0.100 A 
HETATM    7  C   UNL     1      23.941  48.222  49.762  1.00  0.00     0.035 A 
HETATM    8  C   UNL     1      22.749  47.957  49.081  1.00  0.00     0.036 A 
HETATM    9  C   UNL     1      22.461  46.683  48.582  1.00  0.00     0.066 A 
ENDROOT
BRANCH   3  10
HETATM   10  C   UNL     1      26.611  44.630  50.149  1.00  0.00     0.276 C 
HETATM   11  N   UNL     1      26.587  43.938  51.352  1.00  0.00    -0.322 N 
HETATM   12  H   UNL     1      25.715  43.520  51.658  1.00  0.00     0.169 HD
HETATM   13  O   UNL     1      27.631  45.147  49.696  1.00  0.00    -0.266 OA
BRANCH  11  14
HETATM   14  C   UNL     1      27.663  43.705  52.241  1.00  0.00     0.035 A 
HETATM   15  C   UNL     1      28.692  42.790  52.021  1.00  0.00     0.032 A 
HETATM   16  C   UNL     1      29.716  42.637  52.965  1.00  0.00     0.039 A 
HETATM   17  C   UNL     1      29.731  43.387  54.142  1.00  0.00     0.075 A 
HETATM   18  C   UNL     1      28.707  44.302  54.364  1.00  0.00     0.039 A 
HETATM   19  C   UNL     1      27.684  44.460  53.420  1.00  0.00     0.032 A 
BRANCH  17  20
HETATM   20  O   UNL     1      30.785  43.129  54.969  1.00  0.00    -0.290 OA
BRANCH  20  21
HETATM   21  C   UNL     1      30.866  43.834  56.202  1.00  0.00     0.505 C 
HETATM   22  F   UNL     1      31.707  43.188  57.046  1.00  0.00    -0.184 F 
HETATM   23  F   UNL     1      31.356  45.080  55.989  1.00  0.00    -0.184 F 
ENDBRANCH  20  21
ENDBRANCH  17  20
ENDBRANCH  11  14
ENDBRANCH   3  10
BRANCH   2  24
HETATM   24  S   UNL     1      24.936  42.074  48.581  1.00  0.00    -0.123 SA
HETATM   25  H   UNL     1      23.751  41.557  48.233  1.00  0.00     0.108 HD
ENDBRANCH   2  24
BRANCH   1  26
HETATM   26  C   UNL     1      22.224  43.791  47.658  1.00  0.00     0.177 C 
BRANCH  26  27
HETATM   27  C   UNL     1      22.454  43.930  46.185  1.00  0.00     0.001 A 
HETATM   28  S   UNL     1      23.129  42.635  45.283  1.00  0.00    -0.105 SA
HETATM   29  C   UNL     1      23.050  43.520  43.825  1.00  0.00     0.050 A 
HETATM   30  C   UNL     1      22.540  44.784  44.015  1.00  0.00     0.008 A 
HETATM   31  C   UNL     1      22.204  45.025  45.378  1.00  0.00     0.017 A 
ENDBRANCH  26  27
ENDBRANCH   1  26
BRANCH   8  32
HETATM   32  C   UNL     1      21.694  48.983  48.918  1.00  0.00     0.251 C 
HETATM   33  N   UNL     1      21.246  49.620  50.049  1.00  0.00    -0.355 N 
HETATM   34  H   UNL     1      21.688  49.463  50.944  1.00  0.00     0.162 HD
HETATM   35  O   UNL     1      21.303  49.246  47.786  1.00  0.00    -0.268 OA
BRANCH  33  36
HETATM   36  C   UNL     1      20.167  50.608  50.013  1.00  0.00     0.148 C 
BRANCH  36  37
HETATM   37  C   UNL     1      18.806  50.054  50.456  1.00  0.00     0.183 C 
BRANCH  37  38
HETATM   38  O   UNL     1      18.917  49.198  51.588  1.00  0.00    -0.399 OA
HETATM   39  H   UNL     1      19.343  49.709  52.309  1.00  0.00     0.209 HD
ENDBRANCH  37  38
ENDBRANCH  36  37
ENDBRANCH  33  36
ENDBRANCH   8  32
TORSDOF 11
ENDMDL
MODEL 2
REMARK VINA RESULT:      -8.4      1.407      1.610
REMARK  11 active torsions:
REMARK  status: ('A' for Active; 'I' for Inactive)
REMARK    1  A    between atoms: C_4  and  C_5 
REMARK    2  A    between atoms: C_5  and  N_6 
REMARK    3  A    between atoms: C_7  and  S_8 
REMARK    4  A    between atoms: C_9  and  C_10 
REMARK       I    between atoms: C_10  and  N_11 
REMARK    5  A    between atoms: N_11  and  C_12 
REMARK    6  A    between atoms: C_15  and  O_16 
REMARK    7  A    between atoms: O_16  and  C_17 
REMARK    8  A    between atoms: C_27  and  C_28 
REMARK       I    between atoms: C_28  and  N_29 
REMARK    9  A    between atoms: N_29  and  C_30 
REMARK   10  A    between atoms: C_30  and  C_31 
REMARK   11  A    between atoms: C_31  and  O_32 
ROOT
HETATM    1  N   UNL     1      23.966  43.456  49.231  1.00  0.00    -0.321 N 
HETATM    2  C   UNL     1      25.130  43.015  49.892  1.00  0.00     0.104 A 
HETATM    3  C   UNL     1      25.801  44.132  50.394  1.00  0.00     0.142 A 
HETATM    4  N   UNL     1      24.994  45.203  49.993  1.00  0.00    -0.301 N 
HETATM    5  C   UNL     1      23.919  44.789  49.331  1.00  0.00     0.116 A 
HETATM    6  C   UNL     1      25.223  46.648  50.274  1.00  0.00     0.100 A 
HETATM    7  C   UNL     1      24.248  47.516  49.792  1.00  0.00     0.035 A 
HETATM    8  C   UNL     1      23.137  47.034  49.092  1.00  0.00     0.036 A 
HETATM    9  C   UNL     1      22.960  45.668  48.855  1.00  0.00     0.066 A 
ENDROOT
BRANCH   3  10
HETATM   10  C   UNL     1      27.047  44.272  51.144  1.00  0.00     0.276 C 
HETATM   11  N   UNL     1      26.904  44.021  52.502  1.00  0.00    -0.322 N 
HETATM   12  H   UNL     1      25.999  43.727  52.852  1.00  0.00     0.169 HD
HETATM   13  O   UNL     1      28.115  44.612  50.635  1.00  0.00    -0.266 OA
BRANCH  11  14
HETATM   14  C   UNL     1      27.896  44.102  53.508  1.00  0.00     0.035 A 
HETATM   15  C   UNL     1      28.903  43.159  53.709  1.00  0.00     0.032 A 
HETATM   16  C   UNL     1      29.841  43.335  54.735  1.00  0.00     0.039 A 
HETATM   17  C   UNL     1      29.790  44.447  55.578  1.00  0.00     0.075 A 
HETATM   18  C   UNL     1      28.788  45.390  55.379  1.00  0.00     0.039 A 
HETATM   19  C   UNL     1      27.850  45.219  54.352  1.00  0.00     0.032 A 
BRANCH  17  20
HETATM   20  O   UNL     1      30.764  44.483  56.533  1.00  0.00    -0.290 OA
BRANCH  20  21
HETATM   21  C   UNL     1      31.589  43.336  56.701  1.00  0.00     0.505 C 
HETATM   22  F   UNL     1      32.748  43.690  57.307  1.00  0.00    -0.184 F 
HETATM   23  F   UNL     1      30.961  42.428  57.486  1.00  0.00    -0.184 F 
ENDBRANCH  20  21
ENDBRANCH  17  20
ENDBRANCH  11  14
ENDBRANCH   3  10
BRANCH   2  24
HETATM   24  S   UNL     1      25.650  41.338  50.031  1.00  0.00    -0.123 SA
HETATM   25  H   UNL     1      26.948  41.431  49.716  1.00  0.00     0.108 HD
ENDBRANCH   2  24
BRANCH   1  26
HETATM   26  C   UNL     1      22.951  42.637  48.554  1.00  0.00     0.177 C 
BRANCH  26  27
HETATM   27  C   UNL     1      23.338  42.432  47.122  1.00  0.00     0.001 A 
HETATM   28  S   UNL     1      24.076  40.965  46.622  1.00  0.00    -0.105 SA
HETATM   29  C   UNL     1      24.170  41.487  44.998  1.00  0.00     0.050 A 
HETATM   30  C   UNL     1      23.670  42.759  44.836  1.00  0.00     0.008 A 
HETATM   31  C   UNL     1      23.198  43.309  46.062  1.00  0.00     0.017 A 
ENDBRANCH  26  27
ENDBRANCH   1  26
BRANCH   8  32
HETATM   32  C   UNL     1      22.052  47.930  48.632  1.00  0.00     0.251 C 
HETATM   33  N   UNL     1      21.101  48.300  49.550  1.00  0.00    -0.355 N 
HETATM   34  H   UNL     1      21.192  48.049  50.525  1.00  0.00     0.162 HD
HETATM   35  O   UNL     1      22.076  48.331  47.474  1.00  0.00    -0.268 OA
BRANCH  33  36
HETATM   36  C   UNL     1      19.952  49.134  49.192  1.00  0.00     0.148 C 
BRANCH  36  37
HETATM   37  C   UNL     1      18.661  48.758  49.930  1.00  0.00     0.183 C 
BRANCH  37  38
HETATM   38  O   UNL     1      18.917  48.004  51.111  1.00  0.00    -0.399 OA
HETATM   39  H   UNL     1      18.661  48.556  51.879  1.00  0.00     0.209 HD
ENDBRANCH  37  38
ENDBRANCH  36  37
ENDBRANCH  33  36
ENDBRANCH   8  32
TORSDOF 11
ENDMDL
MODEL 3
REMARK VINA RESULT:      -8.0      3.597      5.836
REMARK  11 active torsions:
REMARK  status: ('A' for Active; 'I' for Inactive)
REMARK    1  A    between atoms: C_4  and  C_5 
REMARK    2  A    between atoms: C_5  and  N_6 
REMARK    3  A    between atoms: C_7  and  S_8 
REMARK    4  A    between atoms: C_9  and  C_10 
REMARK       I    between atoms: C_10  and  N_11 
REMARK    5  A    between atoms: N_11  and  C_12 
REMARK    6  A    between atoms: C_15  and  O_16 
REMARK    7  A    between atoms: O_16  and  C_17 
REMARK    8  A    between atoms: C_27  and  C_28 
REMARK       I    between atoms: C_28  and  N_29 
REMARK    9  A    between atoms: N_29  and  C_30 
REMARK   10  A    between atoms: C_30  and  C_31 
REMARK   11  A    between atoms: C_31  and  O_32 
ROOT
HETATM    1  N   UNL     1      21.533  48.997  47.892  1.00  0.00    -0.321 N 
HETATM    2  C   UNL     1      22.693  49.334  48.618  1.00  0.00     0.104 A 
HETATM    3  C   UNL     1      23.303  48.152  49.047  1.00  0.00     0.142 A 
HETATM    4  N   UNL     1      22.455  47.153  48.555  1.00  0.00    -0.301 N 
HETATM    5  C   UNL     1      21.438  47.662  47.869  1.00  0.00     0.116 A 
HETATM    6  C   UNL     1      22.631  45.681  48.704  1.00  0.00     0.100 A 
HETATM    7  C   UNL     1      21.661  44.895  48.089  1.00  0.00     0.035 A 
HETATM    8  C   UNL     1      20.602  45.477  47.385  1.00  0.00     0.036 A 
HETATM    9  C   UNL     1      20.480  46.864  47.267  1.00  0.00     0.066 A 
ENDROOT
BRANCH   3  10
HETATM   10  C   UNL     1      24.508  47.901  49.834  1.00  0.00     0.276 C 
HETATM   11  N   UNL     1      24.308  47.008  50.878  1.00  0.00    -0.322 N 
HETATM   12  H   UNL     1      23.396  46.578  50.985  1.00  0.00     0.169 HD
HETATM   13  O   UNL     1      25.588  48.451  49.621  1.00  0.00    -0.266 OA
BRANCH  11  14
HETATM   14  C   UNL     1      25.248  46.579  51.844  1.00  0.00     0.035 A 
HETATM   15  C   UNL     1      25.550  47.266  53.019  1.00  0.00     0.032 A 
HETATM   16  C   UNL     1      26.497  46.753  53.915  1.00  0.00     0.039 A 
HETATM   17  C   UNL     1      27.161  45.552  53.656  1.00  0.00     0.075 A 
HETATM   18  C   UNL     1      26.860  44.863  52.486  1.00  0.00     0.039 A 
HETATM   19  C   UNL     1      25.911  45.371  51.589  1.00  0.00     0.032 A 
BRANCH  17  20
HETATM   20  O   UNL     1      28.057  45.178  54.614  1.00  0.00    -0.290 OA
BRANCH  20  21
HETATM   21  C   UNL     1      28.870  44.036  54.370  1.00  0.00     0.505 C 
HETATM   22  F   UNL     1      29.988  44.097  55.134  1.00  0.00    -0.184 F 
HETATM   23  F   UNL     1      28.194  42.910  54.700  1.00  0.00    -0.184 F 
ENDBRANCH  20  21
ENDBRANCH  17  20
ENDBRANCH  11  14
ENDBRANCH   3  10
BRANCH   2  24
HETATM   24  S   UNL     1      23.254  50.972  48.940  1.00  0.00    -0.123 SA
HETATM   25  H   UNL     1      24.554  50.768  49.186  1.00  0.00     0.108 HD
ENDBRANCH   2  24
BRANCH   1  26
HETATM   26  C   UNL     1      20.578  49.909  47.248  1.00  0.00     0.177 C 
BRANCH  26  27
HETATM   27  C   UNL     1      19.679  50.513  48.281  1.00  0.00     0.001 A 
HETATM   28  S   UNL     1      18.522  49.547  49.101  1.00  0.00    -0.105 SA
HETATM   29  C   UNL     1      17.975  50.871  50.031  1.00  0.00     0.050 A 
HETATM   30  C   UNL     1      18.641  52.033  49.715  1.00  0.00     0.008 A 
HETATM   31  C   UNL     1      19.618  51.830  48.699  1.00  0.00     0.017 A 
ENDBRANCH  26  27
ENDBRANCH   1  26
BRANCH   8  32
HETATM   32  C   UNL     1      19.599  44.662  46.662  1.00  0.00     0.251 C 
HETATM   33  N   UNL     1      19.572  44.755  45.293  1.00  0.00    -0.355 N 
HETATM   34  H   UNL     1      20.273  45.284  44.792  1.00  0.00     0.162 HD
HETATM   35  O   UNL     1      18.875  43.916  47.311  1.00  0.00    -0.268 OA
BRANCH  33  36
HETATM   36  C   UNL     1      18.586  44.039  44.482  1.00  0.00     0.148 C 
BRANCH  36  37
HETATM   37  C   UNL     1      17.200  44.696  44.472  1.00  0.00     0.183 C 
BRANCH  37  38
HETATM   38  O   UNL     1      16.383  44.245  45.548  1.00  0.00    -0.399 OA
HETATM   39  H   UNL     1      15.684  44.917  45.695  1.00  0.00     0.209 HD
ENDBRANCH  37  38
ENDBRANCH  36  37
ENDBRANCH  33  36
ENDBRANCH   8  32
TORSDOF 11
ENDMDL
MODEL 4
REMARK VINA RESULT:      -7.7      4.246      9.146
REMARK  11 active torsions:
REMARK  status: ('A' for Active; 'I' for Inactive)
REMARK    1  A    between atoms: C_4  and  C_5 
REMARK    2  A    between atoms: C_5  and  N_6 
REMARK    3  A    between atoms: C_7  and  S_8 
REMARK    4  A    between atoms: C_9  and  C_10 
REMARK       I    between atoms: C_10  and  N_11 
REMARK    5  A    between atoms: N_11  and  C_12 
REMARK    6  A    between atoms: C_15  and  O_16 
REMARK    7  A    between atoms: O_16  and  C_17 
REMARK    8  A    between atoms: C_27  and  C_28 
REMARK       I    between atoms: C_28  and  N_29 
REMARK    9  A    between atoms: N_29  and  C_30 
REMARK   10  A    between atoms: C_30  and  C_31 
REMARK   11  A    between atoms: C_31  and  O_32 
ROOT
HETATM    1  N   UNL     1      26.312  41.491  50.427  1.00  0.00    -0.321 N 
HETATM    2  C   UNL     1      25.153  42.097  49.900  1.00  0.00     0.104 A 
HETATM    3  C   UNL     1      24.999  43.349  50.500  1.00  0.00     0.142 A 
HETATM    4  N   UNL     1      26.087  43.424  51.378  1.00  0.00    -0.301 N 
HETATM    5  C   UNL     1      26.852  42.340  51.309  1.00  0.00     0.116 A 
HETATM    6  C   UNL     1      26.433  44.563  52.274  1.00  0.00     0.100 A 
HETATM    7  C   UNL     1      27.593  44.403  53.026  1.00  0.00     0.035 A 
HETATM    8  C   UNL     1      28.361  43.239  52.928  1.00  0.00     0.036 A 
HETATM    9  C   UNL     1      28.001  42.197  52.069  1.00  0.00     0.066 A 
ENDROOT
BRANCH   3  10
HETATM   10  C   UNL     1      23.987  44.391  50.346  1.00  0.00     0.276 C 
HETATM   11  N   UNL     1      24.384  45.426  49.512  1.00  0.00    -0.322 N 
HETATM   12  H   UNL     1      25.287  45.365  49.053  1.00  0.00     0.169 HD
HETATM   13  O   UNL     1      22.900  44.377  50.924  1.00  0.00    -0.266 OA
BRANCH  11  14
HETATM   14  C   UNL     1      23.665  46.599  49.180  1.00  0.00     0.035 A 
HETATM   15  C   UNL     1      23.944  47.871  49.680  1.00  0.00     0.032 A 
HETATM   16  C   UNL     1      23.171  48.970  49.285  1.00  0.00     0.039 A 
HETATM   17  C   UNL     1      22.108  48.823  48.393  1.00  0.00     0.075 A 
HETATM   18  C   UNL     1      21.828  47.557  47.891  1.00  0.00     0.039 A 
HETATM   19  C   UNL     1      22.601  46.455  48.281  1.00  0.00     0.032 A 
BRANCH  17  20
HETATM   20  O   UNL     1      21.443  49.979  48.103  1.00  0.00    -0.290 OA
BRANCH  20  21
HETATM   21  C   UNL     1      21.135  50.867  49.171  1.00  0.00     0.505 C 
HETATM   22  F   UNL     1      20.538  51.982  48.682  1.00  0.00    -0.184 F 
HETATM   23  F   UNL     1      20.276  50.272  50.032  1.00  0.00    -0.184 F 
ENDBRANCH  20  21
ENDBRANCH  17  20
ENDBRANCH  11  14
ENDBRANCH   3  10
BRANCH   2  24
HETATM   24  S   UNL     1      24.080  41.375  48.705  1.00  0.00    -0.123 SA
HETATM   25  H   UNL     1      23.167  42.341  48.545  1.00  0.00     0.108 HD
ENDBRANCH   2  24
BRANCH   1  26
HETATM   26  C   UNL     1      26.872  40.175  50.091  1.00  0.00     0.177 C 
BRANCH  26  27
HETATM   27  C   UNL     1      27.277  40.150  48.650  1.00  0.00     0.001 A 
HETATM   28  S   UNL     1      26.891  38.801  47.661  1.00  0.00    -0.105 SA
HETATM   29  C   UNL     1      27.623  39.510  46.290  1.00  0.00     0.050 A 
HETATM   30  C   UNL     1      28.170  40.740  46.577  1.00  0.00     0.008 A 
HETATM   31  C   UNL     1      27.980  41.106  47.940  1.00  0.00     0.017 A 
ENDBRANCH  26  27
ENDBRANCH   1  26
BRANCH   8  32
HETATM   32  C   UNL     1      29.636  43.077  53.664  1.00  0.00     0.251 C 
HETATM   33  N   UNL     1      29.713  43.610  54.927  1.00  0.00    -0.355 N 
HETATM   34  H   UNL     1      28.900  44.011  55.373  1.00  0.00     0.162 HD
HETATM   35  O   UNL     1      30.541  42.443  53.134  1.00  0.00    -0.268 OA
BRANCH  33  36
HETATM   36  C   UNL     1      30.941  43.560  55.721  1.00  0.00     0.148 C 
BRANCH  36  37
HETATM   37  C   UNL     1      30.904  44.444  56.974  1.00  0.00     0.183 C 
BRANCH  37  38
HETATM   38  O   UNL     1      31.782  43.972  57.991  1.00  0.00    -0.399 OA
HETATM   39  H   UNL     1      31.494  44.367  58.841  1.00  0.00     0.209 HD
ENDBRANCH  37  38
ENDBRANCH  36  37
ENDBRANCH  33  36
ENDBRANCH   8  32
TORSDOF 11
ENDMDL
MODEL 5
REMARK VINA RESULT:      -7.6      2.949      3.926
REMARK  11 active torsions:
REMARK  status: ('A' for Active; 'I' for Inactive)
REMARK    1  A    between atoms: C_4  and  C_5 
REMARK    2  A    between atoms: C_5  and  N_6 
REMARK    3  A    between atoms: C_7  and  S_8 
REMARK    4  A    between atoms: C_9  and  C_10 
REMARK       I    between atoms: C_10  and  N_11 
REMARK    5  A    between atoms: N_11  and  C_12 
REMARK    6  A    between atoms: C_15  and  O_16 
REMARK    7  A    between atoms: O_16  and  C_17 
REMARK    8  A    between atoms: C_27  and  C_28 
REMARK       I    between atoms: C_28  and  N_29 
REMARK    9  A    between atoms: N_29  and  C_30 
REMARK   10  A    between atoms: C_30  and  C_31 
REMARK   11  A    between atoms: C_31  and  O_32 
ROOT
HETATM    1  N   UNL     1      26.010  41.651  48.217  1.00  0.00    -0.321 N 
HETATM    2  C   UNL     1      26.992  41.326  49.175  1.00  0.00     0.104 A 
HETATM    3  C   UNL     1      26.661  41.958  50.376  1.00  0.00     0.142 A 
HETATM    4  N   UNL     1      25.484  42.649  50.066  1.00  0.00    -0.301 N 
HETATM    5  C   UNL     1      25.109  42.444  48.809  1.00  0.00     0.116 A 
HETATM    6  C   UNL     1      24.674  43.490  50.991  1.00  0.00     0.100 A 
HETATM    7  C   UNL     1      23.520  44.043  50.444  1.00  0.00     0.035 A 
HETATM    8  C   UNL     1      23.171  43.808  49.111  1.00  0.00     0.036 A 
HETATM    9  C   UNL     1      23.959  43.007  48.280  1.00  0.00     0.066 A 
ENDROOT
BRANCH   3  10
HETATM   10  C   UNL     1      27.316  41.982  51.682  1.00  0.00     0.276 C 
HETATM   11  N   UNL     1      27.912  43.201  51.976  1.00  0.00    -0.322 N 
HETATM   12  H   UNL     1      27.814  43.965  51.316  1.00  0.00     0.169 HD
HETATM   13  O   UNL     1      27.369  41.012  52.436  1.00  0.00    -0.266 OA
BRANCH  11  14
HETATM   14  C   UNL     1      28.653  43.548  53.131  1.00  0.00     0.035 A 
HETATM   15  C   UNL     1      28.250  44.483  54.083  1.00  0.00     0.032 A 
HETATM   16  C   UNL     1      29.057  44.753  55.195  1.00  0.00     0.039 A 
HETATM   17  C   UNL     1      30.279  44.101  55.377  1.00  0.00     0.075 A 
HETATM   18  C   UNL     1      30.683  43.166  54.430  1.00  0.00     0.039 A 
HETATM   19  C   UNL     1      29.876  42.891  53.318  1.00  0.00     0.032 A 
BRANCH  17  20
HETATM   20  O   UNL     1      30.958  44.467  56.502  1.00  0.00    -0.290 OA
BRANCH  20  21
HETATM   21  C   UNL     1      31.488  43.443  57.335  1.00  0.00     0.505 C 
HETATM   22  F   UNL     1      30.729  42.325  57.229  1.00  0.00    -0.184 F 
HETATM   23  F   UNL     1      32.748  43.136  56.943  1.00  0.00    -0.184 F 
ENDBRANCH  20  21
ENDBRANCH  17  20
ENDBRANCH  11  14
ENDBRANCH   3  10
BRANCH   2  24
HETATM   24  S   UNL     1      28.401  40.312  48.884  1.00  0.00    -0.123 SA
HETATM   25  H   UNL     1      29.279  41.202  48.405  1.00  0.00     0.108 HD
ENDBRANCH   2  24
BRANCH   1  26
HETATM   26  C   UNL     1      25.938  41.213  46.817  1.00  0.00     0.177 C 
BRANCH  26  27
HETATM   27  C   UNL     1      25.151  39.944  46.721  1.00  0.00     0.001 A 
HETATM   28  S   UNL     1      25.949  38.427  46.654  1.00  0.00    -0.105 SA
HETATM   29  C   UNL     1      24.471  37.575  46.582  1.00  0.00     0.050 A 
HETATM   30  C   UNL     1      23.387  38.422  46.589  1.00  0.00     0.008 A 
HETATM   31  C   UNL     1      23.777  39.790  46.660  1.00  0.00     0.017 A 
ENDBRANCH  26  27
ENDBRANCH   1  26
BRANCH   8  32
HETATM   32  C   UNL     1      21.912  44.326  48.528  1.00  0.00     0.251 C 
HETATM   33  N   UNL     1      21.546  45.611  48.845  1.00  0.00    -0.355 N 
HETATM   34  H   UNL     1      22.161  46.211  49.377  1.00  0.00     0.162 HD
HETATM   35  O   UNL     1      21.283  43.606  47.761  1.00  0.00    -0.268 OA
BRANCH  33  36
HETATM   36  C   UNL     1      20.295  46.205  48.373  1.00  0.00     0.148 C 
BRANCH  36  37
HETATM   37  C   UNL     1      20.025  47.607  48.934  1.00  0.00     0.183 C 
BRANCH  37  38
HETATM   38  O   UNL     1      21.193  48.192  49.502  1.00  0.00    -0.399 OA
HETATM   39  H   UNL     1      20.914  48.982  50.012  1.00  0.00     0.209 HD
ENDBRANCH  37  38
ENDBRANCH  36  37
ENDBRANCH  33  36
ENDBRANCH   8  32
TORSDOF 11
ENDMDL
MODEL 6
REMARK VINA RESULT:      -7.4      3.346      5.631
REMARK  11 active torsions:
REMARK  status: ('A' for Active; 'I' for Inactive)
REMARK    1  A    between atoms: C_4  and  C_5 
REMARK    2  A    between atoms: C_5  and  N_6 
REMARK    3  A    between atoms: C_7  and  S_8 
REMARK    4  A    between atoms: C_9  and  C_10 
REMARK       I    between atoms: C_10  and  N_11 
REMARK    5  A    between atoms: N_11  and  C_12 
REMARK    6  A    between atoms: C_15  and  O_16 
REMARK    7  A    between atoms: O_16  and  C_17 
REMARK    8  A    between atoms: C_27  and  C_28 
REMARK       I    between atoms: C_28  and  N_29 
REMARK    9  A    between atoms: N_29  and  C_30 
REMARK   10  A    between atoms: C_30  and  C_31 
REMARK   11  A    between atoms: C_31  and  O_32 
ROOT
HETATM    1  N   UNL     1      22.275  47.564  48.296  1.00  0.00    -0.321 N 
HETATM    2  C   UNL     1      23.194  48.203  49.153  1.00  0.00     0.104 A 
HETATM    3  C   UNL     1      24.047  47.233  49.684  1.00  0.00     0.142 A 
HETATM    4  N   UNL     1      23.580  46.043  49.115  1.00  0.00    -0.301 N 
HETATM    5  C   UNL     1      22.558  46.256  48.294  1.00  0.00     0.116 A 
HETATM    6  C   UNL     1      24.137  44.676  49.322  1.00  0.00     0.100 A 
HETATM    7  C   UNL     1      23.511  43.659  48.609  1.00  0.00     0.035 A 
HETATM    8  C   UNL     1      22.432  43.930  47.763  1.00  0.00     0.036 A 
HETATM    9  C   UNL     1      21.944  45.230  47.596  1.00  0.00     0.066 A 
ENDROOT
BRANCH   3  10
HETATM   10  C   UNL     1      25.163  47.319  50.623  1.00  0.00     0.276 C 
HETATM   11  N   UNL     1      24.957  46.599  51.792  1.00  0.00    -0.322 N 
HETATM   12  H   UNL     1      24.107  46.053  51.886  1.00  0.00     0.169 HD
HETATM   13  O   UNL     1      26.175  47.990  50.420  1.00  0.00    -0.266 OA
BRANCH  11  14
HETATM   14  C   UNL     1      25.815  46.501  52.913  1.00  0.00     0.035 A 
HETATM   15  C   UNL     1      25.954  47.480  53.896  1.00  0.00     0.032 A 
HETATM   16  C   UNL     1      26.831  47.283  54.971  1.00  0.00     0.039 A 
HETATM   17  C   UNL     1      27.584  46.113  55.084  1.00  0.00     0.075 A 
HETATM   18  C   UNL     1      27.446  45.133  54.107  1.00  0.00     0.039 A 
HETATM   19  C   UNL     1      26.567  45.325  53.032  1.00  0.00     0.032 A 
BRANCH  17  20
HETATM   20  O   UNL     1      28.397  46.062  56.179  1.00  0.00    -0.290 OA
BRANCH  20  21
HETATM   21  C   UNL     1      29.779  45.787  55.983  1.00  0.00     0.505 C 
HETATM   22  F   UNL     1      30.495  46.272  57.026  1.00  0.00    -0.184 F 
HETATM   23  F   UNL     1      29.978  44.449  55.918  1.00  0.00    -0.184 F 
ENDBRANCH  20  21
ENDBRANCH  17  20
ENDBRANCH  11  14
ENDBRANCH   3  10
BRANCH   2  24
HETATM   24  S   UNL     1      23.231  49.928  49.502  1.00  0.00    -0.123 SA
HETATM   25  H   UNL     1      23.158  49.934  50.839  1.00  0.00     0.108 HD
ENDBRANCH   2  24
BRANCH   1  26
HETATM   26  C   UNL     1      21.195  48.181  47.514  1.00  0.00     0.177 C 
BRANCH  26  27
HETATM   27  C   UNL     1      19.905  48.086  48.267  1.00  0.00     0.001 A 
HETATM   28  S   UNL     1      18.555  47.276  47.584  1.00  0.00    -0.105 SA
HETATM   29  C   UNL     1      17.591  47.578  48.961  1.00  0.00     0.050 A 
HETATM   30  C   UNL     1      18.269  48.298  49.918  1.00  0.00     0.008 A 
HETATM   31  C   UNL     1      19.602  48.600  49.515  1.00  0.00     0.017 A 
ENDBRANCH  26  27
ENDBRANCH   1  26
BRANCH   8  32
HETATM   32  C   UNL     1      21.796  42.876  46.940  1.00  0.00     0.251 C 
HETATM   33  N   UNL     1      22.513  41.729  46.712  1.00  0.00    -0.355 N 
HETATM   34  H   UNL     1      23.401  41.570  47.168  1.00  0.00     0.162 HD
HETATM   35  O   UNL     1      20.651  43.057  46.541  1.00  0.00    -0.268 OA
BRANCH  33  36
HETATM   36  C   UNL     1      22.007  40.647  45.866  1.00  0.00     0.148 C 
BRANCH  36  37
HETATM   37  C   UNL     1      21.479  39.441  46.653  1.00  0.00     0.183 C 
BRANCH  37  38
HETATM   38  O   UNL     1      21.357  39.720  48.045  1.00  0.00    -0.399 OA
HETATM   39  H   UNL     1      22.256  39.889  48.396  1.00  0.00     0.209 HD
ENDBRANCH  37  38
ENDBRANCH  36  37
ENDBRANCH  33  36
ENDBRANCH   8  32
TORSDOF 11
ENDMDL
MODEL 7
REMARK VINA RESULT:      -7.4      5.555      9.081
REMARK  11 active torsions:
REMARK  status: ('A' for Active; 'I' for Inactive)
REMARK    1  A    between atoms: C_4  and  C_5 
REMARK    2  A    between atoms: C_5  and  N_6 
REMARK    3  A    between atoms: C_7  and  S_8 
REMARK    4  A    between atoms: C_9  and  C_10 
REMARK       I    between atoms: C_10  and  N_11 
REMARK    5  A    between atoms: N_11  and  C_12 
REMARK    6  A    between atoms: C_15  and  O_16 
REMARK    7  A    between atoms: O_16  and  C_17 
REMARK    8  A    between atoms: C_27  and  C_28 
REMARK       I    between atoms: C_28  and  N_29 
REMARK    9  A    between atoms: N_29  and  C_30 
REMARK   10  A    between atoms: C_30  and  C_31 
REMARK   11  A    between atoms: C_31  and  O_32 
ROOT
HETATM    1  N   UNL     1      16.090  49.690  47.551  1.00  0.00    -0.321 N 
HETATM    2  C   UNL     1      17.253  48.918  47.755  1.00  0.00     0.104 A 
HETATM    3  C   UNL     1      18.093  49.611  48.629  1.00  0.00     0.142 A 
HETATM    4  N   UNL     1      17.382  50.786  48.900  1.00  0.00    -0.301 N 
HETATM    5  C   UNL     1      16.208  50.807  48.278  1.00  0.00     0.116 A 
HETATM    6  C   UNL     1      17.803  51.897  49.799  1.00  0.00     0.100 A 
HETATM    7  C   UNL     1      16.894  52.943  49.927  1.00  0.00     0.035 A 
HETATM    8  C   UNL     1      15.675  52.926  49.244  1.00  0.00     0.036 A 
HETATM    9  C   UNL     1      15.318  51.859  48.414  1.00  0.00     0.066 A 
ENDROOT
BRANCH   3  10
HETATM   10  C   UNL     1      19.412  49.298  49.174  1.00  0.00     0.276 C 
HETATM   11  N   UNL     1      20.451  49.587  48.300  1.00  0.00    -0.322 N 
HETATM   12  H   UNL     1      20.234  50.017  47.408  1.00  0.00     0.169 HD
HETATM   13  O   UNL     1      19.590  48.796  50.283  1.00  0.00    -0.266 OA
BRANCH  11  14
HETATM   14  C   UNL     1      21.836  49.373  48.499  1.00  0.00     0.035 A 
HETATM   15  C   UNL     1      22.412  48.144  48.820  1.00  0.00     0.032 A 
HETATM   16  C   UNL     1      23.798  48.038  48.992  1.00  0.00     0.039 A 
HETATM   17  C   UNL     1      24.632  49.149  48.852  1.00  0.00     0.075 A 
HETATM   18  C   UNL     1      24.060  50.375  48.530  1.00  0.00     0.039 A 
HETATM   19  C   UNL     1      22.675  50.485  48.353  1.00  0.00     0.032 A 
BRANCH  17  20
HETATM   20  O   UNL     1      25.958  48.896  49.052  1.00  0.00    -0.290 OA
BRANCH  20  21
HETATM   21  C   UNL     1      26.323  47.699  49.730  1.00  0.00     0.505 C 
HETATM   22  F   UNL     1      27.449  47.185  49.179  1.00  0.00    -0.184 F 
HETATM   23  F   UNL     1      26.575  47.967  51.034  1.00  0.00    -0.184 F 
ENDBRANCH  20  21
ENDBRANCH  17  20
ENDBRANCH  11  14
ENDBRANCH   3  10
BRANCH   2  24
HETATM   24  S   UNL     1      17.584  47.359  47.008  1.00  0.00    -0.123 SA
HETATM   25  H   UNL     1      16.598  46.605  47.509  1.00  0.00     0.108 HD
ENDBRANCH   2  24
BRANCH   1  26
HETATM   26  C   UNL     1      14.928  49.362  46.714  1.00  0.00     0.177 C 
BRANCH  26  27
HETATM   27  C   UNL     1      15.015  50.100  45.415  1.00  0.00     0.001 A 
HETATM   28  S   UNL     1      16.152  49.627  44.219  1.00  0.00    -0.105 SA
HETATM   29  C   UNL     1      15.635  50.851  43.145  1.00  0.00     0.050 A 
HETATM   30  C   UNL     1      14.631  51.621  43.687  1.00  0.00     0.008 A 
HETATM   31  C   UNL     1      14.278  51.195  45.000  1.00  0.00     0.017 A 
ENDBRANCH  26  27
ENDBRANCH   1  26
BRANCH   8  32
HETATM   32  C   UNL     1      14.662  53.992  49.420  1.00  0.00     0.251 C 
HETATM   33  N   UNL     1      15.035  55.279  49.119  1.00  0.00    -0.355 N 
HETATM   34  H   UNL     1      15.934  55.476  48.701  1.00  0.00     0.162 HD
HETATM   35  O   UNL     1      13.535  53.674  49.781  1.00  0.00    -0.268 OA
BRANCH  33  36
HETATM   36  C   UNL     1      14.136  56.417  49.311  1.00  0.00     0.148 C 
BRANCH  36  37
HETATM   37  C   UNL     1      14.606  57.402  50.388  1.00  0.00     0.183 C 
BRANCH  37  38
HETATM   38  O   UNL     1      15.954  57.817  50.186  1.00  0.00    -0.399 OA
HETATM   39  H   UNL     1      16.473  57.540  50.970  1.00  0.00     0.209 HD
ENDBRANCH  37  38
ENDBRANCH  36  37
ENDBRANCH  33  36
ENDBRANCH   8  32
TORSDOF 11
ENDMDL
MODEL 8
REMARK VINA RESULT:      -7.3      5.772     10.713
REMARK  11 active torsions:
REMARK  status: ('A' for Active; 'I' for Inactive)
REMARK    1  A    between atoms: C_4  and  C_5 
REMARK    2  A    between atoms: C_5  and  N_6 
REMARK    3  A    between atoms: C_7  and  S_8 
REMARK    4  A    between atoms: C_9  and  C_10 
REMARK       I    between atoms: C_10  and  N_11 
REMARK    5  A    between atoms: N_11  and  C_12 
REMARK    6  A    between atoms: C_15  and  O_16 
REMARK    7  A    between atoms: O_16  and  C_17 
REMARK    8  A    between atoms: C_27  and  C_28 
REMARK       I    between atoms: C_28  and  N_29 
REMARK    9  A    between atoms: N_29  and  C_30 
REMARK   10  A    between atoms: C_30  and  C_31 
REMARK   11  A    between atoms: C_31  and  O_32 
ROOT
HETATM    1  N   UNL     1      25.263  45.507  49.717  1.00  0.00    -0.321 N 
HETATM    2  C   UNL     1      24.231  46.371  49.298  1.00  0.00     0.104 A 
HETATM    3  C   UNL     1      23.206  45.597  48.748  1.00  0.00     0.142 A 
HETATM    4  N   UNL     1      23.691  44.289  48.861  1.00  0.00    -0.301 N 
HETATM    5  C   UNL     1      24.884  44.254  49.445  1.00  0.00     0.116 A 
HETATM    6  C   UNL     1      22.995  43.040  48.442  1.00  0.00     0.100 A 
HETATM    7  C   UNL     1      23.681  41.856  48.697  1.00  0.00     0.035 A 
HETATM    8  C   UNL     1      24.939  41.869  49.305  1.00  0.00     0.036 A 
HETATM    9  C   UNL     1      25.554  43.065  49.686  1.00  0.00     0.066 A 
ENDROOT
BRANCH   3  10
HETATM   10  C   UNL     1      21.919  45.954  48.155  1.00  0.00     0.276 C 
HETATM   11  N   UNL     1      20.948  46.269  49.096  1.00  0.00    -0.322 N 
HETATM   12  H   UNL     1      21.202  46.275  50.078  1.00  0.00     0.169 HD
HETATM   13  O   UNL     1      21.700  45.944  46.945  1.00  0.00    -0.266 OA
BRANCH  11  14
HETATM   14  C   UNL     1      19.597  46.620  48.864  1.00  0.00     0.035 A 
HETATM   15  C   UNL     1      18.688  45.846  48.144  1.00  0.00     0.032 A 
HETATM   16  C   UNL     1      17.367  46.283  47.973  1.00  0.00     0.039 A 
HETATM   17  C   UNL     1      16.932  47.495  48.512  1.00  0.00     0.075 A 
HETATM   18  C   UNL     1      17.836  48.268  49.233  1.00  0.00     0.039 A 
HETATM   19  C   UNL     1      19.156  47.833  49.408  1.00  0.00     0.032 A 
BRANCH  17  20
HETATM   20  O   UNL     1      15.624  47.792  48.263  1.00  0.00    -0.290 OA
BRANCH  20  21
HETATM   21  C   UNL     1      15.326  48.706  47.214  1.00  0.00     0.505 C 
HETATM   22  F   UNL     1      14.170  48.346  46.605  1.00  0.00    -0.184 F 
HETATM   23  F   UNL     1      15.165  49.952  47.722  1.00  0.00    -0.184 F 
ENDBRANCH  20  21
ENDBRANCH  17  20
ENDBRANCH  11  14
ENDBRANCH   3  10
BRANCH   2  24
HETATM   24  S   UNL     1      24.255  48.126  49.429  1.00  0.00    -0.123 SA
HETATM   25  H   UNL     1      24.412  48.295  50.748  1.00  0.00     0.108 HD
ENDBRANCH   2  24
BRANCH   1  26
HETATM   26  C   UNL     1      26.536  45.870  50.356  1.00  0.00     0.177 C 
BRANCH  26  27
HETATM   27  C   UNL     1      26.350  45.967  51.838  1.00  0.00     0.001 A 
HETATM   28  S   UNL     1      26.788  44.658  52.858  1.00  0.00    -0.105 SA
HETATM   29  C   UNL     1      26.320  45.507  54.263  1.00  0.00     0.050 A 
HETATM   30  C   UNL     1      25.821  46.755  53.969  1.00  0.00     0.008 A 
HETATM   31  C   UNL     1      25.830  47.019  52.569  1.00  0.00     0.017 A 
ENDBRANCH  26  27
ENDBRANCH   1  26
BRANCH   8  32
HETATM   32  C   UNL     1      25.656  40.620  49.651  1.00  0.00     0.251 C 
HETATM   33  N   UNL     1      25.911  39.732  48.636  1.00  0.00    -0.355 N 
HETATM   34  H   UNL     1      25.704  39.966  47.674  1.00  0.00     0.162 HD
HETATM   35  O   UNL     1      26.023  40.458  50.809  1.00  0.00    -0.268 OA
BRANCH  33  36
HETATM   36  C   UNL     1      26.560  38.441  48.872  1.00  0.00     0.148 C 
BRANCH  36  37
HETATM   37  C   UNL     1      28.077  38.540  49.074  1.00  0.00     0.183 C 
BRANCH  37  38
HETATM   38  O   UNL     1      28.434  38.596  50.452  1.00  0.00    -0.399 OA
HETATM   39  H   UNL     1      28.424  39.538  50.725  1.00  0.00     0.209 HD
ENDBRANCH  37  38
ENDBRANCH  36  37
ENDBRANCH  33  36
ENDBRANCH   8  32
TORSDOF 11
ENDMDL
MODEL 9
REMARK VINA RESULT:      -7.2      3.826      5.328
REMARK  11 active torsions:
REMARK  status: ('A' for Active; 'I' for Inactive)
REMARK    1  A    between atoms: C_4  and  C_5 
REMARK    2  A    between atoms: C_5  and  N_6 
REMARK    3  A    between atoms: C_7  and  S_8 
REMARK    4  A    between atoms: C_9  and  C_10 
REMARK       I    between atoms: C_10  and  N_11 
REMARK    5  A    between atoms: N_11  and  C_12 
REMARK    6  A    between atoms: C_15  and  O_16 
REMARK    7  A    between atoms: O_16  and  C_17 
REMARK    8  A    between atoms: C_27  and  C_28 
REMARK       I    between atoms: C_28  and  N_29 
REMARK    9  A    between atoms: N_29  and  C_30 
REMARK   10  A    between atoms: C_30  and  C_31 
REMARK   11  A    between atoms: C_31  and  O_32 
ROOT
HETATM    1  N   UNL     1      26.785  40.530  48.405  1.00  0.00    -0.321 N 
HETATM    2  C   UNL     1      27.633  40.403  49.524  1.00  0.00     0.104 A 
HETATM    3  C   UNL     1      27.160  41.245  50.533  1.00  0.00     0.142 A 
HETATM    4  N   UNL     1      26.040  41.850  49.952  1.00  0.00    -0.301 N 
HETATM    5  C   UNL     1      25.825  41.408  48.718  1.00  0.00     0.116 A 
HETATM    6  C   UNL     1      25.128  42.840  50.591  1.00  0.00     0.100 A 
HETATM    7  C   UNL     1      24.059  43.265  49.808  1.00  0.00     0.035 A 
HETATM    8  C   UNL     1      23.879  42.779  48.510  1.00  0.00     0.036 A 
HETATM    9  C   UNL     1      24.758  41.847  47.951  1.00  0.00     0.066 A 
ENDROOT
BRANCH   3  10
HETATM   10  C   UNL     1      27.644  41.523  51.883  1.00  0.00     0.276 C 
HETATM   11  N   UNL     1      28.231  42.774  52.011  1.00  0.00    -0.322 N 
HETATM   12  H   UNL     1      28.240  43.394  51.209  1.00  0.00     0.169 HD
HETATM   13  O   UNL     1      27.573  40.719  52.812  1.00  0.00    -0.266 OA
BRANCH  11  14
HETATM   14  C   UNL     1      28.829  43.338  53.163  1.00  0.00     0.035 A 
HETATM   15  C   UNL     1      28.301  44.402  53.893  1.00  0.00     0.032 A 
HETATM   16  C   UNL     1      28.971  44.886  55.024  1.00  0.00     0.039 A 
HETATM   17  C   UNL     1      30.177  44.323  55.445  1.00  0.00     0.075 A 
HETATM   18  C   UNL     1      30.706  43.260  54.721  1.00  0.00     0.039 A 
HETATM   19  C   UNL     1      30.036  42.771  53.591  1.00  0.00     0.032 A 
BRANCH  17  20
HETATM   20  O   UNL     1      30.717  44.898  56.558  1.00  0.00    -0.290 OA
BRANCH  20  21
HETATM   21  C   UNL     1      31.205  44.049  57.589  1.00  0.00     0.505 C 
HETATM   22  F   UNL     1      32.454  43.623  57.280  1.00  0.00    -0.184 F 
HETATM   23  F   UNL     1      31.269  44.732  58.757  1.00  0.00    -0.184 F 
ENDBRANCH  20  21
ENDBRANCH  17  20
ENDBRANCH  11  14
ENDBRANCH   3  10
BRANCH   2  24
HETATM   24  S   UNL     1      29.057  39.371  49.610  1.00  0.00    -0.123 SA
HETATM   25  H   UNL     1      28.730  38.544  50.611  1.00  0.00     0.108 HD
ENDBRANCH   2  24
BRANCH   1  26
HETATM   26  C   UNL     1      26.887  39.836  47.114  1.00  0.00     0.177 C 
BRANCH  26  27
HETATM   27  C   UNL     1      26.133  38.544  47.172  1.00  0.00     0.001 A 
HETATM   28  S   UNL     1      24.658  38.359  46.315  1.00  0.00    -0.105 SA
HETATM   29  C   UNL     1      24.474  36.746  46.845  1.00  0.00     0.050 A 
HETATM   30  C   UNL     1      25.500  36.355  47.673  1.00  0.00     0.008 A 
HETATM   31  C   UNL     1      26.454  37.395  47.871  1.00  0.00     0.017 A 
ENDBRANCH  26  27
ENDBRANCH   1  26
BRANCH   8  32
HETATM   32  C   UNL     1      22.711  43.163  47.684  1.00  0.00     0.251 C 
HETATM   33  N   UNL     1      22.871  43.171  46.321  1.00  0.00    -0.355 N 
HETATM   34  H   UNL     1      23.724  42.835  45.895  1.00  0.00     0.162 HD
HETATM   35  O   UNL     1      21.652  43.411  48.250  1.00  0.00    -0.268 OA
BRANCH  33  36
HETATM   36  C   UNL     1      21.803  43.590  45.413  1.00  0.00     0.148 C 
BRANCH  36  37
HETATM   37  C   UNL     1      22.041  44.961  44.768  1.00  0.00     0.183 C 
BRANCH  37  38
HETATM   38  O   UNL     1      21.936  46.023  45.711  1.00  0.00    -0.399 OA
HETATM   39  H   UNL     1      20.987  46.255  45.797  1.00  0.00     0.209 HD
ENDBRANCH  37  38
ENDBRANCH  36  37
ENDBRANCH  33  36
ENDBRANCH   8  32
TORSDOF 11
ENDMDL
MODEL 10
REMARK VINA RESULT:      -7.1      4.358      7.385
REMARK  11 active torsions:
REMARK  status: ('A' for Active; 'I' for Inactive)
REMARK    1  A    between atoms: C_4  and  C_5 
REMARK    2  A    between atoms: C_5  and  N_6 
REMARK    3  A    between atoms: C_7  and  S_8 
REMARK    4  A    between atoms: C_9  and  C_10 
REMARK       I    between atoms: C_10  and  N_11 
REMARK    5  A    between atoms: N_11  and  C_12 
REMARK    6  A    between atoms: C_15  and  O_16 
REMARK    7  A    between atoms: O_16  and  C_17 
REMARK    8  A    between atoms: C_27  and  C_28 
REMARK       I    between atoms: C_28  and  N_29 
REMARK    9  A    between atoms: N_29  and  C_30 
REMARK   10  A    between atoms: C_30  and  C_31 
REMARK   11  A    between atoms: C_31  and  O_32 
ROOT
HETATM    1  N   UNL     1      24.698  41.454  48.702  1.00  0.00    -0.321 N 
HETATM    2  C   UNL     1      25.039  42.449  49.640  1.00  0.00     0.104 A 
HETATM    3  C   UNL     1      26.412  42.374  49.882  1.00  0.00     0.142 A 
HETATM    4  N   UNL     1      26.828  41.313  49.070  1.00  0.00    -0.301 N 
HETATM    5  C   UNL     1      25.819  40.800  48.375  1.00  0.00     0.116 A 
HETATM    6  C   UNL     1      28.217  40.797  48.917  1.00  0.00     0.100 A 
HETATM    7  C   UNL     1      28.373  39.750  48.014  1.00  0.00     0.035 A 
HETATM    8  C   UNL     1      27.279  39.235  47.312  1.00  0.00     0.036 A 
HETATM    9  C   UNL     1      25.992  39.754  47.484  1.00  0.00     0.066 A 
ENDROOT
BRANCH   3  10
HETATM   10  C   UNL     1      27.295  43.141  50.758  1.00  0.00     0.276 C 
HETATM   11  N   UNL     1      27.662  42.456  51.908  1.00  0.00    -0.322 N 
HETATM   12  H   UNL     1      27.344  41.500  52.030  1.00  0.00     0.169 HD
HETATM   13  O   UNL     1      27.655  44.294  50.523  1.00  0.00    -0.266 OA
BRANCH  11  14
HETATM   14  C   UNL     1      28.470  42.918  52.973  1.00  0.00     0.035 A 
HETATM   15  C   UNL     1      29.800  42.552  53.178  1.00  0.00     0.032 A 
HETATM   16  C   UNL     1      30.516  43.071  54.265  1.00  0.00     0.039 A 
HETATM   17  C   UNL     1      29.922  43.956  55.166  1.00  0.00     0.075 A 
HETATM   18  C   UNL     1      28.596  44.325  54.963  1.00  0.00     0.039 A 
HETATM   19  C   UNL     1      27.878  43.811  53.875  1.00  0.00     0.032 A 
BRANCH  17  20
HETATM   20  O   UNL     1      30.738  44.375  56.176  1.00  0.00    -0.290 OA
BRANCH  20  21
HETATM   21  C   UNL     1      31.624  43.430  56.765  1.00  0.00     0.505 C 
HETATM   22  F   UNL     1      32.366  44.033  57.725  1.00  0.00    -0.184 F 
HETATM   23  F   UNL     1      30.915  42.432  57.344  1.00  0.00    -0.184 F 
ENDBRANCH  20  21
ENDBRANCH  17  20
ENDBRANCH  11  14
ENDBRANCH   3  10
BRANCH   2  24
HETATM   24  S   UNL     1      23.908  43.574  50.388  1.00  0.00    -0.123 SA
HETATM   25  H   UNL     1      22.730  43.058  50.016  1.00  0.00     0.108 HD
ENDBRANCH   2  24
BRANCH   1  26
HETATM   26  C   UNL     1      23.372  41.159  48.144  1.00  0.00     0.177 C 
BRANCH  26  27
HETATM   27  C   UNL     1      23.192  41.888  46.849  1.00  0.00     0.001 A 
HETATM   28  S   UNL     1      22.952  41.021  45.388  1.00  0.00    -0.105 SA
HETATM   29  C   UNL     1      22.828  42.459  44.475  1.00  0.00     0.050 A 
HETATM   30  C   UNL     1      22.985  43.581  45.256  1.00  0.00     0.008 A 
HETATM   31  C   UNL     1      23.204  43.253  46.625  1.00  0.00     0.017 A 
ENDBRANCH  26  27
ENDBRANCH   1  26
BRANCH   8  32
HETATM   32  C   UNL     1      27.431  38.170  46.295  1.00  0.00     0.251 C 
HETATM   33  N   UNL     1      27.756  36.912  46.736  1.00  0.00    -0.355 N 
HETATM   34  H   UNL     1      27.794  36.699  47.723  1.00  0.00     0.162 HD
HETATM   35  O   UNL     1      27.219  38.449  45.120  1.00  0.00    -0.268 OA
BRANCH  33  36
HETATM   36  C   UNL     1      27.988  35.798  45.815  1.00  0.00     0.148 C 
BRANCH  36  37
HETATM   37  C   UNL     1      27.294  34.495  46.233  1.00  0.00     0.183 C 
BRANCH  37  38
HETATM   38  O   UNL     1      26.976  34.477  47.621  1.00  0.00    -0.399 OA
HETATM   39  H   UNL     1      26.327  33.757  47.769  1.00  0.00     0.209 HD
ENDBRANCH  37  38
ENDBRANCH  36  37
ENDBRANCH  33  36
ENDBRANCH   8  32
TORSDOF 11
ENDMDL
