MODEL 1
REMARK VINA RESULT:      -9.9      0.000      0.000
REMARK  3 active torsions:
REMARK  status: ('A' for Active; 'I' for Inactive)
REMARK    1  A    between atoms: C_6  and  C_7 
REMARK    2  A    between atoms: C_14  and  N_15 
REMARK    3  A    between atoms: N_15  and  C_16 
ROOT
HETATM    1  C   UNL     1      27.052  40.398  49.352  1.00  0.00     0.001 A 
HETATM    2  C   UNL     1      26.700  41.687  49.742  1.00  0.00     0.018 A 
HETATM    3  C   UNL     1      27.295  42.292  50.880  1.00  0.00     0.039 A 
HETATM    4  C   UNL     1      28.260  41.585  51.609  1.00  0.00     0.073 A 
HETATM    5  N   UNL     1      28.875  42.094  52.681  1.00  0.00    -0.228 NA
HETATM    6  C   UNL     1      28.543  43.340  53.054  1.00  0.00     0.164 A 
HETATM    7  N   UNL     1      27.637  44.102  52.425  1.00  0.00    -0.210 NA
HETATM    8  C   UNL     1      27.013  43.585  51.353  1.00  0.00     0.143 A 
HETATM    9  C   UNL     1      28.594  40.300  51.200  1.00  0.00     0.032 A 
HETATM   10  C   UNL     1      28.002  39.700  50.085  1.00  0.00     0.002 A 
ENDROOT
BRANCH   8  11
HETATM   11  N   UNL     1      26.023  44.361  50.692  1.00  0.00    -0.340 N 
HETATM   12  H   UNL     1      25.118  44.152  51.099  1.00  0.00     0.167 HD
BRANCH  11  13
HETATM   13  C   UNL     1      26.118  45.709  50.277  1.00  0.00     0.036 A 
HETATM   14  C   UNL     1      24.980  46.528  50.336  1.00  0.00     0.069 A 
HETATM   15  C   UNL     1      25.013  47.841  49.857  1.00  0.00     0.104 A 
HETATM   16  C   UNL     1      26.190  48.358  49.314  1.00  0.00     0.102 A 
HETATM   17  O   UNL     1      23.882  48.589  50.047  1.00  0.00    -0.348 OA
HETATM   18  O   UNL     1      26.330  49.659  48.920  1.00  0.00    -0.348 OA
HETATM   19  C   UNL     1      27.326  47.557  49.245  1.00  0.00     0.042 A 
HETATM   20  C   UNL     1      25.457  49.991  47.840  1.00  0.00     0.178 C 
HETATM   21  C   UNL     1      24.055  50.321  48.325  1.00  0.00     0.053 C 
HETATM   22  C   UNL     1      23.339  49.073  48.818  1.00  0.00     0.178 C 
HETATM   23  C   UNL     1      27.280  46.235  49.698  1.00  0.00     0.032 A 
ENDBRANCH  11  13
ENDBRANCH   8  11
BRANCH   6  24
HETATM   24  C   UNL     1      29.204  43.906  54.236  1.00  0.00     0.029 A 
HETATM   25  C   UNL     1      28.748  45.075  54.847  1.00  0.00     0.131 A 
HETATM   26  N   UNL     1      29.307  45.658  55.941  1.00  0.00    -0.272 NA
HETATM   27  C   UNL     1      30.390  45.048  56.463  1.00  0.00     0.116 A 
HETATM   28  C   UNL     1      30.935  43.886  55.947  1.00  0.00     0.020 A 
HETATM   29  C   UNL     1      30.333  43.315  54.827  1.00  0.00     0.018 A 
ENDBRANCH   6  24
TORSDOF 3
ENDMDL
MODEL 2
REMARK VINA RESULT:      -9.8      3.077      7.375
REMARK  3 active torsions:
REMARK  status: ('A' for Active; 'I' for Inactive)
REMARK    1  A    between atoms: C_6  and  C_7 
REMARK    2  A    between atoms: C_14  and  N_15 
REMARK    3  A    between atoms: N_15  and  C_16 
ROOT
HETATM    1  C   UNL     1      28.023  40.550  50.430  1.00  0.00     0.001 A 
HETATM    2  C   UNL     1      27.570  41.411  51.425  1.00  0.00     0.018 A 
HETATM    3  C   UNL     1      26.810  42.565  51.099  1.00  0.00     0.039 A 
HETATM    4  C   UNL     1      26.501  42.829  49.759  1.00  0.00     0.073 A 
HETATM    5  N   UNL     1      25.777  43.885  49.377  1.00  0.00    -0.228 NA
HETATM    6  C   UNL     1      25.332  44.713  50.335  1.00  0.00     0.164 A 
HETATM    7  N   UNL     1      25.569  44.551  51.645  1.00  0.00    -0.210 NA
HETATM    8  C   UNL     1      26.305  43.492  52.026  1.00  0.00     0.143 A 
HETATM    9  C   UNL     1      26.964  41.954  48.784  1.00  0.00     0.032 A 
HETATM   10  C   UNL     1      27.721  40.824  49.103  1.00  0.00     0.002 A 
ENDROOT
BRANCH   8  11
HETATM   11  N   UNL     1      26.598  43.320  53.406  1.00  0.00    -0.340 N 
HETATM   12  H   UNL     1      26.559  42.331  53.628  1.00  0.00     0.167 HD
BRANCH  11  13
HETATM   13  C   UNL     1      27.575  43.996  54.172  1.00  0.00     0.036 A 
HETATM   14  C   UNL     1      28.775  43.341  54.486  1.00  0.00     0.069 A 
HETATM   15  C   UNL     1      29.730  43.945  55.311  1.00  0.00     0.104 A 
HETATM   16  C   UNL     1      29.499  45.219  55.831  1.00  0.00     0.102 A 
HETATM   17  O   UNL     1      30.907  43.267  55.480  1.00  0.00    -0.348 OA
HETATM   18  O   UNL     1      30.423  45.915  56.558  1.00  0.00    -0.348 OA
HETATM   19  C   UNL     1      28.311  45.880  55.531  1.00  0.00     0.042 A 
HETATM   20  C   UNL     1      30.746  45.260  57.786  1.00  0.00     0.178 C 
HETATM   21  C   UNL     1      31.775  44.159  57.588  1.00  0.00     0.053 C 
HETATM   22  C   UNL     1      31.171  42.973  56.852  1.00  0.00     0.178 C 
HETATM   23  C   UNL     1      27.347  45.261  54.731  1.00  0.00     0.032 A 
ENDBRANCH  11  13
ENDBRANCH   8  11
BRANCH   6  24
HETATM   24  C   UNL     1      24.546  45.884  49.928  1.00  0.00     0.029 A 
HETATM   25  C   UNL     1      24.816  47.162  50.417  1.00  0.00     0.131 A 
HETATM   26  N   UNL     1      24.131  48.290  50.088  1.00  0.00    -0.272 NA
HETATM   27  C   UNL     1      23.111  48.144  49.219  1.00  0.00     0.116 A 
HETATM   28  C   UNL     1      22.746  46.930  48.666  1.00  0.00     0.020 A 
HETATM   29  C   UNL     1      23.472  45.795  49.025  1.00  0.00     0.018 A 
ENDBRANCH   6  24
TORSDOF 3
ENDMDL
MODEL 3
REMARK VINA RESULT:      -9.7      3.514      8.728
REMARK  3 active torsions:
REMARK  status: ('A' for Active; 'I' for Inactive)
REMARK    1  A    between atoms: C_6  and  C_7 
REMARK    2  A    between atoms: C_14  and  N_15 
REMARK    3  A    between atoms: N_15  and  C_16 
ROOT
HETATM    1  C   UNL     1      27.814  48.413  49.175  1.00  0.00     0.001 A 
HETATM    2  C   UNL     1      26.712  47.648  49.549  1.00  0.00     0.018 A 
HETATM    3  C   UNL     1      25.393  48.158  49.417  1.00  0.00     0.039 A 
HETATM    4  C   UNL     1      25.202  49.441  48.889  1.00  0.00     0.073 A 
HETATM    5  N   UNL     1      23.992  49.982  48.719  1.00  0.00    -0.228 NA
HETATM    6  C   UNL     1      22.927  49.244  49.071  1.00  0.00     0.164 A 
HETATM    7  N   UNL     1      23.000  48.007  49.582  1.00  0.00    -0.210 NA
HETATM    8  C   UNL     1      24.218  47.468  49.760  1.00  0.00     0.143 A 
HETATM    9  C   UNL     1      26.318  50.184  48.523  1.00  0.00     0.032 A 
HETATM   10  C   UNL     1      27.616  49.687  48.662  1.00  0.00     0.002 A 
ENDROOT
BRANCH   8  11
HETATM   11  N   UNL     1      24.320  46.172  50.333  1.00  0.00    -0.340 N 
HETATM   12  H   UNL     1      24.368  45.487  49.587  1.00  0.00     0.167 HD
BRANCH  11  13
HETATM   13  C   UNL     1      25.083  45.783  51.457  1.00  0.00     0.036 A 
HETATM   14  C   UNL     1      25.168  46.644  52.562  1.00  0.00     0.069 A 
HETATM   15  C   UNL     1      25.979  46.332  53.658  1.00  0.00     0.104 A 
HETATM   16  C   UNL     1      26.717  45.148  53.666  1.00  0.00     0.102 A 
HETATM   17  O   UNL     1      25.919  47.187  54.725  1.00  0.00    -0.348 OA
HETATM   18  O   UNL     1      27.450  44.725  54.739  1.00  0.00    -0.348 OA
HETATM   19  C   UNL     1      26.647  44.285  52.576  1.00  0.00     0.042 A 
HETATM   20  C   UNL     1      28.519  45.621  55.048  1.00  0.00     0.178 C 
HETATM   21  C   UNL     1      28.045  46.804  55.875  1.00  0.00     0.053 C 
HETATM   22  C   UNL     1      27.193  47.749  55.043  1.00  0.00     0.178 C 
HETATM   23  C   UNL     1      25.858  44.615  51.471  1.00  0.00     0.032 A 
ENDBRANCH  11  13
ENDBRANCH   8  11
BRANCH   6  24
HETATM   24  C   UNL     1      21.592  49.831  48.900  1.00  0.00     0.029 A 
HETATM   25  C   UNL     1      20.429  49.073  49.037  1.00  0.00     0.131 A 
HETATM   26  N   UNL     1      19.162  49.545  48.893  1.00  0.00    -0.272 NA
HETATM   27  C   UNL     1      19.037  50.853  48.589  1.00  0.00     0.116 A 
HETATM   28  C   UNL     1      20.114  51.706  48.427  1.00  0.00     0.020 A 
HETATM   29  C   UNL     1      21.398  51.187  48.586  1.00  0.00     0.018 A 
ENDBRANCH   6  24
TORSDOF 3
ENDMDL
MODEL 4
REMARK VINA RESULT:      -9.3      1.344      4.819
REMARK  3 active torsions:
REMARK  status: ('A' for Active; 'I' for Inactive)
REMARK    1  A    between atoms: C_6  and  C_7 
REMARK    2  A    between atoms: C_14  and  N_15 
REMARK    3  A    between atoms: N_15  and  C_16 
ROOT
HETATM    1  C   UNL     1      29.835  45.092  55.747  1.00  0.00     0.001 A 
HETATM    2  C   UNL     1      28.788  45.331  54.860  1.00  0.00     0.018 A 
HETATM    3  C   UNL     1      28.420  44.362  53.889  1.00  0.00     0.039 A 
HETATM    4  C   UNL     1      29.111  43.145  53.836  1.00  0.00     0.073 A 
HETATM    5  N   UNL     1      28.812  42.180  52.961  1.00  0.00    -0.228 NA
HETATM    6  C   UNL     1      27.798  42.405  52.111  1.00  0.00     0.164 A 
HETATM    7  N   UNL     1      27.072  43.532  52.080  1.00  0.00    -0.210 NA
HETATM    8  C   UNL     1      27.380  44.505  52.955  1.00  0.00     0.143 A 
HETATM    9  C   UNL     1      30.152  42.930  54.731  1.00  0.00     0.032 A 
HETATM   10  C   UNL     1      30.521  43.887  55.681  1.00  0.00     0.002 A 
ENDROOT
BRANCH   8  11
HETATM   11  N   UNL     1      26.647  45.721  52.917  1.00  0.00    -0.340 N 
HETATM   12  H   UNL     1      27.068  46.378  53.565  1.00  0.00     0.167 HD
BRANCH  11  13
HETATM   13  C   UNL     1      26.110  46.370  51.782  1.00  0.00     0.036 A 
HETATM   14  C   UNL     1      26.974  47.015  50.885  1.00  0.00     0.069 A 
HETATM   15  C   UNL     1      26.474  47.737  49.797  1.00  0.00     0.104 A 
HETATM   16  C   UNL     1      25.098  47.822  49.587  1.00  0.00     0.102 A 
HETATM   17  O   UNL     1      27.400  48.248  48.926  1.00  0.00    -0.348 OA
HETATM   18  O   UNL     1      24.538  48.422  48.495  1.00  0.00    -0.348 OA
HETATM   19  C   UNL     1      24.226  47.192  50.471  1.00  0.00     0.042 A 
HETATM   20  C   UNL     1      24.829  49.819  48.439  1.00  0.00     0.178 C 
HETATM   21  C   UNL     1      26.202  50.089  47.846  1.00  0.00     0.053 C 
HETATM   22  C   UNL     1      27.304  49.668  48.805  1.00  0.00     0.178 C 
HETATM   23  C   UNL     1      24.729  46.495  51.573  1.00  0.00     0.032 A 
ENDBRANCH  11  13
ENDBRANCH   8  11
BRANCH   6  24
HETATM   24  C   UNL     1      27.467  41.357  51.138  1.00  0.00     0.029 A 
HETATM   25  C   UNL     1      28.374  40.353  50.796  1.00  0.00     0.131 A 
HETATM   26  N   UNL     1      28.139  39.354  49.904  1.00  0.00    -0.272 NA
HETATM   27  C   UNL     1      26.929  39.348  49.309  1.00  0.00     0.116 A 
HETATM   28  C   UNL     1      25.948  40.288  49.564  1.00  0.00     0.020 A 
HETATM   29  C   UNL     1      26.223  41.297  50.486  1.00  0.00     0.018 A 
ENDBRANCH   6  24
TORSDOF 3
ENDMDL
MODEL 5
REMARK VINA RESULT:      -9.3      1.519      4.683
REMARK  3 active torsions:
REMARK  status: ('A' for Active; 'I' for Inactive)
REMARK    1  A    between atoms: C_6  and  C_7 
REMARK    2  A    between atoms: C_14  and  N_15 
REMARK    3  A    between atoms: N_15  and  C_16 
ROOT
HETATM    1  C   UNL     1      28.357  44.608  54.479  1.00  0.00     0.001 A 
HETATM    2  C   UNL     1      27.512  44.542  53.374  1.00  0.00     0.018 A 
HETATM    3  C   UNL     1      27.652  43.507  52.412  1.00  0.00     0.039 A 
HETATM    4  C   UNL     1      28.643  42.533  52.588  1.00  0.00     0.073 A 
HETATM    5  N   UNL     1      28.823  41.520  51.735  1.00  0.00    -0.228 NA
HETATM    6  C   UNL     1      28.006  41.449  50.673  1.00  0.00     0.164 A 
HETATM    7  N   UNL     1      27.025  42.326  50.414  1.00  0.00    -0.210 NA
HETATM    8  C   UNL     1      26.850  43.348  51.268  1.00  0.00     0.143 A 
HETATM    9  C   UNL     1      29.473  42.621  53.699  1.00  0.00     0.032 A 
HETATM   10  C   UNL     1      29.343  43.646  54.641  1.00  0.00     0.002 A 
ENDROOT
BRANCH   8  11
HETATM   11  N   UNL     1      25.840  44.309  50.994  1.00  0.00    -0.340 N 
HETATM   12  H   UNL     1      25.138  44.264  51.724  1.00  0.00     0.167 HD
BRANCH  11  13
HETATM   13  C   UNL     1      26.010  45.625  50.506  1.00  0.00     0.036 A 
HETATM   14  C   UNL     1      24.940  46.529  50.578  1.00  0.00     0.069 A 
HETATM   15  C   UNL     1      25.043  47.812  50.031  1.00  0.00     0.104 A 
HETATM   16  C   UNL     1      26.223  48.212  49.405  1.00  0.00     0.102 A 
HETATM   17  O   UNL     1      23.980  48.650  50.238  1.00  0.00    -0.348 OA
HETATM   18  O   UNL     1      26.436  49.478  48.937  1.00  0.00    -0.348 OA
HETATM   19  C   UNL     1      27.293  47.325  49.321  1.00  0.00     0.042 A 
HETATM   20  C   UNL     1      25.533  49.824  47.886  1.00  0.00     0.178 C 
HETATM   21  C   UNL     1      24.186  50.280  48.423  1.00  0.00     0.053 C 
HETATM   22  C   UNL     1      23.409  49.114  49.014  1.00  0.00     0.178 C 
HETATM   23  C   UNL     1      27.176  46.034  49.843  1.00  0.00     0.032 A 
ENDBRANCH  11  13
ENDBRANCH   8  11
BRANCH   6  24
HETATM   24  C   UNL     1      28.202  40.348  49.722  1.00  0.00     0.029 A 
HETATM   25  C   UNL     1      28.570  39.069  50.140  1.00  0.00     0.131 A 
HETATM   26  N   UNL     1      28.770  38.003  49.320  1.00  0.00    -0.272 NA
HETATM   27  C   UNL     1      28.598  38.216  48.000  1.00  0.00     0.116 A 
HETATM   28  C   UNL     1      28.235  39.439  47.465  1.00  0.00     0.020 A 
HETATM   29  C   UNL     1      28.035  40.508  48.336  1.00  0.00     0.018 A 
ENDBRANCH   6  24
TORSDOF 3
ENDMDL
MODEL 6
REMARK VINA RESULT:      -9.2      1.968      5.033
REMARK  3 active torsions:
REMARK  status: ('A' for Active; 'I' for Inactive)
REMARK    1  A    between atoms: C_6  and  C_7 
REMARK    2  A    between atoms: C_14  and  N_15 
REMARK    3  A    between atoms: N_15  and  C_16 
ROOT
HETATM    1  C   UNL     1      29.013  44.810  55.274  1.00  0.00     0.001 A 
HETATM    2  C   UNL     1      27.948  44.445  54.455  1.00  0.00     0.018 A 
HETATM    3  C   UNL     1      28.062  43.355  53.553  1.00  0.00     0.039 A 
HETATM    4  C   UNL     1      29.258  42.629  53.500  1.00  0.00     0.073 A 
HETATM    5  N   UNL     1      29.435  41.581  52.689  1.00  0.00    -0.228 NA
HETATM    6  C   UNL     1      28.407  41.223  51.905  1.00  0.00     0.164 A 
HETATM    7  N   UNL     1      27.220  41.847  51.881  1.00  0.00    -0.210 NA
HETATM    8  C   UNL     1      27.048  42.905  52.691  1.00  0.00     0.143 A 
HETATM    9  C   UNL     1      30.307  43.012  54.327  1.00  0.00     0.032 A 
HETATM   10  C   UNL     1      30.199  44.092  55.208  1.00  0.00     0.002 A 
ENDROOT
BRANCH   8  11
HETATM   11  N   UNL     1      25.811  43.604  52.656  1.00  0.00    -0.340 N 
HETATM   12  H   UNL     1      25.788  44.268  53.422  1.00  0.00     0.167 HD
BRANCH  11  13
HETATM   13  C   UNL     1      25.123  44.085  51.519  1.00  0.00     0.036 A 
HETATM   14  C   UNL     1      25.353  45.398  51.081  1.00  0.00     0.069 A 
HETATM   15  C   UNL     1      24.631  45.937  50.011  1.00  0.00     0.104 A 
HETATM   16  C   UNL     1      23.668  45.166  49.359  1.00  0.00     0.102 A 
HETATM   17  O   UNL     1      24.995  47.190  49.598  1.00  0.00    -0.348 OA
HETATM   18  O   UNL     1      22.995  45.585  48.246  1.00  0.00    -0.348 OA
HETATM   19  C   UNL     1      23.425  43.863  49.784  1.00  0.00     0.042 A 
HETATM   20  C   UNL     1      22.182  46.730  48.506  1.00  0.00     0.178 C 
HETATM   21  C   UNL     1      22.988  48.018  48.468  1.00  0.00     0.053 C 
HETATM   22  C   UNL     1      23.914  48.120  49.670  1.00  0.00     0.178 C 
HETATM   23  C   UNL     1      24.128  43.339  50.872  1.00  0.00     0.032 A 
ENDBRANCH  11  13
ENDBRANCH   8  11
BRANCH   6  24
HETATM   24  C   UNL     1      28.592  40.080  51.001  1.00  0.00     0.029 A 
HETATM   25  C   UNL     1      27.887  39.965  49.803  1.00  0.00     0.131 A 
HETATM   26  N   UNL     1      28.004  38.939  48.919  1.00  0.00    -0.272 NA
HETATM   27  C   UNL     1      28.872  37.960  49.242  1.00  0.00     0.116 A 
HETATM   28  C   UNL     1      29.627  37.961  50.401  1.00  0.00     0.020 A 
HETATM   29  C   UNL     1      29.483  39.031  51.283  1.00  0.00     0.018 A 
ENDBRANCH   6  24
TORSDOF 3
ENDMDL
MODEL 7
REMARK VINA RESULT:      -9.1      1.643      2.349
REMARK  3 active torsions:
REMARK  status: ('A' for Active; 'I' for Inactive)
REMARK    1  A    between atoms: C_6  and  C_7 
REMARK    2  A    between atoms: C_14  and  N_15 
REMARK    3  A    between atoms: N_15  and  C_16 
ROOT
HETATM    1  C   UNL     1      27.007  39.939  50.012  1.00  0.00     0.001 A 
HETATM    2  C   UNL     1      26.350  40.971  50.677  1.00  0.00     0.018 A 
HETATM    3  C   UNL     1      27.014  41.732  51.675  1.00  0.00     0.039 A 
HETATM    4  C   UNL     1      28.352  41.450  51.979  1.00  0.00     0.073 A 
HETATM    5  N   UNL     1      29.047  42.134  52.893  1.00  0.00    -0.228 NA
HETATM    6  C   UNL     1      28.419  43.134  53.531  1.00  0.00     0.164 A 
HETATM    7  N   UNL     1      27.144  43.488  53.312  1.00  0.00    -0.210 NA
HETATM    8  C   UNL     1      26.444  42.793  52.399  1.00  0.00     0.143 A 
HETATM    9  C   UNL     1      28.985  40.415  51.302  1.00  0.00     0.032 A 
HETATM   10  C   UNL     1      28.329  39.658  50.327  1.00  0.00     0.002 A 
ENDROOT
BRANCH   8  11
HETATM   11  N   UNL     1      25.081  43.128  52.176  1.00  0.00    -0.340 N 
HETATM   12  H   UNL     1      24.668  43.421  53.055  1.00  0.00     0.167 HD
BRANCH  11  13
HETATM   13  C   UNL     1      24.532  43.826  51.076  1.00  0.00     0.036 A 
HETATM   14  C   UNL     1      24.937  45.146  50.828  1.00  0.00     0.069 A 
HETATM   15  C   UNL     1      24.355  45.896  49.801  1.00  0.00     0.104 A 
HETATM   16  C   UNL     1      23.360  45.332  49.001  1.00  0.00     0.102 A 
HETATM   17  O   UNL     1      24.885  47.138  49.577  1.00  0.00    -0.348 OA
HETATM   18  O   UNL     1      22.818  45.964  47.917  1.00  0.00    -0.348 OA
HETATM   19  C   UNL     1      22.945  44.025  49.237  1.00  0.00     0.042 A 
HETATM   20  C   UNL     1      22.121  47.156  48.281  1.00  0.00     0.178 C 
HETATM   21  C   UNL     1      23.066  48.334  48.457  1.00  0.00     0.053 C 
HETATM   22  C   UNL     1      23.911  48.175  49.710  1.00  0.00     0.178 C 
HETATM   23  C   UNL     1      23.508  43.289  50.284  1.00  0.00     0.032 A 
ENDBRANCH  11  13
ENDBRANCH   8  11
BRANCH   6  24
HETATM   24  C   UNL     1      29.168  43.885  54.545  1.00  0.00     0.029 A 
HETATM   25  C   UNL     1      28.770  45.154  54.968  1.00  0.00     0.131 A 
HETATM   26  N   UNL     1      29.412  45.909  55.899  1.00  0.00    -0.272 NA
HETATM   27  C   UNL     1      30.523  45.376  56.446  1.00  0.00     0.116 A 
HETATM   28  C   UNL     1      31.018  44.129  56.109  1.00  0.00     0.020 A 
HETATM   29  C   UNL     1      30.331  43.382  55.152  1.00  0.00     0.018 A 
ENDBRANCH   6  24
TORSDOF 3
ENDMDL
MODEL 8
REMARK VINA RESULT:      -9.1      2.139      5.252
REMARK  3 active torsions:
REMARK  status: ('A' for Active; 'I' for Inactive)
REMARK    1  A    between atoms: C_6  and  C_7 
REMARK    2  A    between atoms: C_14  and  N_15 
REMARK    3  A    between atoms: N_15  and  C_16 
ROOT
HETATM    1  C   UNL     1      29.861  45.390  56.169  1.00  0.00     0.001 A 
HETATM    2  C   UNL     1      28.844  45.411  55.217  1.00  0.00     0.018 A 
HETATM    3  C   UNL     1      28.726  44.373  54.257  1.00  0.00     0.039 A 
HETATM    4  C   UNL     1      29.635  43.307  54.279  1.00  0.00     0.073 A 
HETATM    5  N   UNL     1      29.576  42.287  53.418  1.00  0.00    -0.228 NA
HETATM    6  C   UNL     1      28.593  42.300  52.504  1.00  0.00     0.164 A 
HETATM    7  N   UNL     1      27.671  43.269  52.399  1.00  0.00    -0.210 NA
HETATM    8  C   UNL     1      27.737  44.298  53.260  1.00  0.00     0.143 A 
HETATM    9  C   UNL     1      30.640  43.310  55.238  1.00  0.00     0.032 A 
HETATM   10  C   UNL     1      30.763  44.336  56.178  1.00  0.00     0.002 A 
ENDROOT
BRANCH   8  11
HETATM   11  N   UNL     1      26.792  45.353  53.144  1.00  0.00    -0.340 N 
HETATM   12  H   UNL     1      27.230  46.219  53.440  1.00  0.00     0.167 HD
BRANCH  11  13
HETATM   13  C   UNL     1      25.855  45.562  52.107  1.00  0.00     0.036 A 
HETATM   14  C   UNL     1      24.838  44.619  51.900  1.00  0.00     0.069 A 
HETATM   15  C   UNL     1      23.943  44.748  50.833  1.00  0.00     0.104 A 
HETATM   16  C   UNL     1      24.050  45.829  49.958  1.00  0.00     0.102 A 
HETATM   17  O   UNL     1      22.928  43.830  50.772  1.00  0.00    -0.348 OA
HETATM   18  O   UNL     1      23.155  46.079  48.956  1.00  0.00    -0.348 OA
HETATM   19  C   UNL     1      25.056  46.772  50.148  1.00  0.00     0.042 A 
HETATM   20  C   UNL     1      23.137  45.039  47.977  1.00  0.00     0.178 C 
HETATM   21  C   UNL     1      22.277  43.865  48.413  1.00  0.00     0.053 C 
HETATM   22  C   UNL     1      22.935  43.096  49.547  1.00  0.00     0.178 C 
HETATM   23  C   UNL     1      25.966  46.623  51.198  1.00  0.00     0.032 A 
ENDBRANCH  11  13
ENDBRANCH   8  11
BRANCH   6  24
HETATM   24  C   UNL     1      28.525  41.191  51.546  1.00  0.00     0.029 A 
HETATM   25  C   UNL     1      29.172  39.976  51.775  1.00  0.00     0.131 A 
HETATM   26  N   UNL     1      29.155  38.907  50.934  1.00  0.00    -0.272 NA
HETATM   27  C   UNL     1      28.456  39.049  49.791  1.00  0.00     0.116 A 
HETATM   28  C   UNL     1      27.774  40.204  49.451  1.00  0.00     0.020 A 
HETATM   29  C   UNL     1      27.811  41.279  50.338  1.00  0.00     0.018 A 
ENDBRANCH   6  24
TORSDOF 3
ENDMDL
MODEL 9
REMARK VINA RESULT:      -8.9      3.464      7.771
REMARK  3 active torsions:
REMARK  status: ('A' for Active; 'I' for Inactive)
REMARK    1  A    between atoms: C_6  and  C_7 
REMARK    2  A    between atoms: C_14  and  N_15 
REMARK    3  A    between atoms: N_15  and  C_16 
ROOT
HETATM    1  C   UNL     1      30.698  43.542  55.814  1.00  0.00     0.001 A 
HETATM    2  C   UNL     1      30.197  42.923  54.672  1.00  0.00     0.018 A 
HETATM    3  C   UNL     1      29.180  43.538  53.897  1.00  0.00     0.039 A 
HETATM    4  C   UNL     1      28.686  44.791  54.279  1.00  0.00     0.073 A 
HETATM    5  N   UNL     1      27.741  45.439  53.591  1.00  0.00    -0.228 NA
HETATM    6  C   UNL     1      27.262  44.848  52.486  1.00  0.00     0.164 A 
HETATM    7  N   UNL     1      27.667  43.653  52.031  1.00  0.00    -0.210 NA
HETATM    8  C   UNL     1      28.612  42.999  52.729  1.00  0.00     0.143 A 
HETATM    9  C   UNL     1      29.202  45.389  55.422  1.00  0.00     0.032 A 
HETATM   10  C   UNL     1      30.197  44.780  56.192  1.00  0.00     0.002 A 
ENDROOT
BRANCH   8  11
HETATM   11  N   UNL     1      29.030  41.716  52.286  1.00  0.00    -0.340 N 
HETATM   12  H   UNL     1      29.485  41.236  53.055  1.00  0.00     0.167 HD
BRANCH  11  13
HETATM   13  C   UNL     1      28.329  40.822  51.445  1.00  0.00     0.036 A 
HETATM   14  C   UNL     1      29.020  39.760  50.842  1.00  0.00     0.069 A 
HETATM   15  C   UNL     1      28.380  38.905  49.940  1.00  0.00     0.104 A 
HETATM   16  C   UNL     1      27.033  39.097  49.629  1.00  0.00     0.102 A 
HETATM   17  O   UNL     1      29.112  37.843  49.480  1.00  0.00    -0.348 OA
HETATM   18  O   UNL     1      26.313  38.247  48.838  1.00  0.00    -0.348 OA
HETATM   19  C   UNL     1      26.334  40.148  50.216  1.00  0.00     0.042 A 
HETATM   20  C   UNL     1      26.815  38.200  47.502  1.00  0.00     0.178 C 
HETATM   21  C   UNL     1      28.005  37.263  47.375  1.00  0.00     0.053 C 
HETATM   22  C   UNL     1      29.233  37.844  48.057  1.00  0.00     0.178 C 
HETATM   23  C   UNL     1      26.986  41.018  51.095  1.00  0.00     0.032 A 
ENDBRANCH  11  13
ENDBRANCH   8  11
BRANCH   6  24
HETATM   24  C   UNL     1      26.216  45.543  51.727  1.00  0.00     0.029 A 
HETATM   25  C   UNL     1      25.969  46.907  51.889  1.00  0.00     0.131 A 
HETATM   26  N   UNL     1      25.019  47.617  51.225  1.00  0.00    -0.272 NA
HETATM   27  C   UNL     1      24.261  46.934  50.344  1.00  0.00     0.116 A 
HETATM   28  C   UNL     1      24.408  45.581  50.097  1.00  0.00     0.020 A 
HETATM   29  C   UNL     1      25.395  44.886  50.795  1.00  0.00     0.018 A 
ENDBRANCH   6  24
TORSDOF 3
ENDMDL
MODEL 10
REMARK VINA RESULT:      -8.9      3.508      4.908
REMARK  3 active torsions:
REMARK  status: ('A' for Active; 'I' for Inactive)
REMARK    1  A    between atoms: C_6  and  C_7 
REMARK    2  A    between atoms: C_14  and  N_15 
REMARK    3  A    between atoms: N_15  and  C_16 
ROOT
HETATM    1  C   UNL     1      23.126  43.829  48.473  1.00  0.00     0.001 A 
HETATM    2  C   UNL     1      23.509  45.160  48.622  1.00  0.00     0.018 A 
HETATM    3  C   UNL     1      24.141  45.607  49.811  1.00  0.00     0.039 A 
HETATM    4  C   UNL     1      24.397  44.693  50.840  1.00  0.00     0.073 A 
HETATM    5  N   UNL     1      25.003  45.036  51.981  1.00  0.00    -0.228 NA
HETATM    6  C   UNL     1      25.380  46.316  52.123  1.00  0.00     0.164 A 
HETATM    7  N   UNL     1      25.186  47.269  51.199  1.00  0.00    -0.210 NA
HETATM    8  C   UNL     1      24.569  46.923  50.057  1.00  0.00     0.143 A 
HETATM    9  C   UNL     1      24.006  43.370  50.668  1.00  0.00     0.032 A 
HETATM   10  C   UNL     1      23.374  42.931  49.502  1.00  0.00     0.002 A 
ENDROOT
BRANCH   8  11
HETATM   11  N   UNL     1      24.321  47.924  49.079  1.00  0.00    -0.340 N 
HETATM   12  H   UNL     1      24.465  47.525  48.158  1.00  0.00     0.167 HD
BRANCH  11  13
HETATM   13  C   UNL     1      23.295  48.896  49.079  1.00  0.00     0.036 A 
HETATM   14  C   UNL     1      21.964  48.490  49.264  1.00  0.00     0.069 A 
HETATM   15  C   UNL     1      20.914  49.411  49.188  1.00  0.00     0.104 A 
HETATM   16  C   UNL     1      21.180  50.755  48.928  1.00  0.00     0.102 A 
HETATM   17  O   UNL     1      19.663  48.935  49.478  1.00  0.00    -0.348 OA
HETATM   18  O   UNL     1      20.221  51.729  48.939  1.00  0.00    -0.348 OA
HETATM   19  C   UNL     1      22.494  51.173  48.739  1.00  0.00     0.042 A 
HETATM   20  C   UNL     1      19.238  51.527  47.923  1.00  0.00     0.178 C 
HETATM   21  C   UNL     1      18.180  50.522  48.350  1.00  0.00     0.053 C 
HETATM   22  C   UNL     1      18.750  49.113  48.394  1.00  0.00     0.178 C 
HETATM   23  C   UNL     1      23.538  50.245  48.787  1.00  0.00     0.032 A 
ENDBRANCH  11  13
ENDBRANCH   8  11
BRANCH   6  24
HETATM   24  C   UNL     1      26.036  46.708  53.376  1.00  0.00     0.029 A 
HETATM   25  C   UNL     1      25.641  47.837  54.095  1.00  0.00     0.131 A 
HETATM   26  N   UNL     1      26.201  48.263  55.258  1.00  0.00    -0.272 NA
HETATM   27  C   UNL     1      27.221  47.526  55.742  1.00  0.00     0.116 A 
HETATM   28  C   UNL     1      27.703  46.388  55.121  1.00  0.00     0.020 A 
HETATM   29  C   UNL     1      27.102  45.980  53.931  1.00  0.00     0.018 A 
ENDBRANCH   6  24
TORSDOF 3
ENDMDL
