MODEL 1
REMARK VINA RESULT:      -7.8      0.000      0.000
REMARK  2 active torsions:
REMARK  status: ('A' for Active; 'I' for Inactive)
REMARK    1  A    between atoms: C_2  and  C_3 
REMARK    2  A    between atoms: C_6  and  C_7 
ROOT
HETATM    1  C   UNL     1      20.221  49.064  47.971  1.00  0.00     0.119 C 
HETATM    2  S   UNL     1      19.722  48.061  46.554  1.00  0.00    -0.141 SA
HETATM    3  C   UNL     1      19.832  46.359  47.169  1.00  0.00     0.136 C 
HETATM    4  C   UNL     1      21.088  45.922  47.902  1.00  0.00     0.031 C 
HETATM    5  C   UNL     1      18.602  45.987  47.948  1.00  0.00     0.236 C 
HETATM    6  O   UNL     1      17.921  45.002  47.691  1.00  0.00    -0.272 OA
HETATM    7  N   UNL     1      18.175  46.673  49.120  1.00  0.00    -0.311 N 
HETATM    8  C   UNL     1      18.663  47.822  49.710  1.00  0.00     0.134 A 
HETATM    9  C   UNL     1      19.525  48.815  49.272  1.00  0.00     0.032 A 
HETATM   10  N   UNL     1      18.253  48.202  50.964  1.00  0.00    -0.262 N 
HETATM   11  H   UNL     1      17.611  47.722  51.585  1.00  0.00     0.191 HD
HETATM   12  N   UNL     1      18.789  49.340  51.396  1.00  0.00    -0.178 NA
HETATM   13  C   UNL     1      19.536  49.753  50.371  1.00  0.00     0.062 A 
HETATM   14  C   UNL     1      20.253  51.054  50.488  1.00  0.00     0.073 C 
HETATM   15  H   UNL     1      17.394  46.198  49.563  1.00  0.00     0.170 HD
ENDROOT
BRANCH   1  16
HETATM   16  C   UNL     1      21.732  49.181  48.146  1.00  0.00    -0.040 A 
HETATM   17  C   UNL     1      22.380  50.264  47.517  1.00  0.00     0.009 A 
HETATM   18  C   UNL     1      23.758  50.464  47.635  1.00  0.00     0.007 A 
HETATM   19  C   UNL     1      24.539  49.583  48.385  1.00  0.00    -0.059 A 
HETATM   20  C   UNL     1      23.914  48.506  49.021  1.00  0.00     0.007 A 
HETATM   21  C   UNL     1      22.533  48.307  48.901  1.00  0.00     0.009 A 
BRANCH  19  22
HETATM   22  C   UNL     1      26.022  49.813  48.532  1.00  0.00     0.034 C 
HETATM   23  C   UNL     1      26.707  48.657  49.245  1.00  0.00     0.010 C 
ENDBRANCH  19  22
ENDBRANCH   1  16
TORSDOF 2
ENDMDL
MODEL 2
REMARK VINA RESULT:      -7.5      5.970      7.327
REMARK  2 active torsions:
REMARK  status: ('A' for Active; 'I' for Inactive)
REMARK    1  A    between atoms: C_2  and  C_3 
REMARK    2  A    between atoms: C_6  and  C_7 
ROOT
HETATM    1  C   UNL     1      24.991  45.299  51.932  1.00  0.00     0.119 C 
HETATM    2  S   UNL     1      24.359  43.810  51.128  1.00  0.00    -0.141 SA
HETATM    3  C   UNL     1      25.844  43.024  50.446  1.00  0.00     0.136 C 
HETATM    4  C   UNL     1      26.819  43.867  49.644  1.00  0.00     0.031 C 
HETATM    5  C   UNL     1      26.564  42.229  51.498  1.00  0.00     0.236 C 
HETATM    6  O   UNL     1      26.848  41.045  51.364  1.00  0.00    -0.272 OA
HETATM    7  N   UNL     1      27.082  42.796  52.697  1.00  0.00    -0.311 N 
HETATM    8  C   UNL     1      26.957  44.073  53.208  1.00  0.00     0.134 A 
HETATM    9  C   UNL     1      26.121  45.135  52.898  1.00  0.00     0.032 A 
HETATM   10  N   UNL     1      27.718  44.487  54.272  1.00  0.00    -0.262 N 
HETATM   11  H   UNL     1      28.432  43.968  54.771  1.00  0.00     0.191 HD
HETATM   12  N   UNL     1      27.474  45.732  54.671  1.00  0.00    -0.178 NA
HETATM   13  C   UNL     1      26.481  46.135  53.877  1.00  0.00     0.062 A 
HETATM   14  C   UNL     1      25.906  47.495  54.086  1.00  0.00     0.073 C 
HETATM   15  H   UNL     1      27.635  42.121  53.217  1.00  0.00     0.170 HD
ENDROOT
BRANCH   1  16
HETATM   16  C   UNL     1      25.222  46.467  50.978  1.00  0.00    -0.040 A 
HETATM   17  C   UNL     1      24.107  46.962  50.270  1.00  0.00     0.009 A 
HETATM   18  C   UNL     1      24.217  48.040  49.388  1.00  0.00     0.007 A 
HETATM   19  C   UNL     1      25.449  48.661  49.180  1.00  0.00    -0.059 A 
HETATM   20  C   UNL     1      26.565  48.189  49.877  1.00  0.00     0.007 A 
HETATM   21  C   UNL     1      26.454  47.107  50.760  1.00  0.00     0.009 A 
BRANCH  19  22
HETATM   22  C   UNL     1      25.563  49.840  48.247  1.00  0.00     0.034 C 
HETATM   23  C   UNL     1      24.204  50.440  47.922  1.00  0.00     0.010 C 
ENDBRANCH  19  22
ENDBRANCH   1  16
TORSDOF 2
ENDMDL
MODEL 3
REMARK VINA RESULT:      -7.4     11.838     13.715
REMARK  2 active torsions:
REMARK  status: ('A' for Active; 'I' for Inactive)
REMARK    1  A    between atoms: C_2  and  C_3 
REMARK    2  A    between atoms: C_6  and  C_7 
ROOT
HETATM    1  C   UNL     1      31.086  50.368  39.441  1.00  0.00     0.119 C 
HETATM    2  S   UNL     1      30.325  51.511  38.268  1.00  0.00    -0.141 SA
HETATM    3  C   UNL     1      29.120  52.422  39.271  1.00  0.00     0.136 C 
HETATM    4  C   UNL     1      28.176  51.644  40.171  1.00  0.00     0.031 C 
HETATM    5  C   UNL     1      29.782  53.537  40.028  1.00  0.00     0.236 C 
HETATM    6  O   UNL     1      29.410  54.702  39.963  1.00  0.00    -0.272 OA
HETATM    7  N   UNL     1      30.827  53.336  40.973  1.00  0.00    -0.311 N 
HETATM    8  C   UNL     1      31.518  52.188  41.310  1.00  0.00     0.134 A 
HETATM    9  C   UNL     1      31.626  50.942  40.712  1.00  0.00     0.032 A 
HETATM   10  N   UNL     1      32.341  52.154  42.409  1.00  0.00    -0.262 N 
HETATM   11  H   UNL     1      32.522  52.894  43.079  1.00  0.00     0.191 HD
HETATM   12  N   UNL     1      32.958  50.992  42.597  1.00  0.00    -0.178 NA
HETATM   13  C   UNL     1      32.570  50.250  41.559  1.00  0.00     0.062 A 
HETATM   14  C   UNL     1      33.126  48.874  41.417  1.00  0.00     0.073 C 
HETATM   15  H   UNL     1      31.057  54.197  41.461  1.00  0.00     0.170 HD
ENDROOT
BRANCH   1  16
HETATM   16  C   UNL     1      30.272  49.101  39.688  1.00  0.00    -0.040 A 
HETATM   17  C   UNL     1      30.340  48.082  38.716  1.00  0.00     0.009 A 
HETATM   18  C   UNL     1      29.644  46.879  38.864  1.00  0.00     0.007 A 
HETATM   19  C   UNL     1      28.852  46.654  39.991  1.00  0.00    -0.059 A 
HETATM   20  C   UNL     1      28.776  47.650  40.968  1.00  0.00     0.007 A 
HETATM   21  C   UNL     1      29.473  48.856  40.819  1.00  0.00     0.009 A 
BRANCH  19  22
HETATM   22  C   UNL     1      28.120  45.346  40.161  1.00  0.00     0.034 C 
HETATM   23  C   UNL     1      26.874  45.501  41.018  1.00  0.00     0.010 C 
ENDBRANCH  19  22
ENDBRANCH   1  16
TORSDOF 2
ENDMDL
MODEL 4
REMARK VINA RESULT:      -7.4     10.772     12.403
REMARK  2 active torsions:
REMARK  status: ('A' for Active; 'I' for Inactive)
REMARK    1  A    between atoms: C_2  and  C_3 
REMARK    2  A    between atoms: C_6  and  C_7 
ROOT
HETATM    1  C   UNL     1      30.190  50.605  39.949  1.00  0.00     0.119 C 
HETATM    2  S   UNL     1      29.966  48.905  39.383  1.00  0.00    -0.141 SA
HETATM    3  C   UNL     1      29.249  48.062  40.820  1.00  0.00     0.136 C 
HETATM    4  C   UNL     1      29.901  48.246  42.179  1.00  0.00     0.031 C 
HETATM    5  C   UNL     1      27.768  48.300  40.900  1.00  0.00     0.236 C 
HETATM    6  O   UNL     1      26.948  47.392  40.964  1.00  0.00    -0.272 OA
HETATM    7  N   UNL     1      27.183  49.592  41.022  1.00  0.00    -0.311 N 
HETATM    8  C   UNL     1      27.764  50.844  40.975  1.00  0.00     0.134 A 
HETATM    9  C   UNL     1      29.010  51.290  40.560  1.00  0.00     0.032 A 
HETATM   10  N   UNL     1      27.060  51.965  41.336  1.00  0.00    -0.262 N 
HETATM   11  H   UNL     1      26.108  52.023  41.680  1.00  0.00     0.191 HD
HETATM   12  N   UNL     1      27.739  53.102  41.219  1.00  0.00    -0.178 NA
HETATM   13  C   UNL     1      28.914  52.724  40.713  1.00  0.00     0.062 A 
HETATM   14  C   UNL     1      29.926  53.772  40.394  1.00  0.00     0.073 C 
HETATM   15  H   UNL     1      26.182  49.531  41.181  1.00  0.00     0.170 HD
ENDROOT
BRANCH   1  16
HETATM   16  C   UNL     1      31.462  50.825  40.763  1.00  0.00    -0.040 A 
HETATM   17  C   UNL     1      32.686  50.865  40.064  1.00  0.00     0.009 A 
HETATM   18  C   UNL     1      33.900  51.079  40.722  1.00  0.00     0.007 A 
HETATM   19  C   UNL     1      33.933  51.257  42.106  1.00  0.00    -0.059 A 
HETATM   20  C   UNL     1      32.729  51.226  42.816  1.00  0.00     0.007 A 
HETATM   21  C   UNL     1      31.513  51.011  42.156  1.00  0.00     0.009 A 
BRANCH  19  22
HETATM   22  C   UNL     1      35.240  51.513  42.812  1.00  0.00     0.034 C 
HETATM   23  C   UNL     1      36.341  50.584  42.322  1.00  0.00     0.010 C 
ENDBRANCH  19  22
ENDBRANCH   1  16
TORSDOF 2
ENDMDL
MODEL 5
REMARK VINA RESULT:      -7.3      6.898      8.956
REMARK  2 active torsions:
REMARK  status: ('A' for Active; 'I' for Inactive)
REMARK    1  A    between atoms: C_2  and  C_3 
REMARK    2  A    between atoms: C_6  and  C_7 
ROOT
HETATM    1  C   UNL     1      25.565  43.363  51.793  1.00  0.00     0.119 C 
HETATM    2  S   UNL     1      24.569  44.831  52.134  1.00  0.00    -0.141 SA
HETATM    3  C   UNL     1      25.214  46.069  50.977  1.00  0.00     0.136 C 
HETATM    4  C   UNL     1      26.715  46.274  50.882  1.00  0.00     0.031 C 
HETATM    5  C   UNL     1      24.611  45.897  49.612  1.00  0.00     0.236 C 
HETATM    6  O   UNL     1      24.041  46.801  49.014  1.00  0.00    -0.272 OA
HETATM    7  N   UNL     1      24.739  44.708  48.839  1.00  0.00    -0.311 N 
HETATM    8  C   UNL     1      25.288  43.484  49.166  1.00  0.00     0.134 A 
HETATM    9  C   UNL     1      25.662  42.910  50.371  1.00  0.00     0.032 A 
HETATM   10  N   UNL     1      25.516  42.531  48.205  1.00  0.00    -0.262 N 
HETATM   11  H   UNL     1      25.350  42.596  47.207  1.00  0.00     0.191 HD
HETATM   12  N   UNL     1      26.028  41.395  48.668  1.00  0.00    -0.178 NA
HETATM   13  C   UNL     1      26.091  41.585  49.987  1.00  0.00     0.062 A 
HETATM   14  C   UNL     1      26.576  40.468  50.848  1.00  0.00     0.073 C 
HETATM   15  H   UNL     1      24.364  44.833  47.903  1.00  0.00     0.170 HD
ENDROOT
BRANCH   1  16
HETATM   16  C   UNL     1      26.924  43.362  52.486  1.00  0.00    -0.040 A 
HETATM   17  C   UNL     1      26.938  43.349  53.896  1.00  0.00     0.009 A 
HETATM   18  C   UNL     1      28.134  43.329  54.618  1.00  0.00     0.007 A 
HETATM   19  C   UNL     1      29.362  43.325  53.954  1.00  0.00    -0.059 A 
HETATM   20  C   UNL     1      29.369  43.333  52.556  1.00  0.00     0.007 A 
HETATM   21  C   UNL     1      28.169  43.354  51.833  1.00  0.00     0.009 A 
BRANCH  19  22
HETATM   22  C   UNL     1      30.652  43.280  54.733  1.00  0.00     0.034 C 
HETATM   23  C   UNL     1      30.647  44.259  55.897  1.00  0.00     0.010 C 
ENDBRANCH  19  22
ENDBRANCH   1  16
TORSDOF 2
ENDMDL
MODEL 6
REMARK VINA RESULT:      -7.3      2.498      3.926
REMARK  2 active torsions:
REMARK  status: ('A' for Active; 'I' for Inactive)
REMARK    1  A    between atoms: C_2  and  C_3 
REMARK    2  A    between atoms: C_6  and  C_7 
ROOT
HETATM    1  C   UNL     1      20.157  48.671  48.918  1.00  0.00     0.119 C 
HETATM    2  S   UNL     1      19.403  49.478  50.347  1.00  0.00    -0.141 SA
HETATM    3  C   UNL     1      18.828  51.068  49.692  1.00  0.00     0.136 C 
HETATM    4  C   UNL     1      19.783  51.909  48.863  1.00  0.00     0.031 C 
HETATM    5  C   UNL     1      17.506  50.919  48.996  1.00  0.00     0.236 C 
HETATM    6  O   UNL     1      16.521  51.589  49.281  1.00  0.00    -0.272 OA
HETATM    7  N   UNL     1      17.299  50.071  47.871  1.00  0.00    -0.311 N 
HETATM    8  C   UNL     1      18.147  49.162  47.270  1.00  0.00     0.134 A 
HETATM    9  C   UNL     1      19.344  48.584  47.665  1.00  0.00     0.032 A 
HETATM   10  N   UNL     1      17.837  48.600  46.056  1.00  0.00    -0.262 N 
HETATM   11  H   UNL     1      17.027  48.777  45.473  1.00  0.00     0.191 HD
HETATM   12  N   UNL     1      18.735  47.727  45.610  1.00  0.00    -0.178 NA
HETATM   13  C   UNL     1      19.642  47.669  46.587  1.00  0.00     0.062 A 
HETATM   14  C   UNL     1      20.787  46.726  46.445  1.00  0.00     0.073 C 
HETATM   15  H   UNL     1      16.373  50.200  47.475  1.00  0.00     0.170 HD
ENDROOT
BRANCH   1  16
HETATM   16  C   UNL     1      21.589  49.120  48.638  1.00  0.00    -0.040 A 
HETATM   17  C   UNL     1      22.631  48.399  49.257  1.00  0.00     0.009 A 
HETATM   18  C   UNL     1      23.974  48.724  49.046  1.00  0.00     0.007 A 
HETATM   19  C   UNL     1      24.322  49.785  48.210  1.00  0.00    -0.059 A 
HETATM   20  C   UNL     1      23.303  50.508  47.583  1.00  0.00     0.007 A 
HETATM   21  C   UNL     1      21.957  50.182  47.795  1.00  0.00     0.009 A 
BRANCH  19  22
HETATM   22  C   UNL     1      25.771  50.120  47.964  1.00  0.00     0.034 C 
HETATM   23  C   UNL     1      26.704  49.232  48.773  1.00  0.00     0.010 C 
ENDBRANCH  19  22
ENDBRANCH   1  16
TORSDOF 2
ENDMDL
MODEL 7
REMARK VINA RESULT:      -6.8     22.472     24.881
REMARK  2 active torsions:
REMARK  status: ('A' for Active; 'I' for Inactive)
REMARK    1  A    between atoms: C_2  and  C_3 
REMARK    2  A    between atoms: C_6  and  C_7 
ROOT
HETATM    1  C   UNL     1      38.455  47.311  66.729  1.00  0.00     0.119 C 
HETATM    2  S   UNL     1      36.951  46.337  66.500  1.00  0.00    -0.141 SA
HETATM    3  C   UNL     1      36.607  46.482  64.726  1.00  0.00     0.136 C 
HETATM    4  C   UNL     1      36.629  47.858  64.084  1.00  0.00     0.031 C 
HETATM    5  C   UNL     1      37.435  45.510  63.935  1.00  0.00     0.236 C 
HETATM    6  O   UNL     1      36.952  44.705  63.149  1.00  0.00    -0.272 OA
HETATM    7  N   UNL     1      38.859  45.504  63.937  1.00  0.00    -0.311 N 
HETATM    8  C   UNL     1      39.754  46.237  64.691  1.00  0.00     0.134 A 
HETATM    9  C   UNL     1      39.614  47.011  65.832  1.00  0.00     0.032 A 
HETATM   10  N   UNL     1      41.093  46.247  64.388  1.00  0.00    -0.262 N 
HETATM   11  H   UNL     1      41.565  45.779  63.622  1.00  0.00     0.191 HD
HETATM   12  N   UNL     1      41.838  46.977  65.212  1.00  0.00    -0.178 NA
HETATM   13  C   UNL     1      40.969  47.422  66.122  1.00  0.00     0.062 A 
HETATM   14  C   UNL     1      41.479  48.246  67.254  1.00  0.00     0.073 C 
HETATM   15  H   UNL     1      39.227  44.852  63.251  1.00  0.00     0.170 HD
ENDROOT
BRANCH   1  16
HETATM   16  C   UNL     1      38.207  48.811  66.858  1.00  0.00    -0.040 A 
HETATM   17  C   UNL     1      37.596  49.272  68.042  1.00  0.00     0.009 A 
HETATM   18  C   UNL     1      37.346  50.630  68.258  1.00  0.00     0.007 A 
HETATM   19  C   UNL     1      37.696  51.576  67.293  1.00  0.00    -0.059 A 
HETATM   20  C   UNL     1      38.307  51.139  66.115  1.00  0.00     0.007 A 
HETATM   21  C   UNL     1      38.557  49.778  65.899  1.00  0.00     0.009 A 
BRANCH  19  22
HETATM   22  C   UNL     1      37.447  53.043  67.537  1.00  0.00     0.034 C 
HETATM   23  C   UNL     1      37.820  53.890  66.330  1.00  0.00     0.010 C 
ENDBRANCH  19  22
ENDBRANCH   1  16
TORSDOF 2
ENDMDL
MODEL 8
REMARK VINA RESULT:      -6.8      3.339      5.342
REMARK  2 active torsions:
REMARK  status: ('A' for Active; 'I' for Inactive)
REMARK    1  A    between atoms: C_2  and  C_3 
REMARK    2  A    between atoms: C_6  and  C_7 
ROOT
HETATM    1  C   UNL     1      17.864  49.036  48.833  1.00  0.00     0.119 C 
HETATM    2  S   UNL     1      16.834  47.553  48.821  1.00  0.00    -0.141 SA
HETATM    3  C   UNL     1      17.639  46.478  47.602  1.00  0.00     0.136 C 
HETATM    4  C   UNL     1      18.015  47.055  46.249  1.00  0.00     0.031 C 
HETATM    5  C   UNL     1      18.799  45.746  48.212  1.00  0.00     0.236 C 
HETATM    6  O   UNL     1      18.913  44.527  48.178  1.00  0.00    -0.272 OA
HETATM    7  N   UNL     1      19.927  46.397  48.788  1.00  0.00    -0.311 N 
HETATM    8  C   UNL     1      20.161  47.738  49.022  1.00  0.00     0.134 A 
HETATM    9  C   UNL     1      19.336  48.852  49.025  1.00  0.00     0.032 A 
HETATM   10  N   UNL     1      21.407  48.186  49.384  1.00  0.00    -0.262 N 
HETATM   11  H   UNL     1      22.258  47.647  49.496  1.00  0.00     0.191 HD
HETATM   12  N   UNL     1      21.478  49.496  49.599  1.00  0.00    -0.178 NA
HETATM   13  C   UNL     1      20.225  49.920  49.425  1.00  0.00     0.062 A 
HETATM   14  C   UNL     1      19.921  51.362  49.646  1.00  0.00     0.073 C 
HETATM   15  H   UNL     1      20.652  45.731  49.036  1.00  0.00     0.170 HD
ENDROOT
BRANCH   1  16
HETATM   16  C   UNL     1      17.555  50.015  47.704  1.00  0.00    -0.040 A 
HETATM   17  C   UNL     1      16.357  50.754  47.792  1.00  0.00     0.009 A 
HETATM   18  C   UNL     1      15.997  51.687  46.815  1.00  0.00     0.007 A 
HETATM   19  C   UNL     1      16.823  51.911  45.713  1.00  0.00    -0.059 A 
HETATM   20  C   UNL     1      18.018  51.193  45.611  1.00  0.00     0.007 A 
HETATM   21  C   UNL     1      18.377  50.257  46.590  1.00  0.00     0.009 A 
BRANCH  19  22
HETATM   22  C   UNL     1      16.446  52.936  44.672  1.00  0.00     0.034 C 
HETATM   23  C   UNL     1      17.169  52.699  43.355  1.00  0.00     0.010 C 
ENDBRANCH  19  22
ENDBRANCH   1  16
TORSDOF 2
ENDMDL
MODEL 9
REMARK VINA RESULT:      -6.7      4.597      5.782
REMARK  2 active torsions:
REMARK  status: ('A' for Active; 'I' for Inactive)
REMARK    1  A    between atoms: C_2  and  C_3 
REMARK    2  A    between atoms: C_6  and  C_7 
ROOT
HETATM    1  C   UNL     1      17.271  50.347  47.080  1.00  0.00     0.119 C 
HETATM    2  S   UNL     1      16.179  50.111  48.499  1.00  0.00    -0.141 SA
HETATM    3  C   UNL     1      16.253  51.700  49.370  1.00  0.00     0.136 C 
HETATM    4  C   UNL     1      17.610  52.320  49.653  1.00  0.00     0.031 C 
HETATM    5  C   UNL     1      15.328  52.703  48.742  1.00  0.00     0.236 C 
HETATM    6  O   UNL     1      14.468  53.306  49.373  1.00  0.00    -0.272 OA
HETATM    7  N   UNL     1      15.431  53.130  47.388  1.00  0.00    -0.311 N 
HETATM    8  C   UNL     1      16.248  52.681  46.369  1.00  0.00     0.134 A 
HETATM    9  C   UNL     1      17.038  51.551  46.222  1.00  0.00     0.032 A 
HETATM   10  N   UNL     1      16.353  53.374  45.189  1.00  0.00    -0.262 N 
HETATM   11  H   UNL     1      15.904  54.246  44.933  1.00  0.00     0.191 HD
HETATM   12  N   UNL     1      17.159  52.813  44.293  1.00  0.00    -0.178 NA
HETATM   13  C   UNL     1      17.558  51.684  44.880  1.00  0.00     0.062 A 
HETATM   14  C   UNL     1      18.447  50.758  44.122  1.00  0.00     0.073 C 
HETATM   15  H   UNL     1      14.792  53.895  47.191  1.00  0.00     0.170 HD
ENDROOT
BRANCH   1  16
HETATM   16  C   UNL     1      18.750  50.151  47.397  1.00  0.00    -0.040 A 
HETATM   17  C   UNL     1      19.266  48.841  47.318  1.00  0.00     0.009 A 
HETATM   18  C   UNL     1      20.612  48.566  47.573  1.00  0.00     0.007 A 
HETATM   19  C   UNL     1      21.491  49.593  47.920  1.00  0.00    -0.059 A 
HETATM   20  C   UNL     1      21.000  50.899  47.998  1.00  0.00     0.007 A 
HETATM   21  C   UNL     1      19.650  51.174  47.743  1.00  0.00     0.009 A 
BRANCH  19  22
HETATM   22  C   UNL     1      22.948  49.300  48.172  1.00  0.00     0.034 C 
HETATM   23  C   UNL     1      23.819  50.529  47.966  1.00  0.00     0.010 C 
ENDBRANCH  19  22
ENDBRANCH   1  16
TORSDOF 2
ENDMDL
MODEL 10
REMARK VINA RESULT:      -6.6      4.126      6.920
REMARK  2 active torsions:
REMARK  status: ('A' for Active; 'I' for Inactive)
REMARK    1  A    between atoms: C_2  and  C_3 
REMARK    2  A    between atoms: C_6  and  C_7 
ROOT
HETATM    1  C   UNL     1      17.743  50.223  47.340  1.00  0.00     0.119 C 
HETATM    2  S   UNL     1      19.388  50.906  47.046  1.00  0.00    -0.141 SA
HETATM    3  C   UNL     1      20.127  50.980  48.700  1.00  0.00     0.136 C 
HETATM    4  C   UNL     1      19.328  51.597  49.834  1.00  0.00     0.031 C 
HETATM    5  C   UNL     1      20.683  49.644  49.103  1.00  0.00     0.236 C 
HETATM    6  O   UNL     1      21.842  49.483  49.465  1.00  0.00    -0.272 OA
HETATM    7  N   UNL     1      19.895  48.463  49.208  1.00  0.00    -0.311 N 
HETATM    8  C   UNL     1      18.572  48.239  48.879  1.00  0.00     0.134 A 
HETATM    9  C   UNL     1      17.652  48.957  48.130  1.00  0.00     0.032 A 
HETATM   10  N   UNL     1      17.933  47.087  49.264  1.00  0.00    -0.262 N 
HETATM   11  H   UNL     1      18.302  46.320  49.816  1.00  0.00     0.191 HD
HETATM   12  N   UNL     1      16.670  46.998  48.857  1.00  0.00    -0.178 NA
HETATM   13  C   UNL     1      16.486  48.103  48.134  1.00  0.00     0.062 A 
HETATM   14  C   UNL     1      15.170  48.309  47.464  1.00  0.00     0.073 C 
HETATM   15  H   UNL     1      20.429  47.696  49.607  1.00  0.00     0.170 HD
ENDROOT
BRANCH   1  16
HETATM   16  C   UNL     1      16.716  51.255  47.797  1.00  0.00    -0.040 A 
HETATM   17  C   UNL     1      16.430  51.324  49.177  1.00  0.00     0.009 A 
HETATM   18  C   UNL     1      15.518  52.248  49.692  1.00  0.00     0.007 A 
HETATM   19  C   UNL     1      14.856  53.137  48.843  1.00  0.00    -0.059 A 
HETATM   20  C   UNL     1      15.130  53.088  47.473  1.00  0.00     0.007 A 
HETATM   21  C   UNL     1      16.044  52.160  46.958  1.00  0.00     0.009 A 
BRANCH  19  22
HETATM   22  C   UNL     1      13.889  54.150  49.402  1.00  0.00     0.034 C 
HETATM   23  C   UNL     1      13.845  54.114  50.922  1.00  0.00     0.010 C 
ENDBRANCH  19  22
ENDBRANCH   1  16
TORSDOF 2
ENDMDL
