MODEL 1
REMARK VINA RESULT:      -9.3      0.000      0.000
REMARK  6 active torsions:
REMARK  status: ('A' for Active; 'I' for Inactive)
REMARK    1  A    between atoms: N_6  and  C_7 
REMARK    2  A    between atoms: C_10  and  N_11 
REMARK    3  A    between atoms: N_11  and  C_12 
REMARK    4  A    between atoms: C_12  and  N_13 
REMARK       I    between atoms: N_13  and  C_14 
REMARK    5  A    between atoms: C_14  and  C_15 
REMARK    6  A    between atoms: C_16  and  O_17 
ROOT
HETATM    1  C   UNL     1      25.071  44.113  49.412  1.00  0.00     0.179 C 
HETATM    2  S   UNL     1      23.772  45.069  48.969  1.00  0.00    -0.040 SA
ENDROOT
BRANCH   1   3
HETATM    3  N   UNL     1      25.438  43.086  48.607  1.00  0.00    -0.333 N 
HETATM    4  H   UNL     1      25.022  43.109  47.682  1.00  0.00     0.168 HD
BRANCH   3   5
HETATM    5  C   UNL     1      26.163  41.923  48.925  1.00  0.00     0.034 C 
HETATM    6  C   UNL     1      25.576  40.980  49.765  1.00  0.00     0.032 C 
HETATM    7  C   UNL     1      26.214  39.753  50.011  1.00  0.00     0.031 C 
HETATM    8  C   UNL     1      27.445  39.443  49.418  1.00  0.00     0.030 C 
HETATM    9  C   UNL     1      28.079  40.471  48.706  1.00  0.00     0.031 C 
HETATM   10  C   UNL     1      27.452  41.694  48.464  1.00  0.00     0.032 C 
BRANCH   8  11
HETATM   11  N   UNL     1      28.056  38.183  49.480  1.00  0.00    -0.378 N 
HETATM   12  C   UNL     1      29.167  38.017  48.508  1.00  0.00     0.150 C 
HETATM   13  C   UNL     1      28.629  37.526  47.148  1.00  0.00     0.254 C 
HETATM   14  N   UNL     1      27.874  36.207  47.340  1.00  0.00    -0.072 N 
HETATM   15  C   UNL     1      27.397  35.639  46.038  1.00  0.00     0.269 C 
HETATM   16  H   UNL     1      28.542  35.540  47.748  1.00  0.00     0.279 HD
HETATM   17  C   UNL     1      26.734  36.375  48.343  1.00  0.00     0.254 C 
HETATM   18  C   UNL     1      27.244  36.970  49.676  1.00  0.00     0.150 C 
ENDBRANCH   8  11
ENDBRANCH   3   5
ENDBRANCH   1   3
BRANCH   1  19
HETATM   19  N   UNL     1      25.754  44.442  50.549  1.00  0.00    -0.299 N 
HETATM   20  C   UNL     1      25.540  44.027  51.862  1.00  0.00     0.260 C 
HETATM   21  O   UNL     1      24.652  43.303  52.294  1.00  0.00    -0.267 OA
HETATM   22  H   UNL     1      26.688  44.779  50.349  1.00  0.00     0.171 HD
BRANCH  20  23
HETATM   23  C   UNL     1      26.599  44.447  52.797  1.00  0.00     0.068 A 
HETATM   24  C   UNL     1      26.585  45.705  53.401  1.00  0.00     0.102 A 
HETATM   25  C   UNL     1      27.542  46.000  54.389  1.00  0.00     0.056 A 
HETATM   26 BR   UNL     1      27.400  47.656  55.346  1.00  0.00    -0.047 Br
HETATM   27  C   UNL     1      28.573  45.069  54.714  1.00  0.00    -0.006 A 
HETATM   28  C   UNL     1      28.581  43.815  54.046  1.00  0.00    -0.024 A 
HETATM   29  C   UNL     1      29.599  45.296  55.666  1.00  0.00     0.014 A 
HETATM   30  C   UNL     1      27.587  43.512  53.110  1.00  0.00     0.032 A 
HETATM   31  C   UNL     1      29.573  42.863  54.332  1.00  0.00     0.012 A 
HETATM   32  C   UNL     1      30.569  43.125  55.269  1.00  0.00     0.001 A 
HETATM   33  C   UNL     1      30.582  44.341  55.937  1.00  0.00     0.001 A 
BRANCH  24  34
HETATM   34  O   UNL     1      25.591  46.589  53.064  1.00  0.00    -0.353 OA
HETATM   35  C   UNL     1      25.955  47.391  51.935  1.00  0.00     0.210 C 
ENDBRANCH  24  34
ENDBRANCH  20  23
ENDBRANCH   1  19
TORSDOF 6
ENDMDL
MODEL 2
REMARK VINA RESULT:      -9.2      3.961      7.654
REMARK  6 active torsions:
REMARK  status: ('A' for Active; 'I' for Inactive)
REMARK    1  A    between atoms: N_6  and  C_7 
REMARK    2  A    between atoms: C_10  and  N_11 
REMARK    3  A    between atoms: N_11  and  C_12 
REMARK    4  A    between atoms: C_12  and  N_13 
REMARK       I    between atoms: N_13  and  C_14 
REMARK    5  A    between atoms: C_14  and  C_15 
REMARK    6  A    between atoms: C_16  and  O_17 
ROOT
HETATM    1  C   UNL     1      24.231  42.814  49.973  1.00  0.00     0.179 C 
HETATM    2  S   UNL     1      24.542  41.493  48.996  1.00  0.00    -0.040 SA
ENDROOT
BRANCH   1   3
HETATM    3  N   UNL     1      23.020  43.417  49.900  1.00  0.00    -0.333 N 
HETATM    4  H   UNL     1      22.264  42.892  50.327  1.00  0.00     0.168 HD
BRANCH   3   5
HETATM    5  C   UNL     1      22.639  44.563  49.178  1.00  0.00     0.034 C 
HETATM    6  C   UNL     1      21.487  44.508  48.399  1.00  0.00     0.032 C 
HETATM    7  C   UNL     1      21.006  45.663  47.759  1.00  0.00     0.031 C 
HETATM    8  C   UNL     1      21.663  46.893  47.891  1.00  0.00     0.030 C 
HETATM    9  C   UNL     1      22.900  46.880  48.552  1.00  0.00     0.031 C 
HETATM   10  C   UNL     1      23.385  45.733  49.184  1.00  0.00     0.032 C 
BRANCH   8  11
HETATM   11  N   UNL     1      21.155  48.113  47.426  1.00  0.00    -0.378 N 
HETATM   12  C   UNL     1      21.660  49.290  48.180  1.00  0.00     0.150 C 
HETATM   13  C   UNL     1      20.779  49.562  49.417  1.00  0.00     0.254 C 
HETATM   14  N   UNL     1      19.328  49.783  48.975  1.00  0.00    -0.072 N 
HETATM   15  C   UNL     1      18.439  50.132  50.128  1.00  0.00     0.269 C 
HETATM   16  H   UNL     1      19.334  50.582  48.328  1.00  0.00     0.279 HD
HETATM   17  C   UNL     1      18.809  48.576  48.195  1.00  0.00     0.254 C 
HETATM   18  C   UNL     1      19.744  48.225  47.016  1.00  0.00     0.150 C 
ENDBRANCH   8  11
ENDBRANCH   3   5
ENDBRANCH   1   3
BRANCH   1  19
HETATM   19  N   UNL     1      25.199  43.203  50.857  1.00  0.00    -0.299 N 
HETATM   20  C   UNL     1      26.453  43.757  50.609  1.00  0.00     0.260 C 
HETATM   21  O   UNL     1      26.986  43.977  49.529  1.00  0.00    -0.267 OA
HETATM   22  H   UNL     1      24.823  43.380  51.781  1.00  0.00     0.171 HD
BRANCH  20  23
HETATM   23  C   UNL     1      27.146  44.223  51.824  1.00  0.00     0.068 A 
HETATM   24  C   UNL     1      26.701  45.333  52.540  1.00  0.00     0.102 A 
HETATM   25  C   UNL     1      27.316  45.648  53.766  1.00  0.00     0.056 A 
HETATM   26 BR   UNL     1      26.576  47.059  54.834  1.00  0.00    -0.047 Br
HETATM   27  C   UNL     1      28.439  44.905  54.236  1.00  0.00    -0.006 A 
HETATM   28  C   UNL     1      28.893  43.807  53.457  1.00  0.00    -0.024 A 
HETATM   29  C   UNL     1      29.144  45.175  55.437  1.00  0.00     0.014 A 
HETATM   30  C   UNL     1      28.233  43.469  52.271  1.00  0.00     0.032 A 
HETATM   31  C   UNL     1      29.993  43.043  53.877  1.00  0.00     0.012 A 
HETATM   32  C   UNL     1      30.664  43.342  55.059  1.00  0.00     0.001 A 
HETATM   33  C   UNL     1      30.239  44.408  55.840  1.00  0.00     0.001 A 
BRANCH  24  34
HETATM   34  O   UNL     1      25.626  46.041  52.063  1.00  0.00    -0.353 OA
HETATM   35  C   UNL     1      26.038  47.165  51.277  1.00  0.00     0.210 C 
ENDBRANCH  24  34
ENDBRANCH  20  23
ENDBRANCH   1  19
TORSDOF 6
ENDMDL
MODEL 3
REMARK VINA RESULT:      -9.2      4.909      7.862
REMARK  6 active torsions:
REMARK  status: ('A' for Active; 'I' for Inactive)
REMARK    1  A    between atoms: N_6  and  C_7 
REMARK    2  A    between atoms: C_10  and  N_11 
REMARK    3  A    between atoms: N_11  and  C_12 
REMARK    4  A    between atoms: C_12  and  N_13 
REMARK       I    between atoms: N_13  and  C_14 
REMARK    5  A    between atoms: C_14  and  C_15 
REMARK    6  A    between atoms: C_16  and  O_17 
ROOT
HETATM    1  C   UNL     1      25.988  47.497  50.745  1.00  0.00     0.179 C 
HETATM    2  S   UNL     1      26.782  48.228  49.468  1.00  0.00    -0.040 SA
ENDROOT
BRANCH   1   3
HETATM    3  N   UNL     1      24.633  47.504  50.771  1.00  0.00    -0.333 N 
HETATM    4  H   UNL     1      24.230  47.331  51.686  1.00  0.00     0.168 HD
BRANCH   3   5
HETATM    5  C   UNL     1      23.724  47.545  49.698  1.00  0.00     0.034 C 
HETATM    6  C   UNL     1      23.378  46.350  49.072  1.00  0.00     0.032 C 
HETATM    7  C   UNL     1      22.385  46.331  48.079  1.00  0.00     0.031 C 
HETATM    8  C   UNL     1      21.716  47.501  47.697  1.00  0.00     0.030 C 
HETATM    9  C   UNL     1      22.196  48.705  48.233  1.00  0.00     0.031 C 
HETATM   10  C   UNL     1      23.187  48.730  49.216  1.00  0.00     0.032 C 
BRANCH   8  11
HETATM   11  N   UNL     1      20.607  47.533  46.842  1.00  0.00    -0.378 N 
HETATM   12  C   UNL     1      19.747  48.730  47.034  1.00  0.00     0.150 C 
HETATM   13  C   UNL     1      18.702  48.476  48.140  1.00  0.00     0.254 C 
HETATM   14  N   UNL     1      17.855  47.252  47.776  1.00  0.00    -0.072 N 
HETATM   15  C   UNL     1      16.769  47.005  48.776  1.00  0.00     0.269 C 
HETATM   16  H   UNL     1      17.410  47.458  46.872  1.00  0.00     0.279 HD
HETATM   17  C   UNL     1      18.739  46.022  47.573  1.00  0.00     0.254 C 
HETATM   18  C   UNL     1      19.859  46.299  46.544  1.00  0.00     0.150 C 
ENDBRANCH   8  11
ENDBRANCH   3   5
ENDBRANCH   1   3
BRANCH   1  19
HETATM   19  N   UNL     1      26.743  46.864  51.693  1.00  0.00    -0.299 N 
HETATM   20  C   UNL     1      26.424  46.546  53.012  1.00  0.00     0.260 C 
HETATM   21  O   UNL     1      25.400  46.811  53.630  1.00  0.00    -0.267 OA
HETATM   22  H   UNL     1      27.485  46.309  51.283  1.00  0.00     0.171 HD
BRANCH  20  23
HETATM   23  C   UNL     1      27.425  45.693  53.676  1.00  0.00     0.068 A 
HETATM   24  C   UNL     1      27.845  44.487  53.115  1.00  0.00     0.102 A 
HETATM   25  C   UNL     1      28.903  43.783  53.721  1.00  0.00     0.056 A 
HETATM   26 BR   UNL     1      29.599  42.227  52.840  1.00  0.00    -0.047 Br
HETATM   27  C   UNL     1      29.484  44.237  54.941  1.00  0.00    -0.006 A 
HETATM   28  C   UNL     1      28.999  45.447  55.506  1.00  0.00    -0.024 A 
HETATM   29  C   UNL     1      30.524  43.573  55.640  1.00  0.00     0.014 A 
HETATM   30  C   UNL     1      27.989  46.168  54.861  1.00  0.00     0.032 A 
HETATM   31  C   UNL     1      29.539  45.939  56.705  1.00  0.00     0.012 A 
HETATM   32  C   UNL     1      30.556  45.255  57.367  1.00  0.00     0.001 A 
HETATM   33  C   UNL     1      31.049  44.072  56.834  1.00  0.00     0.001 A 
BRANCH  24  34
HETATM   34  O   UNL     1      27.264  44.063  51.947  1.00  0.00    -0.353 OA
HETATM   35  C   UNL     1      26.064  43.320  52.191  1.00  0.00     0.210 C 
ENDBRANCH  24  34
ENDBRANCH  20  23
ENDBRANCH   1  19
TORSDOF 6
ENDMDL
MODEL 4
REMARK VINA RESULT:      -9.1      3.664      7.318
REMARK  6 active torsions:
REMARK  status: ('A' for Active; 'I' for Inactive)
REMARK    1  A    between atoms: N_6  and  C_7 
REMARK    2  A    between atoms: C_10  and  N_11 
REMARK    3  A    between atoms: N_11  and  C_12 
REMARK    4  A    between atoms: C_12  and  N_13 
REMARK       I    between atoms: N_13  and  C_14 
REMARK    5  A    between atoms: C_14  and  C_15 
REMARK    6  A    between atoms: C_16  and  O_17 
ROOT
HETATM    1  C   UNL     1      25.554  43.033  49.874  1.00  0.00     0.179 C 
HETATM    2  S   UNL     1      26.466  42.094  48.834  1.00  0.00    -0.040 SA
ENDROOT
BRANCH   1   3
HETATM    3  N   UNL     1      24.214  43.112  49.688  1.00  0.00    -0.333 N 
HETATM    4  H   UNL     1      23.737  42.216  49.698  1.00  0.00     0.168 HD
BRANCH   3   5
HETATM    5  C   UNL     1      23.432  44.220  49.317  1.00  0.00     0.034 C 
HETATM    6  C   UNL     1      24.002  45.489  49.374  1.00  0.00     0.032 C 
HETATM    7  C   UNL     1      23.297  46.607  48.899  1.00  0.00     0.031 C 
HETATM    8  C   UNL     1      22.013  46.478  48.355  1.00  0.00     0.030 C 
HETATM    9  C   UNL     1      21.409  45.216  48.455  1.00  0.00     0.031 C 
HETATM   10  C   UNL     1      22.103  44.104  48.932  1.00  0.00     0.032 C 
BRANCH   8  11
HETATM   11  N   UNL     1      21.320  47.513  47.712  1.00  0.00    -0.378 N 
HETATM   12  C   UNL     1      21.853  48.864  48.026  1.00  0.00     0.150 C 
HETATM   13  C   UNL     1      21.198  49.421  49.307  1.00  0.00     0.254 C 
HETATM   14  N   UNL     1      19.677  49.465  49.130  1.00  0.00    -0.072 N 
HETATM   15  C   UNL     1      18.993  50.074  50.315  1.00  0.00     0.269 C 
HETATM   16  H   UNL     1      19.491  50.065  48.317  1.00  0.00     0.279 HD
HETATM   17  C   UNL     1      19.129  48.077  48.803  1.00  0.00     0.254 C 
HETATM   18  C   UNL     1      19.853  47.461  47.583  1.00  0.00     0.150 C 
ENDBRANCH   8  11
ENDBRANCH   3   5
ENDBRANCH   1   3
BRANCH   1  19
HETATM   19  N   UNL     1      26.194  43.646  50.915  1.00  0.00    -0.299 N 
HETATM   20  C   UNL     1      25.737  43.904  52.206  1.00  0.00     0.260 C 
HETATM   21  O   UNL     1      24.631  43.677  52.680  1.00  0.00    -0.267 OA
HETATM   22  H   UNL     1      27.201  43.626  50.810  1.00  0.00     0.171 HD
BRANCH  20  23
HETATM   23  C   UNL     1      26.779  44.417  53.113  1.00  0.00     0.068 A 
HETATM   24  C   UNL     1      26.725  45.710  53.634  1.00  0.00     0.102 A 
HETATM   25  C   UNL     1      27.669  46.098  54.602  1.00  0.00     0.056 A 
HETATM   26 BR   UNL     1      27.472  47.809  55.448  1.00  0.00    -0.047 Br
HETATM   27  C   UNL     1      28.727  45.223  54.988  1.00  0.00    -0.006 A 
HETATM   28  C   UNL     1      28.776  43.930  54.403  1.00  0.00    -0.024 A 
HETATM   29  C   UNL     1      29.743  45.544  55.924  1.00  0.00     0.014 A 
HETATM   30  C   UNL     1      27.795  43.536  53.487  1.00  0.00     0.032 A 
HETATM   31  C   UNL     1      29.796  43.030  54.751  1.00  0.00     0.012 A 
HETATM   32  C   UNL     1      30.781  43.383  55.670  1.00  0.00     0.001 A 
HETATM   33  C   UNL     1      30.754  44.640  56.258  1.00  0.00     0.001 A 
BRANCH  24  34
HETATM   34  O   UNL     1      25.704  46.539  53.239  1.00  0.00    -0.353 OA
HETATM   35  C   UNL     1      26.013  47.213  52.014  1.00  0.00     0.210 C 
ENDBRANCH  24  34
ENDBRANCH  20  23
ENDBRANCH   1  19
TORSDOF 6
ENDMDL
MODEL 5
REMARK VINA RESULT:      -9.1      5.614      9.594
REMARK  6 active torsions:
REMARK  status: ('A' for Active; 'I' for Inactive)
REMARK    1  A    between atoms: N_6  and  C_7 
REMARK    2  A    between atoms: C_10  and  N_11 
REMARK    3  A    between atoms: N_11  and  C_12 
REMARK    4  A    between atoms: C_12  and  N_13 
REMARK       I    between atoms: N_13  and  C_14 
REMARK    5  A    between atoms: C_14  and  C_15 
REMARK    6  A    between atoms: C_16  and  O_17 
ROOT
HETATM    1  C   UNL     1      25.496  48.503  49.134  1.00  0.00     0.179 C 
HETATM    2  S   UNL     1      26.663  49.662  48.833  1.00  0.00    -0.040 SA
ENDROOT
BRANCH   1   3
HETATM    3  N   UNL     1      25.883  47.249  49.472  1.00  0.00    -0.333 N 
HETATM    4  H   UNL     1      26.045  46.634  48.681  1.00  0.00     0.168 HD
BRANCH   3   5
HETATM    5  C   UNL     1      25.925  46.642  50.740  1.00  0.00     0.034 C 
HETATM    6  C   UNL     1      25.829  45.255  50.819  1.00  0.00     0.032 C 
HETATM    7  C   UNL     1      25.986  44.602  52.052  1.00  0.00     0.031 C 
HETATM    8  C   UNL     1      26.248  45.320  53.227  1.00  0.00     0.030 C 
HETATM    9  C   UNL     1      26.183  46.718  53.139  1.00  0.00     0.031 C 
HETATM   10  C   UNL     1      26.021  47.371  51.917  1.00  0.00     0.032 C 
BRANCH   8  11
HETATM   11  N   UNL     1      26.582  44.731  54.454  1.00  0.00    -0.378 N 
HETATM   12  C   UNL     1      27.571  45.516  55.236  1.00  0.00     0.150 C 
HETATM   13  C   UNL     1      29.010  45.136  54.830  1.00  0.00     0.254 C 
HETATM   14  N   UNL     1      29.223  43.634  55.039  1.00  0.00    -0.072 N 
HETATM   15  C   UNL     1      30.630  43.220  54.736  1.00  0.00     0.269 C 
HETATM   16  H   UNL     1      29.046  43.445  56.034  1.00  0.00     0.279 HD
HETATM   17  C   UNL     1      28.203  42.824  54.238  1.00  0.00     0.254 C 
HETATM   18  C   UNL     1      26.758  43.271  54.557  1.00  0.00     0.150 C 
ENDBRANCH   8  11
ENDBRANCH   3   5
ENDBRANCH   1   3
BRANCH   1  19
HETATM   19  N   UNL     1      24.184  48.884  49.085  1.00  0.00    -0.299 N 
HETATM   20  C   UNL     1      23.525  49.669  48.141  1.00  0.00     0.260 C 
HETATM   21  O   UNL     1      23.996  50.235  47.162  1.00  0.00    -0.267 OA
HETATM   22  H   UNL     1      23.588  48.272  49.629  1.00  0.00     0.171 HD
BRANCH  20  23
HETATM   23  C   UNL     1      22.062  49.710  48.319  1.00  0.00     0.068 A 
HETATM   24  C   UNL     1      21.313  48.545  48.483  1.00  0.00     0.102 A 
HETATM   25  C   UNL     1      19.943  48.650  48.788  1.00  0.00     0.056 A 
HETATM   26 BR   UNL     1      18.964  47.052  49.196  1.00  0.00    -0.047 Br
HETATM   27  C   UNL     1      19.298  49.921  48.843  1.00  0.00    -0.006 A 
HETATM   28  C   UNL     1      20.086  51.084  48.628  1.00  0.00    -0.024 A 
HETATM   29  C   UNL     1      17.919  50.119  49.105  1.00  0.00     0.014 A 
HETATM   30  C   UNL     1      21.459  50.966  48.385  1.00  0.00     0.032 A 
HETATM   31  C   UNL     1      19.500  52.358  48.673  1.00  0.00     0.012 A 
HETATM   32  C   UNL     1      18.139  52.513  48.927  1.00  0.00     0.001 A 
HETATM   33  C   UNL     1      17.349  51.393  49.144  1.00  0.00     0.001 A 
BRANCH  24  34
HETATM   34  O   UNL     1      21.952  47.332  48.414  1.00  0.00    -0.353 OA
HETATM   35  C   UNL     1      21.776  46.713  47.134  1.00  0.00     0.210 C 
ENDBRANCH  24  34
ENDBRANCH  20  23
ENDBRANCH   1  19
TORSDOF 6
ENDMDL
MODEL 6
REMARK VINA RESULT:      -8.9      5.279      9.188
REMARK  6 active torsions:
REMARK  status: ('A' for Active; 'I' for Inactive)
REMARK    1  A    between atoms: N_6  and  C_7 
REMARK    2  A    between atoms: C_10  and  N_11 
REMARK    3  A    between atoms: N_11  and  C_12 
REMARK    4  A    between atoms: C_12  and  N_13 
REMARK       I    between atoms: N_13  and  C_14 
REMARK    5  A    between atoms: C_14  and  C_15 
REMARK    6  A    between atoms: C_16  and  O_17 
ROOT
HETATM    1  C   UNL     1      25.250  47.518  50.320  1.00  0.00     0.179 C 
HETATM    2  S   UNL     1      26.146  48.375  49.198  1.00  0.00    -0.040 SA
ENDROOT
BRANCH   1   3
HETATM    3  N   UNL     1      23.898  47.546  50.242  1.00  0.00    -0.333 N 
HETATM    4  H   UNL     1      23.435  46.781  50.722  1.00  0.00     0.168 HD
BRANCH   3   5
HETATM    5  C   UNL     1      23.068  48.371  49.461  1.00  0.00     0.034 C 
HETATM    6  C   UNL     1      22.217  47.775  48.534  1.00  0.00     0.032 C 
HETATM    7  C   UNL     1      21.289  48.552  47.821  1.00  0.00     0.031 C 
HETATM    8  C   UNL     1      21.189  49.934  48.024  1.00  0.00     0.030 C 
HETATM    9  C   UNL     1      22.162  50.522  48.846  1.00  0.00     0.031 C 
HETATM   10  C   UNL     1      23.090  49.756  49.552  1.00  0.00     0.032 C 
BRANCH   8  11
HETATM   11  N   UNL     1      20.182  50.742  47.479  1.00  0.00    -0.378 N 
HETATM   12  C   UNL     1      19.414  51.498  48.501  1.00  0.00     0.150 C 
HETATM   13  C   UNL     1      18.241  50.651  49.036  1.00  0.00     0.254 C 
HETATM   14  N   UNL     1      17.334  50.236  47.872  1.00  0.00    -0.072 N 
HETATM   15  C   UNL     1      16.131  49.477  48.342  1.00  0.00     0.269 C 
HETATM   16  H   UNL     1      17.006  51.103  47.429  1.00  0.00     0.279 HD
HETATM   17  C   UNL     1      18.124  49.461  46.818  1.00  0.00     0.254 C 
HETATM   18  C   UNL     1      19.366  50.256  46.352  1.00  0.00     0.150 C 
ENDBRANCH   8  11
ENDBRANCH   3   5
ENDBRANCH   1   3
BRANCH   1  19
HETATM   19  N   UNL     1      25.923  46.770  51.244  1.00  0.00    -0.299 N 
HETATM   20  C   UNL     1      25.505  45.638  51.942  1.00  0.00     0.260 C 
HETATM   21  O   UNL     1      24.411  45.089  51.912  1.00  0.00    -0.267 OA
HETATM   22  H   UNL     1      26.927  46.885  51.172  1.00  0.00     0.171 HD
BRANCH  20  23
HETATM   23  C   UNL     1      26.577  44.991  52.720  1.00  0.00     0.068 A 
HETATM   24  C   UNL     1      27.012  43.698  52.430  1.00  0.00     0.102 A 
HETATM   25  C   UNL     1      28.130  43.183  53.113  1.00  0.00     0.056 A 
HETATM   26 BR   UNL     1      28.835  41.482  52.576  1.00  0.00    -0.047 Br
HETATM   27  C   UNL     1      28.762  43.927  54.152  1.00  0.00    -0.006 A 
HETATM   28  C   UNL     1      28.263  45.224  54.449  1.00  0.00    -0.024 A 
HETATM   29  C   UNL     1      29.866  43.473  54.917  1.00  0.00     0.014 A 
HETATM   30  C   UNL     1      27.189  45.747  53.721  1.00  0.00     0.032 A 
HETATM   31  C   UNL     1      28.852  45.997  55.462  1.00  0.00     0.012 A 
HETATM   32  C   UNL     1      29.931  45.515  56.197  1.00  0.00     0.001 A 
HETATM   33  C   UNL     1      30.439  44.253  55.924  1.00  0.00     0.001 A 
BRANCH  24  34
HETATM   34  O   UNL     1      26.380  42.995  51.434  1.00  0.00    -0.353 OA
HETATM   35  C   UNL     1      26.940  43.281  50.148  1.00  0.00     0.210 C 
ENDBRANCH  24  34
ENDBRANCH  20  23
ENDBRANCH   1  19
TORSDOF 6
ENDMDL
MODEL 7
REMARK VINA RESULT:      -8.7      3.272      4.414
REMARK  6 active torsions:
REMARK  status: ('A' for Active; 'I' for Inactive)
REMARK    1  A    between atoms: N_6  and  C_7 
REMARK    2  A    between atoms: C_10  and  N_11 
REMARK    3  A    between atoms: N_11  and  C_12 
REMARK    4  A    between atoms: C_12  and  N_13 
REMARK       I    between atoms: N_13  and  C_14 
REMARK    5  A    between atoms: C_14  and  C_15 
REMARK    6  A    between atoms: C_16  and  O_17 
ROOT
HETATM    1  C   UNL     1      25.082  46.567  50.533  1.00  0.00     0.179 C 
HETATM    2  S   UNL     1      25.648  47.899  49.695  1.00  0.00    -0.040 SA
ENDROOT
BRANCH   1   3
HETATM    3  N   UNL     1      23.847  46.087  50.250  1.00  0.00    -0.333 N 
HETATM    4  H   UNL     1      23.096  46.528  50.772  1.00  0.00     0.168 HD
BRANCH   3   5
HETATM    5  C   UNL     1      23.482  44.968  49.479  1.00  0.00     0.034 C 
HETATM    6  C   UNL     1      23.137  45.162  48.144  1.00  0.00     0.032 C 
HETATM    7  C   UNL     1      22.884  44.061  47.309  1.00  0.00     0.031 C 
HETATM    8  C   UNL     1      22.977  42.748  47.789  1.00  0.00     0.030 C 
HETATM    9  C   UNL     1      23.173  42.594  49.169  1.00  0.00     0.031 C 
HETATM   10  C   UNL     1      23.419  43.685  50.004  1.00  0.00     0.032 C 
BRANCH   8  11
HETATM   11  N   UNL     1      22.905  41.605  46.982  1.00  0.00    -0.378 N 
HETATM   12  C   UNL     1      23.831  40.523  47.405  1.00  0.00     0.150 C 
HETATM   13  C   UNL     1      25.219  40.713  46.759  1.00  0.00     0.254 C 
HETATM   14  N   UNL     1      25.077  40.740  45.233  1.00  0.00    -0.072 N 
HETATM   15  C   UNL     1      26.405  40.841  44.548  1.00  0.00     0.269 C 
HETATM   16  H   UNL     1      24.649  39.846  44.960  1.00  0.00     0.279 HD
HETATM   17  C   UNL     1      24.121  41.849  44.797  1.00  0.00     0.254 C 
HETATM   18  C   UNL     1      22.760  41.733  45.521  1.00  0.00     0.150 C 
ENDBRANCH   8  11
ENDBRANCH   3   5
ENDBRANCH   1   3
BRANCH   1  19
HETATM   19  N   UNL     1      25.917  45.973  51.437  1.00  0.00    -0.299 N 
HETATM   20  C   UNL     1      25.607  45.238  52.580  1.00  0.00     0.260 C 
HETATM   21  O   UNL     1      24.502  45.002  53.053  1.00  0.00    -0.267 OA
HETATM   22  H   UNL     1      26.839  45.803  51.052  1.00  0.00     0.171 HD
BRANCH  20  23
HETATM   23  C   UNL     1      26.775  44.594  53.207  1.00  0.00     0.068 A 
HETATM   24  C   UNL     1      27.201  43.323  52.825  1.00  0.00     0.102 A 
HETATM   25  C   UNL     1      28.402  42.815  53.356  1.00  0.00     0.056 A 
HETATM   26 BR   UNL     1      29.077  41.151  52.683  1.00  0.00    -0.047 Br
HETATM   27  C   UNL     1      29.133  43.542  54.342  1.00  0.00    -0.006 A 
HETATM   28  C   UNL     1      28.643  44.814  54.740  1.00  0.00    -0.024 A 
HETATM   29  C   UNL     1      30.328  43.091  54.959  1.00  0.00     0.014 A 
HETATM   30  C   UNL     1      27.482  45.333  54.157  1.00  0.00     0.032 A 
HETATM   31  C   UNL     1      29.327  45.570  55.705  1.00  0.00     0.012 A 
HETATM   32  C   UNL     1      30.494  45.092  56.294  1.00  0.00     0.001 A 
HETATM   33  C   UNL     1      30.995  43.853  55.921  1.00  0.00     0.001 A 
BRANCH  24  34
HETATM   34  O   UNL     1      26.475  42.637  51.883  1.00  0.00    -0.353 OA
HETATM   35  C   UNL     1      27.020  42.804  50.569  1.00  0.00     0.210 C 
ENDBRANCH  24  34
ENDBRANCH  20  23
ENDBRANCH   1  19
TORSDOF 6
ENDMDL
MODEL 8
REMARK VINA RESULT:      -8.7      2.028      3.278
REMARK  6 active torsions:
REMARK  status: ('A' for Active; 'I' for Inactive)
REMARK    1  A    between atoms: N_6  and  C_7 
REMARK    2  A    between atoms: C_10  and  N_11 
REMARK    3  A    between atoms: N_11  and  C_12 
REMARK    4  A    between atoms: C_12  and  N_13 
REMARK       I    between atoms: N_13  and  C_14 
REMARK    5  A    between atoms: C_14  and  C_15 
REMARK    6  A    between atoms: C_16  and  O_17 
ROOT
HETATM    1  C   UNL     1      24.303  43.221  49.232  1.00  0.00     0.179 C 
HETATM    2  S   UNL     1      22.679  43.580  49.400  1.00  0.00    -0.040 SA
ENDROOT
BRANCH   1   3
HETATM    3  N   UNL     1      24.745  42.699  48.062  1.00  0.00    -0.333 N 
HETATM    4  H   UNL     1      24.389  43.165  47.234  1.00  0.00     0.168 HD
BRANCH   3   5
HETATM    5  C   UNL     1      25.475  41.518  47.835  1.00  0.00     0.034 C 
HETATM    6  C   UNL     1      26.854  41.539  48.026  1.00  0.00     0.032 C 
HETATM    7  C   UNL     1      27.603  40.355  47.927  1.00  0.00     0.031 C 
HETATM    8  C   UNL     1      26.989  39.129  47.642  1.00  0.00     0.030 C 
HETATM    9  C   UNL     1      25.629  39.169  47.302  1.00  0.00     0.031 C 
HETATM   10  C   UNL     1      24.882  40.344  47.393  1.00  0.00     0.032 C 
BRANCH   8  11
HETATM   11  N   UNL     1      27.640  37.889  47.694  1.00  0.00    -0.378 N 
HETATM   12  C   UNL     1      27.041  36.948  48.675  1.00  0.00     0.150 C 
HETATM   13  C   UNL     1      27.653  37.162  50.076  1.00  0.00     0.254 C 
HETATM   14  N   UNL     1      29.173  36.979  50.006  1.00  0.00    -0.072 N 
HETATM   15  C   UNL     1      29.814  37.096  51.354  1.00  0.00     0.269 C 
HETATM   16  H   UNL     1      29.341  36.026  49.659  1.00  0.00     0.279 HD
HETATM   17  C   UNL     1      29.789  37.943  48.993  1.00  0.00     0.254 C 
HETATM   18  C   UNL     1      29.109  37.814  47.610  1.00  0.00     0.150 C 
ENDBRANCH   8  11
ENDBRANCH   3   5
ENDBRANCH   1   3
BRANCH   1  19
HETATM   19  N   UNL     1      25.140  43.525  50.269  1.00  0.00    -0.299 N 
HETATM   20  C   UNL     1      26.269  44.342  50.287  1.00  0.00     0.260 C 
HETATM   21  O   UNL     1      26.790  44.937  49.352  1.00  0.00    -0.267 OA
HETATM   22  H   UNL     1      24.701  43.376  51.170  1.00  0.00     0.171 HD
BRANCH  20  23
HETATM   23  C   UNL     1      26.808  44.579  51.638  1.00  0.00     0.068 A 
HETATM   24  C   UNL     1      27.756  43.729  52.206  1.00  0.00     0.102 A 
HETATM   25  C   UNL     1      28.339  44.079  53.438  1.00  0.00     0.056 A 
HETATM   26 BR   UNL     1      29.775  43.004  54.119  1.00  0.00    -0.047 Br
HETATM   27  C   UNL     1      27.909  45.238  54.150  1.00  0.00    -0.006 A 
HETATM   28  C   UNL     1      26.910  46.057  53.560  1.00  0.00    -0.024 A 
HETATM   29  C   UNL     1      28.411  45.646  55.412  1.00  0.00     0.014 A 
HETATM   30  C   UNL     1      26.383  45.728  52.306  1.00  0.00     0.032 A 
HETATM   31  C   UNL     1      26.454  47.209  54.219  1.00  0.00     0.012 A 
HETATM   32  C   UNL     1      26.966  47.575  55.461  1.00  0.00     0.001 A 
HETATM   33  C   UNL     1      27.946  46.794  56.058  1.00  0.00     0.001 A 
BRANCH  24  34
HETATM   34  O   UNL     1      28.146  42.613  51.509  1.00  0.00    -0.353 OA
HETATM   35  C   UNL     1      27.465  41.438  51.965  1.00  0.00     0.210 C 
ENDBRANCH  24  34
ENDBRANCH  20  23
ENDBRANCH   1  19
TORSDOF 6
ENDMDL
MODEL 9
REMARK VINA RESULT:      -8.7      4.281      8.552
REMARK  6 active torsions:
REMARK  status: ('A' for Active; 'I' for Inactive)
REMARK    1  A    between atoms: N_6  and  C_7 
REMARK    2  A    between atoms: C_10  and  N_11 
REMARK    3  A    between atoms: N_11  and  C_12 
REMARK    4  A    between atoms: C_12  and  N_13 
REMARK       I    between atoms: N_13  and  C_14 
REMARK    5  A    between atoms: C_14  and  C_15 
REMARK    6  A    between atoms: C_16  and  O_17 
ROOT
HETATM    1  C   UNL     1      23.953  43.705  49.645  1.00  0.00     0.179 C 
HETATM    2  S   UNL     1      24.024  42.408  48.592  1.00  0.00    -0.040 SA
ENDROOT
BRANCH   1   3
HETATM    3  N   UNL     1      22.907  44.563  49.565  1.00  0.00    -0.333 N 
HETATM    4  H   UNL     1      22.003  44.139  49.742  1.00  0.00     0.168 HD
BRANCH   3   5
HETATM    5  C   UNL     1      22.882  45.894  49.111  1.00  0.00     0.034 C 
HETATM    6  C   UNL     1      21.955  46.248  48.134  1.00  0.00     0.032 C 
HETATM    7  C   UNL     1      21.815  47.589  47.740  1.00  0.00     0.031 C 
HETATM    8  C   UNL     1      22.593  48.601  48.318  1.00  0.00     0.030 C 
HETATM    9  C   UNL     1      23.620  48.192  49.181  1.00  0.00     0.031 C 
HETATM   10  C   UNL     1      23.767  46.860  49.571  1.00  0.00     0.032 C 
BRANCH   8  11
HETATM   11  N   UNL     1      22.394  49.971  48.100  1.00  0.00    -0.378 N 
HETATM   12  C   UNL     1      22.572  50.796  49.324  1.00  0.00     0.150 C 
HETATM   13  C   UNL     1      21.252  50.880  50.118  1.00  0.00     0.254 C 
HETATM   14  N   UNL     1      20.152  51.464  49.226  1.00  0.00    -0.072 N 
HETATM   15  C   UNL     1      18.865  51.645  49.970  1.00  0.00     0.269 C 
HETATM   16  H   UNL     1      20.476  52.392  48.926  1.00  0.00     0.279 HD
HETATM   17  C   UNL     1      19.971  50.619  47.965  1.00  0.00     0.254 C 
HETATM   18  C   UNL     1      21.311  50.436  47.216  1.00  0.00     0.150 C 
ENDBRANCH   8  11
ENDBRANCH   3   5
ENDBRANCH   1   3
BRANCH   1  19
HETATM   19  N   UNL     1      24.932  43.819  50.592  1.00  0.00    -0.299 N 
HETATM   20  C   UNL     1      26.213  44.356  50.481  1.00  0.00     0.260 C 
HETATM   21  O   UNL     1      26.764  44.807  49.485  1.00  0.00    -0.267 OA
HETATM   22  H   UNL     1      24.559  43.783  51.533  1.00  0.00     0.171 HD
BRANCH  20  23
HETATM   23  C   UNL     1      26.920  44.476  51.769  1.00  0.00     0.068 A 
HETATM   24  C   UNL     1      27.922  43.579  52.139  1.00  0.00     0.102 A 
HETATM   25  C   UNL     1      28.658  43.823  53.314  1.00  0.00     0.056 A 
HETATM   26 BR   UNL     1      30.156  42.693  53.715  1.00  0.00    -0.047 Br
HETATM   27  C   UNL     1      28.334  44.916  54.170  1.00  0.00    -0.006 A 
HETATM   28  C   UNL     1      27.277  45.783  53.783  1.00  0.00    -0.024 A 
HETATM   29  C   UNL     1      28.994  45.214  55.390  1.00  0.00     0.014 A 
HETATM   30  C   UNL     1      26.595  45.563  52.581  1.00  0.00     0.032 A 
HETATM   31  C   UNL     1      26.920  46.874  54.589  1.00  0.00     0.012 A 
HETATM   32  C   UNL     1      27.587  47.131  55.784  1.00  0.00     0.001 A 
HETATM   33  C   UNL     1      28.625  46.302  56.184  1.00  0.00     0.001 A 
BRANCH  24  34
HETATM   34  O   UNL     1      28.210  42.528  51.306  1.00  0.00    -0.353 OA
HETATM   35  C   UNL     1      27.506  41.340  51.689  1.00  0.00     0.210 C 
ENDBRANCH  24  34
ENDBRANCH  20  23
ENDBRANCH   1  19
TORSDOF 6
ENDMDL
MODEL 10
REMARK VINA RESULT:      -8.6      1.232      2.041
REMARK  6 active torsions:
REMARK  status: ('A' for Active; 'I' for Inactive)
REMARK    1  A    between atoms: N_6  and  C_7 
REMARK    2  A    between atoms: C_10  and  N_11 
REMARK    3  A    between atoms: N_11  and  C_12 
REMARK    4  A    between atoms: C_12  and  N_13 
REMARK       I    between atoms: N_13  and  C_14 
REMARK    5  A    between atoms: C_14  and  C_15 
REMARK    6  A    between atoms: C_16  and  O_17 
ROOT
HETATM    1  C   UNL     1      24.707  43.532  49.890  1.00  0.00     0.179 C 
HETATM    2  S   UNL     1      23.042  43.625  50.000  1.00  0.00    -0.040 SA
ENDROOT
BRANCH   1   3
HETATM    3  N   UNL     1      25.270  43.148  48.719  1.00  0.00    -0.333 N 
HETATM    4  H   UNL     1      25.137  43.804  47.955  1.00  0.00     0.168 HD
BRANCH   3   5
HETATM    5  C   UNL     1      25.852  41.915  48.373  1.00  0.00     0.034 C 
HETATM    6  C   UNL     1      27.240  41.819  48.336  1.00  0.00     0.032 C 
HETATM    7  C   UNL     1      27.861  40.579  48.114  1.00  0.00     0.031 C 
HETATM    8  C   UNL     1      27.108  39.412  47.931  1.00  0.00     0.030 C 
HETATM    9  C   UNL     1      25.719  39.569  47.819  1.00  0.00     0.031 C 
HETATM   10  C   UNL     1      25.098  40.800  48.033  1.00  0.00     0.032 C 
BRANCH   8  11
HETATM   11  N   UNL     1      27.653  38.122  47.874  1.00  0.00    -0.378 N 
HETATM   12  C   UNL     1      26.990  37.160  48.792  1.00  0.00     0.150 C 
HETATM   13  C   UNL     1      27.637  37.212  50.192  1.00  0.00     0.254 C 
HETATM   14  N   UNL     1      29.135  36.909  50.077  1.00  0.00    -0.072 N 
HETATM   15  C   UNL     1      29.802  36.865  51.417  1.00  0.00     0.269 C 
HETATM   16  H   UNL     1      29.217  35.976  49.654  1.00  0.00     0.279 HD
HETATM   17  C   UNL     1      29.816  37.895  49.129  1.00  0.00     0.254 C 
HETATM   18  C   UNL     1      29.109  37.932  47.755  1.00  0.00     0.150 C 
ENDBRANCH   8  11
ENDBRANCH   3   5
ENDBRANCH   1   3
BRANCH   1  19
HETATM   19  N   UNL     1      25.446  43.904  50.979  1.00  0.00    -0.299 N 
HETATM   20  C   UNL     1      26.305  43.143  51.769  1.00  0.00     0.260 C 
HETATM   21  O   UNL     1      26.552  41.946  51.686  1.00  0.00    -0.267 OA
HETATM   22  H   UNL     1      25.605  44.904  51.008  1.00  0.00     0.171 HD
BRANCH  20  23
HETATM   23  C   UNL     1      27.073  43.936  52.745  1.00  0.00     0.068 A 
HETATM   24  C   UNL     1      26.640  45.192  53.169  1.00  0.00     0.102 A 
HETATM   25  C   UNL     1      27.337  45.843  54.204  1.00  0.00     0.056 A 
HETATM   26 BR   UNL     1      26.626  47.480  54.908  1.00  0.00    -0.047 Br
HETATM   27  C   UNL     1      28.523  45.278  54.759  1.00  0.00    -0.006 A 
HETATM   28  C   UNL     1      28.958  44.016  54.271  1.00  0.00    -0.024 A 
HETATM   29  C   UNL     1      29.309  45.879  55.774  1.00  0.00     0.014 A 
HETATM   30  C   UNL     1      28.221  43.353  53.284  1.00  0.00     0.032 A 
HETATM   31  C   UNL     1      30.118  43.416  54.785  1.00  0.00     0.012 A 
HETATM   32  C   UNL     1      30.868  44.041  55.778  1.00  0.00     0.001 A 
HETATM   33  C   UNL     1      30.463  45.272  56.274  1.00  0.00     0.001 A 
BRANCH  24  34
HETATM   34  O   UNL     1      25.503  45.722  52.613  1.00  0.00    -0.353 OA
HETATM   35  C   UNL     1      25.792  46.872  51.809  1.00  0.00     0.210 C 
ENDBRANCH  24  34
ENDBRANCH  20  23
ENDBRANCH   1  19
TORSDOF 6
ENDMDL
