MODEL 1
REMARK VINA RESULT:      -8.5      0.000      0.000
REMARK  7 active torsions:
REMARK  status: ('A' for Active; 'I' for Inactive)
REMARK    1  A    between atoms: C_2  and  C_3 
REMARK    2  A    between atoms: C_3  and  N_4 
REMARK       I    between atoms: N_4  and  C_5 
REMARK    3  A    between atoms: C_5  and  C_6 
REMARK    4  A    between atoms: C_7  and  N_8 
REMARK       I    between atoms: N_8  and  C_9 
REMARK    5  A    between atoms: C_9  and  C_10 
REMARK    6  A    between atoms: C_12  and  O_13 
REMARK    7  A    between atoms: O_13  and  C_14 
ROOT
HETATM    1  N   UNL     1      27.952  45.224  53.796  1.00  0.00    -0.322 N 
HETATM    2  C   UNL     1      26.743  44.551  53.737  1.00  0.00     0.256 C 
HETATM    3  O   UNL     1      26.326  43.756  54.572  1.00  0.00    -0.267 OA
HETATM    4  H   UNL     1      27.984  46.126  53.339  1.00  0.00     0.169 HD
ENDROOT
BRANCH   1   5
HETATM    5  C   UNL     1      28.951  44.963  54.762  1.00  0.00     0.050 A 
HETATM    6  C   UNL     1      29.710  43.782  54.838  1.00  0.00     0.058 A 
HETATM    7  C   UNL     1      30.616  43.595  55.897  1.00  0.00     0.019 A 
HETATM    8  C   UNL     1      30.783  44.583  56.866  1.00  0.00     0.001 A 
HETATM    9  C   UNL     1      30.073  45.776  56.765  1.00  0.00     0.002 A 
HETATM   10  C   UNL     1      29.172  45.970  55.714  1.00  0.00     0.030 A 
BRANCH   6  11
HETATM   11  C   UNL     1      29.761  42.789  53.735  1.00  0.00     0.254 C 
HETATM   12  N   UNL     1      28.844  41.763  53.835  1.00  0.00    -0.353 N 
HETATM   13  H   UNL     1      28.030  41.943  54.408  1.00  0.00     0.163 HD
HETATM   14  O   UNL     1      30.599  42.892  52.846  1.00  0.00    -0.268 OA
BRANCH  12  15
HETATM   15  C   UNL     1      28.725  40.805  52.769  1.00  0.00     0.149 C 
BRANCH  15  16
HETATM   16  C   UNL     1      27.550  41.193  51.928  1.00  0.00    -0.018 C 
HETATM   17  C   UNL     1      27.630  41.832  50.754  1.00  0.00     0.008 C 
ENDBRANCH  15  16
ENDBRANCH  12  15
ENDBRANCH   6  11
ENDBRANCH   1   5
BRANCH   2  18
HETATM   18  C   UNL     1      25.855  44.957  52.620  1.00  0.00     0.037 A 
HETATM   19  C   UNL     1      25.876  46.287  52.207  1.00  0.00     0.075 A 
HETATM   20  C   UNL     1      25.042  46.650  51.170  1.00  0.00     0.165 A 
HETATM   21  N   UNL     1      24.215  45.798  50.530  1.00  0.00    -0.237 NA
HETATM   22  C   UNL     1      24.204  44.519  50.965  1.00  0.00     0.120 A 
HETATM   23  C   UNL     1      24.997  44.049  51.997  1.00  0.00     0.036 A 
BRANCH  20  24
HETATM   24  O   UNL     1      25.088  47.973  50.776  1.00  0.00    -0.329 OA
BRANCH  24  25
HETATM   25  C   UNL     1      25.612  48.226  49.456  1.00  0.00     0.130 C 
HETATM   26  C   UNL     1      25.182  49.554  48.776  1.00  0.00     0.032 C 
HETATM   27  C   UNL     1      26.629  49.700  48.275  1.00  0.00     0.005 C 
HETATM   28  C   UNL     1      27.057  48.789  49.437  1.00  0.00     0.032 C 
ENDBRANCH  24  25
ENDBRANCH  20  24
ENDBRANCH   2  18
TORSDOF 7
ENDMDL
MODEL 2
REMARK VINA RESULT:      -8.1      2.039      3.673
REMARK  7 active torsions:
REMARK  status: ('A' for Active; 'I' for Inactive)
REMARK    1  A    between atoms: C_2  and  C_3 
REMARK    2  A    between atoms: C_3  and  N_4 
REMARK       I    between atoms: N_4  and  C_5 
REMARK    3  A    between atoms: C_5  and  C_6 
REMARK    4  A    between atoms: C_7  and  N_8 
REMARK       I    between atoms: N_8  and  C_9 
REMARK    5  A    between atoms: C_9  and  C_10 
REMARK    6  A    between atoms: C_12  and  O_13 
REMARK    7  A    between atoms: O_13  and  C_14 
ROOT
HETATM    1  N   UNL     1      29.452  43.738  53.837  1.00  0.00    -0.322 N 
HETATM    2  C   UNL     1      28.237  43.111  53.613  1.00  0.00     0.256 C 
HETATM    3  O   UNL     1      27.403  42.842  54.470  1.00  0.00    -0.267 OA
HETATM    4  H   UNL     1      29.820  44.285  53.069  1.00  0.00     0.169 HD
ENDROOT
BRANCH   1   5
HETATM    5  C   UNL     1      29.969  44.014  55.123  1.00  0.00     0.050 A 
HETATM    6  C   UNL     1      29.838  45.239  55.799  1.00  0.00     0.058 A 
HETATM    7  C   UNL     1      30.471  45.431  57.040  1.00  0.00     0.019 A 
HETATM    8  C   UNL     1      31.215  44.404  57.618  1.00  0.00     0.001 A 
HETATM    9  C   UNL     1      31.305  43.171  56.977  1.00  0.00     0.002 A 
HETATM   10  C   UNL     1      30.676  42.973  55.745  1.00  0.00     0.030 A 
BRANCH   6  11
HETATM   11  C   UNL     1      28.885  46.294  55.368  1.00  0.00     0.254 C 
HETATM   12  N   UNL     1      27.552  45.956  55.487  1.00  0.00    -0.353 N 
HETATM   13  H   UNL     1      27.333  45.218  56.143  1.00  0.00     0.163 HD
HETATM   14  O   UNL     1      29.298  47.354  54.911  1.00  0.00    -0.268 OA
BRANCH  12  15
HETATM   15  C   UNL     1      26.539  46.937  55.206  1.00  0.00     0.149 C 
BRANCH  15  16
HETATM   16  C   UNL     1      25.958  46.629  53.862  1.00  0.00    -0.018 C 
HETATM   17  C   UNL     1      25.262  45.524  53.566  1.00  0.00     0.008 C 
ENDBRANCH  15  16
ENDBRANCH  12  15
ENDBRANCH   6  11
ENDBRANCH   1   5
BRANCH   2  18
HETATM   18  C   UNL     1      27.903  42.885  52.184  1.00  0.00     0.037 A 
HETATM   19  C   UNL     1      27.527  43.981  51.412  1.00  0.00     0.075 A 
HETATM   20  C   UNL     1      27.216  43.754  50.087  1.00  0.00     0.165 A 
HETATM   21  N   UNL     1      27.260  42.542  49.496  1.00  0.00    -0.237 NA
HETATM   22  C   UNL     1      27.611  41.497  50.276  1.00  0.00     0.120 A 
HETATM   23  C   UNL     1      27.940  41.612  51.615  1.00  0.00     0.036 A 
BRANCH  20  24
HETATM   24  O   UNL     1      26.853  44.858  49.341  1.00  0.00    -0.329 OA
BRANCH  24  25
HETATM   25  C   UNL     1      26.390  46.004  50.085  1.00  0.00     0.130 C 
HETATM   26  C   UNL     1      26.789  47.401  49.536  1.00  0.00     0.032 C 
HETATM   27  C   UNL     1      25.367  47.879  49.875  1.00  0.00     0.005 C 
HETATM   28  C   UNL     1      24.922  46.409  49.793  1.00  0.00     0.032 C 
ENDBRANCH  24  25
ENDBRANCH  20  24
ENDBRANCH   2  18
TORSDOF 7
ENDMDL
MODEL 3
REMARK VINA RESULT:      -8.1      2.875      6.403
REMARK  7 active torsions:
REMARK  status: ('A' for Active; 'I' for Inactive)
REMARK    1  A    between atoms: C_2  and  C_3 
REMARK    2  A    between atoms: C_3  and  N_4 
REMARK       I    between atoms: N_4  and  C_5 
REMARK    3  A    between atoms: C_5  and  C_6 
REMARK    4  A    between atoms: C_7  and  N_8 
REMARK       I    between atoms: N_8  and  C_9 
REMARK    5  A    between atoms: C_9  and  C_10 
REMARK    6  A    between atoms: C_12  and  O_13 
REMARK    7  A    between atoms: O_13  and  C_14 
ROOT
HETATM    1  N   UNL     1      25.809  44.641  51.891  1.00  0.00    -0.322 N 
HETATM    2  C   UNL     1      25.640  44.715  53.263  1.00  0.00     0.256 C 
HETATM    3  O   UNL     1      25.040  43.900  53.955  1.00  0.00    -0.267 OA
HETATM    4  H   UNL     1      26.644  45.075  51.520  1.00  0.00     0.169 HD
ENDROOT
BRANCH   1   5
HETATM    5  C   UNL     1      25.169  43.684  51.070  1.00  0.00     0.050 A 
HETATM    6  C   UNL     1      25.754  42.488  50.620  1.00  0.00     0.058 A 
HETATM    7  C   UNL     1      25.053  41.652  49.733  1.00  0.00     0.019 A 
HETATM    8  C   UNL     1      23.769  41.991  49.309  1.00  0.00     0.001 A 
HETATM    9  C   UNL     1      23.165  43.148  49.794  1.00  0.00     0.002 A 
HETATM   10  C   UNL     1      23.855  43.983  50.678  1.00  0.00     0.030 A 
BRANCH   6  11
HETATM   11  C   UNL     1      27.010  41.943  51.195  1.00  0.00     0.254 C 
HETATM   12  N   UNL     1      26.993  41.766  52.564  1.00  0.00    -0.353 N 
HETATM   13  H   UNL     1      26.082  41.682  52.994  1.00  0.00     0.163 HD
HETATM   14  O   UNL     1      27.977  41.722  50.475  1.00  0.00    -0.268 OA
BRANCH  12  15
HETATM   15  C   UNL     1      28.112  41.141  53.217  1.00  0.00     0.149 C 
BRANCH  15  16
HETATM   16  C   UNL     1      28.976  42.221  53.787  1.00  0.00    -0.018 C 
HETATM   17  C   UNL     1      30.078  42.706  53.200  1.00  0.00     0.008 C 
ENDBRANCH  15  16
ENDBRANCH  12  15
ENDBRANCH   6  11
ENDBRANCH   1   5
BRANCH   2  18
HETATM   18  C   UNL     1      26.377  45.820  53.926  1.00  0.00     0.037 A 
HETATM   19  C   UNL     1      27.667  45.571  54.390  1.00  0.00     0.075 A 
HETATM   20  C   UNL     1      28.337  46.606  55.007  1.00  0.00     0.165 A 
HETATM   21  N   UNL     1      27.825  47.842  55.181  1.00  0.00    -0.237 NA
HETATM   22  C   UNL     1      26.566  48.048  54.736  1.00  0.00     0.120 A 
HETATM   23  C   UNL     1      25.804  47.079  54.107  1.00  0.00     0.036 A 
BRANCH  20  24
HETATM   24  O   UNL     1      29.616  46.335  55.451  1.00  0.00    -0.329 OA
BRANCH  24  25
HETATM   25  C   UNL     1      29.735  45.311  56.461  1.00  0.00     0.130 C 
HETATM   26  C   UNL     1      30.973  44.378  56.368  1.00  0.00     0.032 C 
HETATM   27  C   UNL     1      31.093  44.478  57.898  1.00  0.00     0.005 C 
HETATM   28  C   UNL     1      30.321  45.805  57.810  1.00  0.00     0.032 C 
ENDBRANCH  24  25
ENDBRANCH  20  24
ENDBRANCH   2  18
TORSDOF 7
ENDMDL
MODEL 4
REMARK VINA RESULT:      -7.9      2.205      3.032
REMARK  7 active torsions:
REMARK  status: ('A' for Active; 'I' for Inactive)
REMARK    1  A    between atoms: C_2  and  C_3 
REMARK    2  A    between atoms: C_3  and  N_4 
REMARK       I    between atoms: N_4  and  C_5 
REMARK    3  A    between atoms: C_5  and  C_6 
REMARK    4  A    between atoms: C_7  and  N_8 
REMARK       I    between atoms: N_8  and  C_9 
REMARK    5  A    between atoms: C_9  and  C_10 
REMARK    6  A    between atoms: C_12  and  O_13 
REMARK    7  A    between atoms: O_13  and  C_14 
ROOT
HETATM    1  N   UNL     1      26.850  44.337  51.695  1.00  0.00    -0.322 N 
HETATM    2  C   UNL     1      25.499  44.463  51.974  1.00  0.00     0.256 C 
HETATM    3  O   UNL     1      24.954  44.148  53.026  1.00  0.00    -0.267 OA
HETATM    4  H   UNL     1      27.234  45.002  51.036  1.00  0.00     0.169 HD
ENDROOT
BRANCH   1   5
HETATM    5  C   UNL     1      27.769  43.673  52.539  1.00  0.00     0.050 A 
HETATM    6  C   UNL     1      28.142  42.323  52.423  1.00  0.00     0.058 A 
HETATM    7  C   UNL     1      28.998  41.744  53.375  1.00  0.00     0.019 A 
HETATM    8  C   UNL     1      29.500  42.506  54.429  1.00  0.00     0.001 A 
HETATM    9  C   UNL     1      29.176  43.857  54.519  1.00  0.00     0.002 A 
HETATM   10  C   UNL     1      28.327  44.440  53.574  1.00  0.00     0.030 A 
BRANCH   6  11
HETATM   11  C   UNL     1      27.840  41.509  51.217  1.00  0.00     0.254 C 
HETATM   12  N   UNL     1      28.706  40.458  50.995  1.00  0.00    -0.353 N 
HETATM   13  H   UNL     1      29.222  40.124  51.798  1.00  0.00     0.163 HD
HETATM   14  O   UNL     1      26.906  41.811  50.482  1.00  0.00    -0.268 OA
BRANCH  12  15
HETATM   15  C   UNL     1      28.449  39.535  49.922  1.00  0.00     0.149 C 
BRANCH  15  16
HETATM   16  C   UNL     1      29.532  38.504  49.930  1.00  0.00    -0.018 C 
HETATM   17  C   UNL     1      29.949  37.843  51.017  1.00  0.00     0.008 C 
ENDBRANCH  15  16
ENDBRANCH  12  15
ENDBRANCH   6  11
ENDBRANCH   1   5
BRANCH   2  18
HETATM   18  C   UNL     1      24.708  45.166  50.933  1.00  0.00     0.037 A 
HETATM   19  C   UNL     1      24.789  46.554  50.865  1.00  0.00     0.075 A 
HETATM   20  C   UNL     1      24.045  47.193  49.895  1.00  0.00     0.165 A 
HETATM   21  N   UNL     1      23.252  46.556  49.008  1.00  0.00    -0.237 NA
HETATM   22  C   UNL     1      23.181  45.212  49.111  1.00  0.00     0.120 A 
HETATM   23  C   UNL     1      23.882  44.473  50.047  1.00  0.00     0.036 A 
BRANCH  20  24
HETATM   24  O   UNL     1      24.148  48.569  49.845  1.00  0.00    -0.329 OA
BRANCH  24  25
HETATM   25  C   UNL     1      23.184  49.249  49.015  1.00  0.00     0.130 C 
HETATM   26  C   UNL     1      22.474  50.482  49.637  1.00  0.00     0.032 C 
HETATM   27  C   UNL     1      22.628  51.186  48.278  1.00  0.00     0.005 C 
HETATM   28  C   UNL     1      23.801  50.236  47.989  1.00  0.00     0.032 C 
ENDBRANCH  24  25
ENDBRANCH  20  24
ENDBRANCH   2  18
TORSDOF 7
ENDMDL
MODEL 5
REMARK VINA RESULT:      -7.8      2.150      4.586
REMARK  7 active torsions:
REMARK  status: ('A' for Active; 'I' for Inactive)
REMARK    1  A    between atoms: C_2  and  C_3 
REMARK    2  A    between atoms: C_3  and  N_4 
REMARK       I    between atoms: N_4  and  C_5 
REMARK    3  A    between atoms: C_5  and  C_6 
REMARK    4  A    between atoms: C_7  and  N_8 
REMARK       I    between atoms: N_8  and  C_9 
REMARK    5  A    between atoms: C_9  and  C_10 
REMARK    6  A    between atoms: C_12  and  O_13 
REMARK    7  A    between atoms: O_13  and  C_14 
ROOT
HETATM    1  N   UNL     1      27.074  44.880  51.529  1.00  0.00    -0.322 N 
HETATM    2  C   UNL     1      25.756  45.286  51.406  1.00  0.00     0.256 C 
HETATM    3  O   UNL     1      24.794  44.772  51.967  1.00  0.00    -0.267 OA
HETATM    4  H   UNL     1      27.776  45.599  51.408  1.00  0.00     0.169 HD
ENDROOT
BRANCH   1   5
HETATM    5  C   UNL     1      27.476  43.705  52.204  1.00  0.00     0.050 A 
HETATM    6  C   UNL     1      27.971  43.659  53.519  1.00  0.00     0.058 A 
HETATM    7  C   UNL     1      28.424  42.442  54.059  1.00  0.00     0.019 A 
HETATM    8  C   UNL     1      28.368  41.272  53.305  1.00  0.00     0.001 A 
HETATM    9  C   UNL     1      27.830  41.302  52.021  1.00  0.00     0.002 A 
HETATM   10  C   UNL     1      27.375  42.507  51.479  1.00  0.00     0.030 A 
BRANCH   6  11
HETATM   11  C   UNL     1      27.853  44.802  54.460  1.00  0.00     0.254 C 
HETATM   12  N   UNL     1      29.032  45.170  55.076  1.00  0.00    -0.353 N 
HETATM   13  H   UNL     1      29.886  44.896  54.610  1.00  0.00     0.163 HD
HETATM   14  O   UNL     1      26.763  45.322  54.672  1.00  0.00    -0.268 OA
BRANCH  12  15
HETATM   15  C   UNL     1      29.063  46.333  55.922  1.00  0.00     0.149 C 
BRANCH  15  16
HETATM   16  C   UNL     1      29.229  45.872  57.336  1.00  0.00    -0.018 C 
HETATM   17  C   UNL     1      30.355  45.991  58.051  1.00  0.00     0.008 C 
ENDBRANCH  15  16
ENDBRANCH  12  15
ENDBRANCH   6  11
ENDBRANCH   1   5
BRANCH   2  18
HETATM   18  C   UNL     1      25.555  46.532  50.625  1.00  0.00     0.037 A 
HETATM   19  C   UNL     1      24.252  46.925  50.330  1.00  0.00     0.075 A 
HETATM   20  C   UNL     1      24.082  48.083  49.600  1.00  0.00     0.165 A 
HETATM   21  N   UNL     1      25.096  48.858  49.162  1.00  0.00    -0.237 NA
HETATM   22  C   UNL     1      26.349  48.441  49.450  1.00  0.00     0.120 A 
HETATM   23  C   UNL     1      26.632  47.296  50.171  1.00  0.00     0.036 A 
BRANCH  20  24
HETATM   24  O   UNL     1      22.780  48.455  49.327  1.00  0.00    -0.329 OA
BRANCH  24  25
HETATM   25  C   UNL     1      22.535  49.871  49.203  1.00  0.00     0.130 C 
HETATM   26  C   UNL     1      22.130  50.390  47.797  1.00  0.00     0.032 C 
HETATM   27  C   UNL     1      21.104  51.302  48.491  1.00  0.00     0.005 C 
HETATM   28  C   UNL     1      21.129  50.323  49.676  1.00  0.00     0.032 C 
ENDBRANCH  24  25
ENDBRANCH  20  24
ENDBRANCH   2  18
TORSDOF 7
ENDMDL
MODEL 6
REMARK VINA RESULT:      -7.6      3.009      5.140
REMARK  7 active torsions:
REMARK  status: ('A' for Active; 'I' for Inactive)
REMARK    1  A    between atoms: C_2  and  C_3 
REMARK    2  A    between atoms: C_3  and  N_4 
REMARK       I    between atoms: N_4  and  C_5 
REMARK    3  A    between atoms: C_5  and  C_6 
REMARK    4  A    between atoms: C_7  and  N_8 
REMARK       I    between atoms: N_8  and  C_9 
REMARK    5  A    between atoms: C_9  and  C_10 
REMARK    6  A    between atoms: C_12  and  O_13 
REMARK    7  A    between atoms: O_13  and  C_14 
ROOT
HETATM    1  N   UNL     1      25.263  47.138  51.405  1.00  0.00    -0.322 N 
HETATM    2  C   UNL     1      25.945  47.279  50.208  1.00  0.00     0.256 C 
HETATM    3  O   UNL     1      26.854  46.556  49.813  1.00  0.00    -0.267 OA
HETATM    4  H   UNL     1      24.307  47.468  51.416  1.00  0.00     0.169 HD
ENDROOT
BRANCH   1   5
HETATM    5  C   UNL     1      25.634  46.225  52.419  1.00  0.00     0.050 A 
HETATM    6  C   UNL     1      25.263  44.870  52.459  1.00  0.00     0.058 A 
HETATM    7  C   UNL     1      25.616  44.076  53.564  1.00  0.00     0.019 A 
HETATM    8  C   UNL     1      26.352  44.618  54.616  1.00  0.00     0.001 A 
HETATM    9  C   UNL     1      26.767  45.945  54.557  1.00  0.00     0.002 A 
HETATM   10  C   UNL     1      26.422  46.740  53.460  1.00  0.00     0.030 A 
BRANCH   6  11
HETATM   11  C   UNL     1      24.683  44.163  51.288  1.00  0.00     0.254 C 
HETATM   12  N   UNL     1      25.609  43.680  50.386  1.00  0.00    -0.353 N 
HETATM   13  H   UNL     1      26.546  43.536  50.737  1.00  0.00     0.163 HD
HETATM   14  O   UNL     1      23.468  44.074  51.157  1.00  0.00    -0.268 OA
BRANCH  12  15
HETATM   15  C   UNL     1      25.171  42.882  49.272  1.00  0.00     0.149 C 
BRANCH  15  16
HETATM   16  C   UNL     1      25.662  41.485  49.483  1.00  0.00    -0.018 C 
HETATM   17  C   UNL     1      26.133  41.009  50.643  1.00  0.00     0.008 C 
ENDBRANCH  15  16
ENDBRANCH  12  15
ENDBRANCH   6  11
ENDBRANCH   1   5
BRANCH   2  18
HETATM   18  C   UNL     1      25.407  48.323  49.300  1.00  0.00     0.037 A 
HETATM   19  C   UNL     1      24.031  48.371  49.089  1.00  0.00     0.075 A 
HETATM   20  C   UNL     1      23.547  49.345  48.240  1.00  0.00     0.165 A 
HETATM   21  N   UNL     1      24.321  50.253  47.610  1.00  0.00    -0.237 NA
HETATM   22  C   UNL     1      25.653  50.169  47.822  1.00  0.00     0.120 A 
HETATM   23  C   UNL     1      26.243  49.231  48.650  1.00  0.00     0.036 A 
BRANCH  20  24
HETATM   24  O   UNL     1      22.179  49.375  48.053  1.00  0.00    -0.329 OA
BRANCH  24  25
HETATM   25  C   UNL     1      21.560  50.678  48.100  1.00  0.00     0.130 C 
HETATM   26  C   UNL     1      20.091  50.771  47.606  1.00  0.00     0.032 C 
HETATM   27  C   UNL     1      19.812  51.715  48.788  1.00  0.00     0.005 C 
HETATM   28  C   UNL     1      21.021  51.081  49.497  1.00  0.00     0.032 C 
ENDBRANCH  24  25
ENDBRANCH  20  24
ENDBRANCH   2  18
TORSDOF 7
ENDMDL
MODEL 7
REMARK VINA RESULT:      -7.6      2.593      5.896
REMARK  7 active torsions:
REMARK  status: ('A' for Active; 'I' for Inactive)
REMARK    1  A    between atoms: C_2  and  C_3 
REMARK    2  A    between atoms: C_3  and  N_4 
REMARK       I    between atoms: N_4  and  C_5 
REMARK    3  A    between atoms: C_5  and  C_6 
REMARK    4  A    between atoms: C_7  and  N_8 
REMARK       I    between atoms: N_8  and  C_9 
REMARK    5  A    between atoms: C_9  and  C_10 
REMARK    6  A    between atoms: C_12  and  O_13 
REMARK    7  A    between atoms: O_13  and  C_14 
ROOT
HETATM    1  N   UNL     1      29.302  43.644  53.555  1.00  0.00    -0.322 N 
HETATM    2  C   UNL     1      28.143  42.920  53.335  1.00  0.00     0.256 C 
HETATM    3  O   UNL     1      27.326  42.601  54.191  1.00  0.00    -0.267 OA
HETATM    4  H   UNL     1      29.632  44.206  52.780  1.00  0.00     0.169 HD
ENDROOT
BRANCH   1   5
HETATM    5  C   UNL     1      29.787  43.982  54.839  1.00  0.00     0.050 A 
HETATM    6  C   UNL     1      29.541  45.199  55.499  1.00  0.00     0.058 A 
HETATM    7  C   UNL     1      30.148  45.462  56.740  1.00  0.00     0.019 A 
HETATM    8  C   UNL     1      30.981  44.515  57.333  1.00  0.00     0.001 A 
HETATM    9  C   UNL     1      31.185  43.287  56.708  1.00  0.00     0.002 A 
HETATM   10  C   UNL     1      30.583  43.018  55.476  1.00  0.00     0.030 A 
BRANCH   6  11
HETATM   11  C   UNL     1      28.498  46.157  55.052  1.00  0.00     0.254 C 
HETATM   12  N   UNL     1      27.225  45.630  54.964  1.00  0.00    -0.353 N 
HETATM   13  H   UNL     1      27.045  44.800  55.511  1.00  0.00     0.163 HD
HETATM   14  O   UNL     1      28.799  47.308  54.757  1.00  0.00    -0.268 OA
BRANCH  12  15
HETATM   15  C   UNL     1      26.116  46.491  54.649  1.00  0.00     0.149 C 
BRANCH  15  16
HETATM   16  C   UNL     1      25.728  46.242  53.227  1.00  0.00    -0.018 C 
HETATM   17  C   UNL     1      26.032  47.047  52.200  1.00  0.00     0.008 C 
ENDBRANCH  15  16
ENDBRANCH  12  15
ENDBRANCH   6  11
ENDBRANCH   1   5
BRANCH   2  18
HETATM   18  C   UNL     1      27.838  42.645  51.908  1.00  0.00     0.037 A 
HETATM   19  C   UNL     1      28.195  41.405  51.384  1.00  0.00     0.075 A 
HETATM   20  C   UNL     1      27.908  41.165  50.056  1.00  0.00     0.165 A 
HETATM   21  N   UNL     1      27.301  42.052  49.240  1.00  0.00    -0.237 NA
HETATM   22  C   UNL     1      26.983  43.251  49.774  1.00  0.00     0.120 A 
HETATM   23  C   UNL     1      27.228  43.597  51.091  1.00  0.00     0.036 A 
BRANCH  20  24
HETATM   24  O   UNL     1      28.266  39.926  49.562  1.00  0.00    -0.329 OA
BRANCH  24  25
HETATM   25  C   UNL     1      27.256  38.898  49.632  1.00  0.00     0.130 C 
HETATM   26  C   UNL     1      26.541  38.530  48.304  1.00  0.00     0.032 C 
HETATM   27  C   UNL     1      26.629  37.055  48.730  1.00  0.00     0.005 C 
HETATM   28  C   UNL     1      27.813  37.450  49.627  1.00  0.00     0.032 C 
ENDBRANCH  24  25
ENDBRANCH  20  24
ENDBRANCH   2  18
TORSDOF 7
ENDMDL
MODEL 8
REMARK VINA RESULT:      -7.6      2.808      6.285
REMARK  7 active torsions:
REMARK  status: ('A' for Active; 'I' for Inactive)
REMARK    1  A    between atoms: C_2  and  C_3 
REMARK    2  A    between atoms: C_3  and  N_4 
REMARK       I    between atoms: N_4  and  C_5 
REMARK    3  A    between atoms: C_5  and  C_6 
REMARK    4  A    between atoms: C_7  and  N_8 
REMARK       I    between atoms: N_8  and  C_9 
REMARK    5  A    between atoms: C_9  and  C_10 
REMARK    6  A    between atoms: C_12  and  O_13 
REMARK    7  A    between atoms: O_13  and  C_14 
ROOT
HETATM    1  N   UNL     1      26.610  44.063  51.479  1.00  0.00    -0.322 N 
HETATM    2  C   UNL     1      25.522  43.235  51.262  1.00  0.00     0.256 C 
HETATM    3  O   UNL     1      24.422  43.345  51.795  1.00  0.00    -0.267 OA
HETATM    4  H   UNL     1      27.259  44.159  50.708  1.00  0.00     0.169 HD
ENDROOT
BRANCH   1   5
HETATM    5  C   UNL     1      26.650  45.066  52.475  1.00  0.00     0.050 A 
HETATM    6  C   UNL     1      27.323  44.957  53.704  1.00  0.00     0.058 A 
HETATM    7  C   UNL     1      27.220  45.985  54.657  1.00  0.00     0.019 A 
HETATM    8  C   UNL     1      26.467  47.126  54.385  1.00  0.00     0.001 A 
HETATM    9  C   UNL     1      25.842  47.263  53.149  1.00  0.00     0.002 A 
HETATM   10  C   UNL     1      25.942  46.246  52.195  1.00  0.00     0.030 A 
BRANCH   6  11
HETATM   11  C   UNL     1      28.321  43.892  53.979  1.00  0.00     0.254 C 
HETATM   12  N   UNL     1      29.364  44.271  54.800  1.00  0.00    -0.353 N 
HETATM   13  H   UNL     1      29.197  45.069  55.398  1.00  0.00     0.163 HD
HETATM   14  O   UNL     1      28.207  42.786  53.462  1.00  0.00    -0.268 OA
BRANCH  12  15
HETATM   15  C   UNL     1      30.329  43.294  55.226  1.00  0.00     0.149 C 
BRANCH  15  16
HETATM   16  C   UNL     1      31.207  43.931  56.256  1.00  0.00    -0.018 C 
HETATM   17  C   UNL     1      31.853  43.268  57.224  1.00  0.00     0.008 C 
ENDBRANCH  15  16
ENDBRANCH  12  15
ENDBRANCH   6  11
ENDBRANCH   1   5
BRANCH   2  18
HETATM   18  C   UNL     1      25.707  42.225  50.190  1.00  0.00     0.037 A 
HETATM   19  C   UNL     1      26.974  41.677  50.010  1.00  0.00     0.075 A 
HETATM   20  C   UNL     1      27.131  40.742  49.007  1.00  0.00     0.165 A 
HETATM   21  N   UNL     1      26.135  40.326  48.199  1.00  0.00    -0.237 NA
HETATM   22  C   UNL     1      24.922  40.889  48.387  1.00  0.00     0.120 A 
HETATM   23  C   UNL     1      24.655  41.836  49.359  1.00  0.00     0.036 A 
BRANCH  20  24
HETATM   24  O   UNL     1      28.396  40.208  48.854  1.00  0.00    -0.329 OA
BRANCH  24  25
HETATM   25  C   UNL     1      28.626  38.930  49.482  1.00  0.00     0.130 C 
HETATM   26  C   UNL     1      29.930  38.184  49.088  1.00  0.00     0.032 C 
HETATM   27  C   UNL     1      30.091  37.799  50.569  1.00  0.00     0.005 C 
HETATM   28  C   UNL     1      29.215  39.015  50.914  1.00  0.00     0.032 C 
ENDBRANCH  24  25
ENDBRANCH  20  24
ENDBRANCH   2  18
TORSDOF 7
ENDMDL
MODEL 9
REMARK VINA RESULT:      -7.5      2.375      4.756
REMARK  7 active torsions:
REMARK  status: ('A' for Active; 'I' for Inactive)
REMARK    1  A    between atoms: C_2  and  C_3 
REMARK    2  A    between atoms: C_3  and  N_4 
REMARK       I    between atoms: N_4  and  C_5 
REMARK    3  A    between atoms: C_5  and  C_6 
REMARK    4  A    between atoms: C_7  and  N_8 
REMARK       I    between atoms: N_8  and  C_9 
REMARK    5  A    between atoms: C_9  and  C_10 
REMARK    6  A    between atoms: C_12  and  O_13 
REMARK    7  A    between atoms: O_13  and  C_14 
ROOT
HETATM    1  N   UNL     1      28.835  43.087  52.815  1.00  0.00    -0.322 N 
HETATM    2  C   UNL     1      28.208  41.854  52.742  1.00  0.00     0.256 C 
HETATM    3  O   UNL     1      27.841  41.180  53.699  1.00  0.00    -0.267 OA
HETATM    4  H   UNL     1      28.682  43.712  52.034  1.00  0.00     0.169 HD
ENDROOT
BRANCH   1   5
HETATM    5  C   UNL     1      29.283  43.671  54.021  1.00  0.00     0.050 A 
HETATM    6  C   UNL     1      28.668  44.756  54.670  1.00  0.00     0.058 A 
HETATM    7  C   UNL     1      29.254  45.313  55.820  1.00  0.00     0.019 A 
HETATM    8  C   UNL     1      30.434  44.784  56.338  1.00  0.00     0.001 A 
HETATM    9  C   UNL     1      31.019  43.676  55.730  1.00  0.00     0.002 A 
HETATM   10  C   UNL     1      30.441  43.115  54.588  1.00  0.00     0.030 A 
BRANCH   6  11
HETATM   11  C   UNL     1      27.303  45.229  54.322  1.00  0.00     0.254 C 
HETATM   12  N   UNL     1      27.181  46.597  54.185  1.00  0.00    -0.353 N 
HETATM   13  H   UNL     1      28.032  47.106  53.989  1.00  0.00     0.163 HD
HETATM   14  O   UNL     1      26.379  44.431  54.214  1.00  0.00    -0.268 OA
BRANCH  12  15
HETATM   15  C   UNL     1      25.934  47.161  53.741  1.00  0.00     0.149 C 
BRANCH  15  16
HETATM   16  C   UNL     1      25.963  47.227  52.247  1.00  0.00    -0.018 C 
HETATM   17  C   UNL     1      25.097  46.604  51.438  1.00  0.00     0.008 C 
ENDBRANCH  15  16
ENDBRANCH  12  15
ENDBRANCH   6  11
ENDBRANCH   1   5
BRANCH   2  18
HETATM   18  C   UNL     1      27.852  41.413  51.370  1.00  0.00     0.037 A 
HETATM   19  C   UNL     1      26.927  42.166  50.652  1.00  0.00     0.075 A 
HETATM   20  C   UNL     1      26.604  41.741  49.380  1.00  0.00     0.165 A 
HETATM   21  N   UNL     1      27.133  40.648  48.790  1.00  0.00    -0.237 NA
HETATM   22  C   UNL     1      28.014  39.929  49.519  1.00  0.00     0.120 A 
HETATM   23  C   UNL     1      28.405  40.264  50.803  1.00  0.00     0.036 A 
BRANCH  20  24
HETATM   24  O   UNL     1      25.690  42.508  48.686  1.00  0.00    -0.329 OA
BRANCH  24  25
HETATM   25  C   UNL     1      24.808  43.323  49.486  1.00  0.00     0.130 C 
HETATM   26  C   UNL     1      24.049  44.461  48.750  1.00  0.00     0.032 C 
HETATM   27  C   UNL     1      22.806  44.092  49.578  1.00  0.00     0.005 C 
HETATM   28  C   UNL     1      23.416  42.692  49.753  1.00  0.00     0.032 C 
ENDBRANCH  24  25
ENDBRANCH  20  24
ENDBRANCH   2  18
TORSDOF 7
ENDMDL
MODEL 10
REMARK VINA RESULT:      -7.4      1.975      7.444
REMARK  7 active torsions:
REMARK  status: ('A' for Active; 'I' for Inactive)
REMARK    1  A    between atoms: C_2  and  C_3 
REMARK    2  A    between atoms: C_3  and  N_4 
REMARK       I    between atoms: N_4  and  C_5 
REMARK    3  A    between atoms: C_5  and  C_6 
REMARK    4  A    between atoms: C_7  and  N_8 
REMARK       I    between atoms: N_8  and  C_9 
REMARK    5  A    between atoms: C_9  and  C_10 
REMARK    6  A    between atoms: C_12  and  O_13 
REMARK    7  A    between atoms: O_13  and  C_14 
ROOT
HETATM    1  N   UNL     1      25.646  44.036  50.810  1.00  0.00    -0.322 N 
HETATM    2  C   UNL     1      27.019  44.010  50.631  1.00  0.00     0.256 C 
HETATM    3  O   UNL     1      27.657  44.744  49.885  1.00  0.00    -0.267 OA
HETATM    4  H   UNL     1      25.307  43.736  51.715  1.00  0.00     0.169 HD
ENDROOT
BRANCH   1   5
HETATM    5  C   UNL     1      24.766  44.819  50.028  1.00  0.00     0.050 A 
HETATM    6  C   UNL     1      24.466  46.172  50.262  1.00  0.00     0.058 A 
HETATM    7  C   UNL     1      23.506  46.828  49.471  1.00  0.00     0.019 A 
HETATM    8  C   UNL     1      22.860  46.149  48.439  1.00  0.00     0.001 A 
HETATM    9  C   UNL     1      23.192  44.824  48.169  1.00  0.00     0.002 A 
HETATM   10  C   UNL     1      24.147  44.167  48.950  1.00  0.00     0.030 A 
BRANCH   6  11
HETATM   11  C   UNL     1      25.264  47.023  51.181  1.00  0.00     0.254 C 
HETATM   12  N   UNL     1      25.256  46.618  52.500  1.00  0.00    -0.353 N 
HETATM   13  H   UNL     1      25.026  45.649  52.671  1.00  0.00     0.163 HD
HETATM   14  O   UNL     1      25.837  48.022  50.761  1.00  0.00    -0.268 OA
BRANCH  12  15
HETATM   15  C   UNL     1      26.082  47.299  53.461  1.00  0.00     0.149 C 
BRANCH  15  16
HETATM   16  C   UNL     1      26.977  46.285  54.102  1.00  0.00    -0.018 C 
HETATM   17  C   UNL     1      26.579  45.084  54.540  1.00  0.00     0.008 C 
ENDBRANCH  15  16
ENDBRANCH  12  15
ENDBRANCH   6  11
ENDBRANCH   1   5
BRANCH   2  18
HETATM   18  C   UNL     1      27.750  43.090  51.538  1.00  0.00     0.037 A 
HETATM   19  C   UNL     1      28.783  43.609  52.315  1.00  0.00     0.075 A 
HETATM   20  C   UNL     1      29.455  42.741  53.150  1.00  0.00     0.165 A 
HETATM   21  N   UNL     1      29.171  41.427  53.263  1.00  0.00    -0.237 NA
HETATM   22  C   UNL     1      28.177  40.950  52.483  1.00  0.00     0.120 A 
HETATM   23  C   UNL     1      27.441  41.731  51.610  1.00  0.00     0.036 A 
BRANCH  20  24
HETATM   24  O   UNL     1      30.470  43.283  53.915  1.00  0.00    -0.329 OA
BRANCH  24  25
HETATM   25  C   UNL     1      30.178  43.472  55.316  1.00  0.00     0.130 C 
HETATM   26  C   UNL     1      31.336  43.196  56.313  1.00  0.00     0.032 C 
HETATM   27  C   UNL     1      30.886  44.444  57.092  1.00  0.00     0.005 C 
HETATM   28  C   UNL     1      30.240  44.947  55.791  1.00  0.00     0.032 C 
ENDBRANCH  24  25
ENDBRANCH  20  24
ENDBRANCH   2  18
TORSDOF 7
ENDMDL
