MODEL 1
REMARK VINA RESULT:     -10.2      0.000      0.000
REMARK  7 active torsions:
REMARK  status: ('A' for Active; 'I' for Inactive)
REMARK    1  A    between atoms: C_2  and  C_3 
REMARK    2  A    between atoms: C_3  and  C_4 
REMARK       I    between atoms: C_4  and  N_5 
REMARK    3  A    between atoms: N_8  and  C_9 
REMARK    4  A    between atoms: C_12  and  N_13 
REMARK    5  A    between atoms: N_13  and  C_14 
REMARK    6  A    between atoms: C_14  and  N_15 
REMARK       I    between atoms: N_15  and  C_16 
REMARK    7  A    between atoms: C_16  and  C_17 
ROOT
HETATM    1  N   UNL     1      27.027  44.996  49.875  1.00  0.00    -0.333 N 
HETATM    2  H   UNL     1      27.707  45.253  49.158  1.00  0.00     0.168 HD
ENDROOT
BRANCH   1   3
HETATM    3  C   UNL     1      25.807  45.709  49.838  1.00  0.00     0.034 C 
HETATM    4  C   UNL     1      24.627  45.179  49.329  1.00  0.00     0.032 C 
HETATM    5  C   UNL     1      23.509  45.993  49.125  1.00  0.00     0.031 C 
HETATM    6  C   UNL     1      23.527  47.358  49.434  1.00  0.00     0.030 C 
HETATM    7  C   UNL     1      24.666  47.837  50.097  1.00  0.00     0.031 C 
HETATM    8  C   UNL     1      25.790  47.021  50.311  1.00  0.00     0.032 C 
BRANCH   6   9
HETATM    9  N   UNL     1      22.535  48.235  49.003  1.00  0.00    -0.378 N 
HETATM   10  C   UNL     1      21.921  48.010  47.681  1.00  0.00     0.143 C 
HETATM   11  C   UNL     1      20.553  48.727  47.595  1.00  0.00     0.145 C 
HETATM   12  N   UNL     1      20.568  50.120  48.070  1.00  0.00    -0.349 N 
HETATM   13  C   UNL     1      19.516  50.946  47.670  1.00  0.00     0.219 C 
HETATM   14  C   UNL     1      21.307  50.346  49.318  1.00  0.00     0.145 C 
HETATM   15  O   UNL     1      18.724  50.616  46.789  1.00  0.00    -0.273 OA
HETATM   16  C   UNL     1      22.678  49.662  49.335  1.00  0.00     0.143 C 
BRANCH  13  17
HETATM   17  C   UNL     1      19.413  52.295  48.375  1.00  0.00     0.103 C 
BRANCH  17  18
HETATM   18  C   UNL     1      17.993  52.634  48.824  1.00  0.00     0.005 C 
HETATM   19  C   UNL     1      17.520  51.678  49.910  1.00  0.00     0.005 C 
ENDBRANCH  17  18
ENDBRANCH  13  17
ENDBRANCH   6   9
ENDBRANCH   1   3
BRANCH   1  20
HETATM   20  C   UNL     1      27.309  43.811  50.520  1.00  0.00     0.179 C 
HETATM   21  S   UNL     1      27.106  42.230  49.997  1.00  0.00    -0.040 SA
BRANCH  20  22
HETATM   22  N   UNL     1      27.898  43.924  51.764  1.00  0.00    -0.299 N 
HETATM   23  C   UNL     1      27.429  44.466  52.954  1.00  0.00     0.266 C 
HETATM   24  O   UNL     1      26.279  44.896  53.052  1.00  0.00    -0.267 OA
HETATM   25  H   UNL     1      28.857  43.605  51.752  1.00  0.00     0.171 HD
BRANCH  23  26
HETATM   26  C   UNL     1      28.399  44.457  54.044  1.00  0.00     0.096 A 
HETATM   27  S   UNL     1      28.297  45.684  55.234  1.00  0.00    -0.082 SA
HETATM   28  C   UNL     1      29.603  45.041  56.148  1.00  0.00     0.017 A 
HETATM   29  C   UNL     1      30.148  43.911  55.535  1.00  0.00     0.004 A 
HETATM   30  C   UNL     1      30.114  45.541  57.363  1.00  0.00     0.020 A 
HETATM   31  C   UNL     1      29.448  43.597  54.317  1.00  0.00     0.068 A 
HETATM   32  C   UNL     1      31.248  43.276  56.173  1.00  0.00     0.014 A 
HETATM   33 CL   UNL     1      29.933  42.263  53.338  1.00  0.00    -0.082 Cl
HETATM   34  C   UNL     1      31.756  43.768  57.378  1.00  0.00     0.001 A 
HETATM   35  C   UNL     1      31.191  44.889  57.967  1.00  0.00     0.001 A 
ENDBRANCH  23  26
ENDBRANCH  20  22
ENDBRANCH   1  20
TORSDOF 7
ENDMDL
MODEL 2
REMARK VINA RESULT:      -9.9      1.697      2.171
REMARK  7 active torsions:
REMARK  status: ('A' for Active; 'I' for Inactive)
REMARK    1  A    between atoms: C_2  and  C_3 
REMARK    2  A    between atoms: C_3  and  C_4 
REMARK       I    between atoms: C_4  and  N_5 
REMARK    3  A    between atoms: N_8  and  C_9 
REMARK    4  A    between atoms: C_12  and  N_13 
REMARK    5  A    between atoms: N_13  and  C_14 
REMARK    6  A    between atoms: C_14  and  N_15 
REMARK       I    between atoms: N_15  and  C_16 
REMARK    7  A    between atoms: C_16  and  C_17 
ROOT
HETATM    1  N   UNL     1      24.704  42.589  51.173  1.00  0.00    -0.333 N 
HETATM    2  H   UNL     1      24.087  42.315  51.939  1.00  0.00     0.168 HD
ENDROOT
BRANCH   1   3
HETATM    3  C   UNL     1      24.264  43.688  50.401  1.00  0.00     0.034 C 
HETATM    4  C   UNL     1      24.847  44.948  50.462  1.00  0.00     0.032 C 
HETATM    5  C   UNL     1      24.243  46.044  49.840  1.00  0.00     0.031 C 
HETATM    6  C   UNL     1      23.047  45.917  49.126  1.00  0.00     0.030 C 
HETATM    7  C   UNL     1      22.562  44.615  48.936  1.00  0.00     0.031 C 
HETATM    8  C   UNL     1      23.169  43.509  49.555  1.00  0.00     0.032 C 
BRANCH   6   9
HETATM    9  N   UNL     1      22.294  47.019  48.725  1.00  0.00    -0.378 N 
HETATM   10  C   UNL     1      21.675  47.001  47.386  1.00  0.00     0.143 C 
HETATM   11  C   UNL     1      20.513  48.019  47.318  1.00  0.00     0.145 C 
HETATM   12  N   UNL     1      20.839  49.349  47.860  1.00  0.00    -0.349 N 
HETATM   13  C   UNL     1      20.016  50.413  47.487  1.00  0.00     0.219 C 
HETATM   14  C   UNL     1      21.582  49.342  49.126  1.00  0.00     0.145 C 
HETATM   15  O   UNL     1      19.190  50.315  46.582  1.00  0.00    -0.273 OA
HETATM   16  C   UNL     1      22.757  48.358  49.127  1.00  0.00     0.143 C 
BRANCH  13  17
HETATM   17  C   UNL     1      20.212  51.717  48.255  1.00  0.00     0.103 C 
BRANCH  17  18
HETATM   18  C   UNL     1      18.911  52.482  48.486  1.00  0.00     0.005 C 
HETATM   19  C   UNL     1      18.292  52.115  49.826  1.00  0.00     0.005 C 
ENDBRANCH  17  18
ENDBRANCH  13  17
ENDBRANCH   6   9
ENDBRANCH   1   3
BRANCH   1  20
HETATM   20  C   UNL     1      25.969  42.044  51.246  1.00  0.00     0.179 C 
HETATM   21  S   UNL     1      26.680  40.855  50.301  1.00  0.00    -0.040 SA
BRANCH  20  22
HETATM   22  N   UNL     1      26.807  42.584  52.201  1.00  0.00    -0.299 N 
HETATM   23  C   UNL     1      27.803  43.549  52.107  1.00  0.00     0.266 C 
HETATM   24  O   UNL     1      28.025  44.136  51.048  1.00  0.00    -0.267 OA
HETATM   25  H   UNL     1      26.691  42.132  53.097  1.00  0.00     0.171 HD
BRANCH  23  26
HETATM   26  C   UNL     1      28.521  43.797  53.352  1.00  0.00     0.096 A 
HETATM   27  S   UNL     1      29.733  42.686  53.829  1.00  0.00    -0.082 SA
HETATM   28  C   UNL     1      30.149  43.591  55.230  1.00  0.00     0.017 A 
HETATM   29  C   UNL     1      29.344  44.724  55.363  1.00  0.00     0.004 A 
HETATM   30  C   UNL     1      31.155  43.285  56.167  1.00  0.00     0.020 A 
HETATM   31  C   UNL     1      28.404  44.819  54.277  1.00  0.00     0.068 A 
HETATM   32  C   UNL     1      29.566  45.566  56.486  1.00  0.00     0.014 A 
HETATM   33 CL   UNL     1      27.264  46.111  54.208  1.00  0.00    -0.082 Cl
HETATM   34  C   UNL     1      30.563  45.266  57.418  1.00  0.00     0.001 A 
HETATM   35  C   UNL     1      31.351  44.137  57.257  1.00  0.00     0.001 A 
ENDBRANCH  23  26
ENDBRANCH  20  22
ENDBRANCH   1  20
TORSDOF 7
ENDMDL
MODEL 3
REMARK VINA RESULT:      -9.9      1.200      1.493
REMARK  7 active torsions:
REMARK  status: ('A' for Active; 'I' for Inactive)
REMARK    1  A    between atoms: C_2  and  C_3 
REMARK    2  A    between atoms: C_3  and  C_4 
REMARK       I    between atoms: C_4  and  N_5 
REMARK    3  A    between atoms: N_8  and  C_9 
REMARK    4  A    between atoms: C_12  and  N_13 
REMARK    5  A    between atoms: N_13  and  C_14 
REMARK    6  A    between atoms: C_14  and  N_15 
REMARK       I    between atoms: N_15  and  C_16 
REMARK    7  A    between atoms: C_16  and  C_17 
ROOT
HETATM    1  N   UNL     1      26.979  45.271  49.646  1.00  0.00    -0.333 N 
HETATM    2  H   UNL     1      27.637  45.521  48.907  1.00  0.00     0.168 HD
ENDROOT
BRANCH   1   3
HETATM    3  C   UNL     1      25.803  46.054  49.703  1.00  0.00     0.034 C 
HETATM    4  C   UNL     1      24.523  45.516  49.639  1.00  0.00     0.032 C 
HETATM    5  C   UNL     1      23.408  46.346  49.488  1.00  0.00     0.031 C 
HETATM    6  C   UNL     1      23.532  47.738  49.411  1.00  0.00     0.030 C 
HETATM    7  C   UNL     1      24.809  48.269  49.643  1.00  0.00     0.031 C 
HETATM    8  C   UNL     1      25.932  47.440  49.801  1.00  0.00     0.032 C 
BRANCH   6   9
HETATM    9  N   UNL     1      22.485  48.560  49.003  1.00  0.00    -0.378 N 
HETATM   10  C   UNL     1      21.879  48.325  47.678  1.00  0.00     0.143 C 
HETATM   11  C   UNL     1      20.469  48.957  47.613  1.00  0.00     0.145 C 
HETATM   12  N   UNL     1      20.399  50.338  48.119  1.00  0.00    -0.349 N 
HETATM   13  C   UNL     1      19.295  51.105  47.740  1.00  0.00     0.219 C 
HETATM   14  C   UNL     1      21.129  50.583  49.368  1.00  0.00     0.145 C 
HETATM   15  O   UNL     1      18.521  50.745  46.855  1.00  0.00    -0.273 OA
HETATM   16  C   UNL     1      22.540  49.986  49.365  1.00  0.00     0.143 C 
BRANCH  13  17
HETATM   17  C   UNL     1      19.111  52.429  48.475  1.00  0.00     0.103 C 
BRANCH  17  18
HETATM   18  C   UNL     1      18.172  52.328  49.675  1.00  0.00     0.005 C 
HETATM   19  C   UNL     1      16.727  52.553  49.258  1.00  0.00     0.005 C 
ENDBRANCH  17  18
ENDBRANCH  13  17
ENDBRANCH   6   9
ENDBRANCH   1   3
BRANCH   1  20
HETATM   20  C   UNL     1      27.221  44.043  50.224  1.00  0.00     0.179 C 
HETATM   21  S   UNL     1      27.015  42.502  49.594  1.00  0.00    -0.040 SA
BRANCH  20  22
HETATM   22  N   UNL     1      27.764  44.067  51.493  1.00  0.00    -0.299 N 
HETATM   23  C   UNL     1      27.166  44.094  52.746  1.00  0.00     0.266 C 
HETATM   24  O   UNL     1      25.943  44.027  52.872  1.00  0.00    -0.267 OA
HETATM   25  H   UNL     1      28.772  44.143  51.465  1.00  0.00     0.171 HD
BRANCH  23  26
HETATM   26  C   UNL     1      28.103  44.188  53.860  1.00  0.00     0.096 A 
HETATM   27  S   UNL     1      29.252  42.936  54.065  1.00  0.00    -0.082 SA
HETATM   28  C   UNL     1      29.990  43.700  55.416  1.00  0.00     0.017 A 
HETATM   29  C   UNL     1      29.345  44.894  55.743  1.00  0.00     0.004 A 
HETATM   30  C   UNL     1      31.100  43.236  56.150  1.00  0.00     0.020 A 
HETATM   31  C   UNL     1      28.252  45.152  54.841  1.00  0.00     0.068 A 
HETATM   32  C   UNL     1      29.838  45.633  56.852  1.00  0.00     0.014 A 
HETATM   33 CL   UNL     1      27.260  46.550  55.034  1.00  0.00    -0.082 Cl
HETATM   34  C   UNL     1      30.939  45.176  57.581  1.00  0.00     0.001 A 
HETATM   35  C   UNL     1      31.564  43.990  57.230  1.00  0.00     0.001 A 
ENDBRANCH  23  26
ENDBRANCH  20  22
ENDBRANCH   1  20
TORSDOF 7
ENDMDL
MODEL 4
REMARK VINA RESULT:      -9.6      1.569      2.119
REMARK  7 active torsions:
REMARK  status: ('A' for Active; 'I' for Inactive)
REMARK    1  A    between atoms: C_2  and  C_3 
REMARK    2  A    between atoms: C_3  and  C_4 
REMARK       I    between atoms: C_4  and  N_5 
REMARK    3  A    between atoms: N_8  and  C_9 
REMARK    4  A    between atoms: C_12  and  N_13 
REMARK    5  A    between atoms: N_13  and  C_14 
REMARK    6  A    between atoms: C_14  and  N_15 
REMARK       I    between atoms: N_15  and  C_16 
REMARK    7  A    between atoms: C_16  and  C_17 
ROOT
HETATM    1  N   UNL     1      25.297  41.964  51.018  1.00  0.00    -0.333 N 
HETATM    2  H   UNL     1      24.794  41.514  51.783  1.00  0.00     0.168 HD
ENDROOT
BRANCH   1   3
HETATM    3  C   UNL     1      24.537  42.865  50.238  1.00  0.00     0.034 C 
HETATM    4  C   UNL     1      25.104  43.812  49.394  1.00  0.00     0.032 C 
HETATM    5  C   UNL     1      24.317  44.810  48.811  1.00  0.00     0.031 C 
HETATM    6  C   UNL     1      22.938  44.887  49.040  1.00  0.00     0.030 C 
HETATM    7  C   UNL     1      22.360  43.830  49.758  1.00  0.00     0.031 C 
HETATM    8  C   UNL     1      23.146  42.821  50.340  1.00  0.00     0.032 C 
BRANCH   6   9
HETATM    9  N   UNL     1      22.184  46.006  48.693  1.00  0.00    -0.378 N 
HETATM   10  C   UNL     1      21.025  45.824  47.798  1.00  0.00     0.143 C 
HETATM   11  C   UNL     1      20.051  47.018  47.933  1.00  0.00     0.145 C 
HETATM   12  N   UNL     1      20.701  48.339  47.888  1.00  0.00    -0.349 N 
HETATM   13  C   UNL     1      19.893  49.442  47.604  1.00  0.00     0.219 C 
HETATM   14  C   UNL     1      21.934  48.455  48.675  1.00  0.00     0.145 C 
HETATM   15  O   UNL     1      18.741  49.321  47.193  1.00  0.00    -0.273 OA
HETATM   16  C   UNL     1      22.892  47.277  48.467  1.00  0.00     0.143 C 
BRANCH  13  17
HETATM   17  C   UNL     1      20.528  50.813  47.816  1.00  0.00     0.103 C 
BRANCH  17  18
HETATM   18  C   UNL     1      19.877  51.611  48.943  1.00  0.00     0.005 C 
HETATM   19  C   UNL     1      18.849  52.591  48.395  1.00  0.00     0.005 C 
ENDBRANCH  17  18
ENDBRANCH  13  17
ENDBRANCH   6   9
ENDBRANCH   1   3
BRANCH   1  20
HETATM   20  C   UNL     1      26.669  41.845  51.098  1.00  0.00     0.179 C 
HETATM   21  S   UNL     1      27.735  41.030  50.092  1.00  0.00    -0.040 SA
BRANCH  20  22
HETATM   22  N   UNL     1      27.278  42.540  52.123  1.00  0.00    -0.299 N 
HETATM   23  C   UNL     1      27.633  43.878  52.240  1.00  0.00     0.266 C 
HETATM   24  O   UNL     1      27.351  44.693  51.361  1.00  0.00    -0.267 OA
HETATM   25  H   UNL     1      27.556  41.925  52.876  1.00  0.00     0.171 HD
BRANCH  23  26
HETATM   26  C   UNL     1      28.334  44.211  53.476  1.00  0.00     0.096 A 
HETATM   27  S   UNL     1      27.692  45.450  54.467  1.00  0.00    -0.082 SA
HETATM   28  C   UNL     1      28.904  45.250  55.670  1.00  0.00     0.017 A 
HETATM   29  C   UNL     1      29.824  44.265  55.308  1.00  0.00     0.004 A 
HETATM   30  C   UNL     1      29.018  45.957  56.883  1.00  0.00     0.020 A 
HETATM   31  C   UNL     1      29.486  43.686  54.034  1.00  0.00     0.068 A 
HETATM   32  C   UNL     1      30.895  43.998  56.203  1.00  0.00     0.014 A 
HETATM   33 CL   UNL     1      30.475  42.462  53.330  1.00  0.00    -0.082 Cl
HETATM   34  C   UNL     1      31.011  44.696  57.407  1.00  0.00     0.001 A 
HETATM   35  C   UNL     1      30.078  45.665  57.744  1.00  0.00     0.001 A 
ENDBRANCH  23  26
ENDBRANCH  20  22
ENDBRANCH   1  20
TORSDOF 7
ENDMDL
MODEL 5
REMARK VINA RESULT:      -9.5      2.276      3.288
REMARK  7 active torsions:
REMARK  status: ('A' for Active; 'I' for Inactive)
REMARK    1  A    between atoms: C_2  and  C_3 
REMARK    2  A    between atoms: C_3  and  C_4 
REMARK       I    between atoms: C_4  and  N_5 
REMARK    3  A    between atoms: N_8  and  C_9 
REMARK    4  A    between atoms: C_12  and  N_13 
REMARK    5  A    between atoms: N_13  and  C_14 
REMARK    6  A    between atoms: C_14  and  N_15 
REMARK       I    between atoms: N_15  and  C_16 
REMARK    7  A    between atoms: C_16  and  C_17 
ROOT
HETATM    1  N   UNL     1      24.704  46.660  49.676  1.00  0.00    -0.333 N 
HETATM    2  H   UNL     1      25.581  46.746  49.160  1.00  0.00     0.168 HD
ENDROOT
BRANCH   1   3
HETATM    3  C   UNL     1      23.676  47.545  49.276  1.00  0.00     0.034 C 
HETATM    4  C   UNL     1      23.670  48.900  49.584  1.00  0.00     0.032 C 
HETATM    5  C   UNL     1      22.535  49.680  49.347  1.00  0.00     0.031 C 
HETATM    6  C   UNL     1      21.375  49.138  48.783  1.00  0.00     0.030 C 
HETATM    7  C   UNL     1      21.456  47.814  48.328  1.00  0.00     0.031 C 
HETATM    8  C   UNL     1      22.597  47.027  48.558  1.00  0.00     0.032 C 
BRANCH   6   9
HETATM    9  N   UNL     1      20.158  49.817  48.779  1.00  0.00    -0.378 N 
HETATM   10  C   UNL     1      19.400  49.897  47.516  1.00  0.00     0.143 C 
HETATM   11  C   UNL     1      17.914  50.215  47.801  1.00  0.00     0.145 C 
HETATM   12  N   UNL     1      17.702  51.319  48.752  1.00  0.00    -0.349 N 
HETATM   13  C   UNL     1      16.444  51.925  48.762  1.00  0.00     0.219 C 
HETATM   14  C   UNL     1      18.568  51.298  49.936  1.00  0.00     0.145 C 
HETATM   15  O   UNL     1      15.610  51.716  47.883  1.00  0.00    -0.273 OA
HETATM   16  C   UNL     1      20.039  51.033  49.599  1.00  0.00     0.143 C 
BRANCH  13  17
HETATM   17  C   UNL     1      16.166  52.881  49.918  1.00  0.00     0.103 C 
BRANCH  17  18
HETATM   18  C   UNL     1      14.695  52.922  50.326  1.00  0.00     0.005 C 
HETATM   19  C   UNL     1      14.430  54.061  51.300  1.00  0.00     0.005 C 
ENDBRANCH  17  18
ENDBRANCH  13  17
ENDBRANCH   6   9
ENDBRANCH   1   3
BRANCH   1  20
HETATM   20  C   UNL     1      24.600  45.508  50.426  1.00  0.00     0.179 C 
HETATM   21  S   UNL     1      23.556  44.207  50.254  1.00  0.00    -0.040 SA
BRANCH  20  22
HETATM   22  N   UNL     1      25.524  45.363  51.441  1.00  0.00    -0.299 N 
HETATM   23  C   UNL     1      25.903  46.222  52.466  1.00  0.00     0.266 C 
HETATM   24  O   UNL     1      25.344  47.306  52.630  1.00  0.00    -0.267 OA
HETATM   25  H   UNL     1      26.038  44.496  51.357  1.00  0.00     0.171 HD
BRANCH  23  26
HETATM   26  C   UNL     1      26.982  45.716  53.307  1.00  0.00     0.096 A 
HETATM   27  S   UNL     1      27.640  44.176  52.951  1.00  0.00    -0.082 SA
HETATM   28  C   UNL     1      28.807  44.275  54.209  1.00  0.00     0.017 A 
HETATM   29  C   UNL     1      28.680  45.463  54.931  1.00  0.00     0.004 A 
HETATM   30  C   UNL     1      29.788  43.317  54.530  1.00  0.00     0.020 A 
HETATM   31  C   UNL     1      27.615  46.275  54.403  1.00  0.00     0.068 A 
HETATM   32  C   UNL     1      29.573  45.678  56.015  1.00  0.00     0.014 A 
HETATM   33 CL   UNL     1      27.218  47.789  55.128  1.00  0.00    -0.082 Cl
HETATM   34  C   UNL     1      30.549  44.731  56.336  1.00  0.00     0.001 A 
HETATM   35  C   UNL     1      30.655  43.563  55.598  1.00  0.00     0.001 A 
ENDBRANCH  23  26
ENDBRANCH  20  22
ENDBRANCH   1  20
TORSDOF 7
ENDMDL
MODEL 6
REMARK VINA RESULT:      -9.3      3.671     11.541
REMARK  7 active torsions:
REMARK  status: ('A' for Active; 'I' for Inactive)
REMARK    1  A    between atoms: C_2  and  C_3 
REMARK    2  A    between atoms: C_3  and  C_4 
REMARK       I    between atoms: C_4  and  N_5 
REMARK    3  A    between atoms: N_8  and  C_9 
REMARK    4  A    between atoms: C_12  and  N_13 
REMARK    5  A    between atoms: N_13  and  C_14 
REMARK    6  A    between atoms: C_14  and  N_15 
REMARK       I    between atoms: N_15  and  C_16 
REMARK    7  A    between atoms: C_16  and  C_17 
ROOT
HETATM    1  N   UNL     1      21.893  44.779  49.042  1.00  0.00    -0.333 N 
HETATM    2  H   UNL     1      21.209  44.058  49.275  1.00  0.00     0.168 HD
ENDROOT
BRANCH   1   3
HETATM    3  C   UNL     1      23.122  44.697  49.735  1.00  0.00     0.034 C 
HETATM    4  C   UNL     1      23.562  43.545  50.377  1.00  0.00     0.032 C 
HETATM    5  C   UNL     1      24.677  43.581  51.219  1.00  0.00     0.031 C 
HETATM    6  C   UNL     1      25.398  44.760  51.436  1.00  0.00     0.030 C 
HETATM    7  C   UNL     1      25.041  45.868  50.654  1.00  0.00     0.031 C 
HETATM    8  C   UNL     1      23.924  45.836  49.802  1.00  0.00     0.032 C 
BRANCH   6   9
HETATM    9  N   UNL     1      26.338  44.885  52.457  1.00  0.00    -0.378 N 
HETATM   10  C   UNL     1      26.471  46.187  53.137  1.00  0.00     0.143 C 
HETATM   11  C   UNL     1      27.153  46.007  54.513  1.00  0.00     0.145 C 
HETATM   12  N   UNL     1      28.362  45.167  54.486  1.00  0.00    -0.349 N 
HETATM   13  C   UNL     1      29.243  45.274  55.564  1.00  0.00     0.219 C 
HETATM   14  C   UNL     1      28.253  43.942  53.684  1.00  0.00     0.145 C 
HETATM   15  O   UNL     1      29.150  46.173  56.397  1.00  0.00    -0.273 OA
HETATM   16  C   UNL     1      27.621  44.179  52.308  1.00  0.00     0.143 C 
BRANCH  13  17
HETATM   17  C   UNL     1      30.343  44.219  55.641  1.00  0.00     0.103 C 
BRANCH  17  18
HETATM   18  C   UNL     1      31.155  44.289  56.933  1.00  0.00     0.005 C 
HETATM   19  C   UNL     1      31.907  42.990  57.176  1.00  0.00     0.005 C 
ENDBRANCH  17  18
ENDBRANCH  13  17
ENDBRANCH   6   9
ENDBRANCH   1   3
BRANCH   1  20
HETATM   20  C   UNL     1      21.601  45.482  47.892  1.00  0.00     0.179 C 
HETATM   21  S   UNL     1      21.904  45.088  46.290  1.00  0.00    -0.040 SA
BRANCH  20  22
HETATM   22  N   UNL     1      20.909  46.664  48.064  1.00  0.00    -0.299 N 
HETATM   23  C   UNL     1      21.318  47.988  47.968  1.00  0.00     0.266 C 
HETATM   24  O   UNL     1      22.462  48.280  47.617  1.00  0.00    -0.267 OA
HETATM   25  H   UNL     1      19.961  46.499  48.374  1.00  0.00     0.171 HD
BRANCH  23  26
HETATM   26  C   UNL     1      20.285  48.964  48.298  1.00  0.00     0.096 A 
HETATM   27  S   UNL     1      18.674  48.635  47.822  1.00  0.00    -0.082 SA
HETATM   28  C   UNL     1      18.063  50.068  48.549  1.00  0.00     0.017 A 
HETATM   29  C   UNL     1      19.085  50.823  49.126  1.00  0.00     0.004 A 
HETATM   30  C   UNL     1      16.720  50.490  48.590  1.00  0.00     0.020 A 
HETATM   31  C   UNL     1      20.361  50.176  48.960  1.00  0.00     0.068 A 
HETATM   32  C   UNL     1      18.731  52.046  49.756  1.00  0.00     0.014 A 
HETATM   33 CL   UNL     1      21.805  50.908  49.552  1.00  0.00    -0.082 Cl
HETATM   34  C   UNL     1      17.400  52.468  49.800  1.00  0.00     0.001 A 
HETATM   35  C   UNL     1      16.404  51.695  49.223  1.00  0.00     0.001 A 
ENDBRANCH  23  26
ENDBRANCH  20  22
ENDBRANCH   1  20
TORSDOF 7
ENDMDL
MODEL 7
REMARK VINA RESULT:      -9.2      2.831      4.869
REMARK  7 active torsions:
REMARK  status: ('A' for Active; 'I' for Inactive)
REMARK    1  A    between atoms: C_2  and  C_3 
REMARK    2  A    between atoms: C_3  and  C_4 
REMARK       I    between atoms: C_4  and  N_5 
REMARK    3  A    between atoms: N_8  and  C_9 
REMARK    4  A    between atoms: C_12  and  N_13 
REMARK    5  A    between atoms: N_13  and  C_14 
REMARK    6  A    between atoms: C_14  and  N_15 
REMARK       I    between atoms: N_15  and  C_16 
REMARK    7  A    between atoms: C_16  and  C_17 
ROOT
HETATM    1  N   UNL     1      23.217  47.909  49.637  1.00  0.00    -0.333 N 
HETATM    2  H   UNL     1      22.918  47.176  50.281  1.00  0.00     0.168 HD
ENDROOT
BRANCH   1   3
HETATM    3  C   UNL     1      22.202  48.798  49.216  1.00  0.00     0.034 C 
HETATM    4  C   UNL     1      22.196  50.153  49.525  1.00  0.00     0.032 C 
HETATM    5  C   UNL     1      21.069  50.938  49.265  1.00  0.00     0.031 C 
HETATM    6  C   UNL     1      19.919  50.403  48.676  1.00  0.00     0.030 C 
HETATM    7  C   UNL     1      20.003  49.079  48.221  1.00  0.00     0.031 C 
HETATM    8  C   UNL     1      21.136  48.286  48.475  1.00  0.00     0.032 C 
BRANCH   6   9
HETATM    9  N   UNL     1      18.706  51.087  48.647  1.00  0.00    -0.378 N 
HETATM   10  C   UNL     1      18.325  51.793  47.409  1.00  0.00     0.143 C 
HETATM   11  C   UNL     1      16.799  52.044  47.382  1.00  0.00     0.145 C 
HETATM   12  N   UNL     1      16.252  52.594  48.633  1.00  0.00    -0.349 N 
HETATM   13  C   UNL     1      15.000  53.210  48.571  1.00  0.00     0.219 C 
HETATM   14  C   UNL     1      16.754  51.968  49.862  1.00  0.00     0.145 C 
HETATM   15  O   UNL     1      14.461  53.488  47.502  1.00  0.00    -0.273 OA
HETATM   16  C   UNL     1      18.276  51.790  49.867  1.00  0.00     0.143 C 
BRANCH  13  17
HETATM   17  C   UNL     1      14.344  53.538  49.909  1.00  0.00     0.103 C 
BRANCH  17  18
HETATM   18  C   UNL     1      14.008  55.019  50.068  1.00  0.00     0.005 C 
HETATM   19  C   UNL     1      15.273  55.862  50.142  1.00  0.00     0.005 C 
ENDBRANCH  17  18
ENDBRANCH  13  17
ENDBRANCH   6   9
ENDBRANCH   1   3
BRANCH   1  20
HETATM   20  C   UNL     1      24.584  48.070  49.561  1.00  0.00     0.179 C 
HETATM   21  S   UNL     1      25.483  49.233  48.754  1.00  0.00    -0.040 SA
BRANCH  20  22
HETATM   22  N   UNL     1      25.340  47.180  50.298  1.00  0.00    -0.299 N 
HETATM   23  C   UNL     1      25.089  45.872  50.694  1.00  0.00     0.266 C 
HETATM   24  O   UNL     1      24.073  45.279  50.332  1.00  0.00    -0.267 OA
HETATM   25  H   UNL     1      26.186  47.610  50.646  1.00  0.00     0.171 HD
BRANCH  23  26
HETATM   26  C   UNL     1      26.126  45.289  51.538  1.00  0.00     0.096 A 
HETATM   27  S   UNL     1      27.068  44.008  50.903  1.00  0.00    -0.082 SA
HETATM   28  C   UNL     1      28.040  43.891  52.316  1.00  0.00     0.017 A 
HETATM   29  C   UNL     1      27.631  44.800  53.293  1.00  0.00     0.004 A 
HETATM   30  C   UNL     1      29.120  43.012  52.530  1.00  0.00     0.020 A 
HETATM   31  C   UNL     1      26.518  45.589  52.830  1.00  0.00     0.068 A 
HETATM   32  C   UNL     1      28.337  44.810  54.526  1.00  0.00     0.014 A 
HETATM   33 CL   UNL     1      25.791  46.773  53.850  1.00  0.00    -0.082 Cl
HETATM   34  C   UNL     1      29.409  43.941  54.742  1.00  0.00     0.001 A 
HETATM   35  C   UNL     1      29.797  43.052  53.751  1.00  0.00     0.001 A 
ENDBRANCH  23  26
ENDBRANCH  20  22
ENDBRANCH   1  20
TORSDOF 7
ENDMDL
MODEL 8
REMARK VINA RESULT:      -9.0      3.982     11.286
REMARK  7 active torsions:
REMARK  status: ('A' for Active; 'I' for Inactive)
REMARK    1  A    between atoms: C_2  and  C_3 
REMARK    2  A    between atoms: C_3  and  C_4 
REMARK       I    between atoms: C_4  and  N_5 
REMARK    3  A    between atoms: N_8  and  C_9 
REMARK    4  A    between atoms: C_12  and  N_13 
REMARK    5  A    between atoms: N_13  and  C_14 
REMARK    6  A    between atoms: C_14  and  N_15 
REMARK       I    between atoms: N_15  and  C_16 
REMARK    7  A    between atoms: C_16  and  C_17 
ROOT
HETATM    1  N   UNL     1      22.205  43.678  47.937  1.00  0.00    -0.333 N 
HETATM    2  H   UNL     1      21.620  42.844  47.878  1.00  0.00     0.168 HD
ENDROOT
BRANCH   1   3
HETATM    3  C   UNL     1      23.338  43.568  48.775  1.00  0.00     0.034 C 
HETATM    4  C   UNL     1      23.459  42.610  49.774  1.00  0.00     0.032 C 
HETATM    5  C   UNL     1      24.500  42.678  50.705  1.00  0.00     0.031 C 
HETATM    6  C   UNL     1      25.460  43.695  50.661  1.00  0.00     0.030 C 
HETATM    7  C   UNL     1      25.418  44.553  49.553  1.00  0.00     0.031 C 
HETATM    8  C   UNL     1      24.377  44.485  48.611  1.00  0.00     0.032 C 
BRANCH   6   9
HETATM    9  N   UNL     1      26.341  43.938  51.713  1.00  0.00    -0.378 N 
HETATM   10  C   UNL     1      26.443  45.311  52.244  1.00  0.00     0.143 C 
HETATM   11  C   UNL     1      27.043  45.292  53.669  1.00  0.00     0.145 C 
HETATM   12  N   UNL     1      28.246  44.455  53.809  1.00  0.00    -0.349 N 
HETATM   13  C   UNL     1      29.064  44.686  54.917  1.00  0.00     0.219 C 
HETATM   14  C   UNL     1      28.175  43.145  53.151  1.00  0.00     0.145 C 
HETATM   15  O   UNL     1      28.930  45.677  55.634  1.00  0.00    -0.273 OA
HETATM   16  C   UNL     1      27.626  43.220  51.722  1.00  0.00     0.143 C 
BRANCH  13  17
HETATM   17  C   UNL     1      30.151  43.649  55.180  1.00  0.00     0.103 C 
BRANCH  17  18
HETATM   18  C   UNL     1      31.224  44.133  56.152  1.00  0.00     0.005 C 
HETATM   19  C   UNL     1      31.557  43.060  57.178  1.00  0.00     0.005 C 
ENDBRANCH  17  18
ENDBRANCH  13  17
ENDBRANCH   6   9
ENDBRANCH   1   3
BRANCH   1  20
HETATM   20  C   UNL     1      21.949  44.617  46.960  1.00  0.00     0.179 C 
HETATM   21  S   UNL     1      22.163  44.521  45.299  1.00  0.00    -0.040 SA
BRANCH  20  22
HETATM   22  N   UNL     1      21.380  45.799  47.390  1.00  0.00    -0.299 N 
HETATM   23  C   UNL     1      20.343  46.047  48.280  1.00  0.00     0.266 C 
HETATM   24  O   UNL     1      19.800  45.132  48.900  1.00  0.00    -0.267 OA
HETATM   25  H   UNL     1      21.767  46.597  46.904  1.00  0.00     0.171 HD
BRANCH  23  26
HETATM   26  C   UNL     1      19.987  47.455  48.415  1.00  0.00     0.096 A 
HETATM   27  S   UNL     1      21.236  48.623  48.317  1.00  0.00    -0.082 SA
HETATM   28  C   UNL     1      20.147  49.943  48.480  1.00  0.00     0.017 A 
HETATM   29  C   UNL     1      18.833  49.504  48.647  1.00  0.00     0.004 A 
HETATM   30  C   UNL     1      20.471  51.314  48.463  1.00  0.00     0.020 A 
HETATM   31  C   UNL     1      18.763  48.066  48.618  1.00  0.00     0.068 A 
HETATM   32  C   UNL     1      17.820  50.488  48.808  1.00  0.00     0.014 A 
HETATM   33 CL   UNL     1      17.258  47.251  48.832  1.00  0.00    -0.082 Cl
HETATM   34  C   UNL     1      18.137  51.848  48.790  1.00  0.00     0.001 A 
HETATM   35  C   UNL     1      19.451  52.256  48.617  1.00  0.00     0.001 A 
ENDBRANCH  23  26
ENDBRANCH  20  22
ENDBRANCH   1  20
TORSDOF 7
ENDMDL
MODEL 9
REMARK VINA RESULT:      -8.9      1.660      2.190
REMARK  7 active torsions:
REMARK  status: ('A' for Active; 'I' for Inactive)
REMARK    1  A    between atoms: C_2  and  C_3 
REMARK    2  A    between atoms: C_3  and  C_4 
REMARK       I    between atoms: C_4  and  N_5 
REMARK    3  A    between atoms: N_8  and  C_9 
REMARK    4  A    between atoms: C_12  and  N_13 
REMARK    5  A    between atoms: N_13  and  C_14 
REMARK    6  A    between atoms: C_14  and  N_15 
REMARK       I    between atoms: N_15  and  C_16 
REMARK    7  A    between atoms: C_16  and  C_17 
ROOT
HETATM    1  N   UNL     1      24.438  42.962  50.260  1.00  0.00    -0.333 N 
HETATM    2  H   UNL     1      23.962  42.604  51.090  1.00  0.00     0.168 HD
ENDROOT
BRANCH   1   3
HETATM    3  C   UNL     1      23.734  43.948  49.533  1.00  0.00     0.034 C 
HETATM    4  C   UNL     1      24.028  45.305  49.604  1.00  0.00     0.032 C 
HETATM    5  C   UNL     1      23.171  46.250  49.032  1.00  0.00     0.031 C 
HETATM    6  C   UNL     1      22.002  45.874  48.361  1.00  0.00     0.030 C 
HETATM    7  C   UNL     1      21.809  44.500  48.158  1.00  0.00     0.031 C 
HETATM    8  C   UNL     1      22.671  43.545  48.725  1.00  0.00     0.032 C 
BRANCH   6   9
HETATM    9  N   UNL     1      21.009  46.789  48.017  1.00  0.00    -0.378 N 
HETATM   10  C   UNL     1      20.660  46.947  46.593  1.00  0.00     0.143 C 
HETATM   11  C   UNL     1      19.258  47.584  46.452  1.00  0.00     0.145 C 
HETATM   12  N   UNL     1      19.039  48.764  47.305  1.00  0.00    -0.349 N 
HETATM   13  C   UNL     1      17.988  49.617  46.963  1.00  0.00     0.219 C 
HETATM   14  C   UNL     1      19.524  48.635  48.684  1.00  0.00     0.145 C 
HETATM   15  O   UNL     1      17.400  49.532  45.886  1.00  0.00    -0.273 OA
HETATM   16  C   UNL     1      20.938  48.051  48.771  1.00  0.00     0.143 C 
BRANCH  13  17
HETATM   17  C   UNL     1      17.620  50.679  47.995  1.00  0.00     0.103 C 
BRANCH  17  18
HETATM   18  C   UNL     1      18.205  52.054  47.682  1.00  0.00     0.005 C 
HETATM   19  C   UNL     1      19.435  52.331  48.533  1.00  0.00     0.005 C 
ENDBRANCH  17  18
ENDBRANCH  13  17
ENDBRANCH   6   9
ENDBRANCH   1   3
BRANCH   1  20
HETATM   20  C   UNL     1      25.779  42.645  50.199  1.00  0.00     0.179 C 
HETATM   21  S   UNL     1      26.659  41.944  48.956  1.00  0.00    -0.040 SA
BRANCH  20  22
HETATM   22  N   UNL     1      26.535  43.001  51.298  1.00  0.00    -0.299 N 
HETATM   23  C   UNL     1      26.179  43.594  52.503  1.00  0.00     0.266 C 
HETATM   24  O   UNL     1      25.002  43.835  52.773  1.00  0.00    -0.267 OA
HETATM   25  H   UNL     1      27.521  42.847  51.137  1.00  0.00     0.171 HD
BRANCH  23  26
HETATM   26  C   UNL     1      27.301  43.876  53.391  1.00  0.00     0.096 A 
HETATM   27  S   UNL     1      27.411  45.432  54.097  1.00  0.00    -0.082 SA
HETATM   28  C   UNL     1      28.823  45.034  54.992  1.00  0.00     0.017 A 
HETATM   29  C   UNL     1      29.241  43.728  54.732  1.00  0.00     0.004 A 
HETATM   30  C   UNL     1      29.523  45.869  55.885  1.00  0.00     0.020 A 
HETATM   31  C   UNL     1      28.358  43.080  53.797  1.00  0.00     0.068 A 
HETATM   32  C   UNL     1      30.409  43.261  55.394  1.00  0.00     0.014 A 
HETATM   33 CL   UNL     1      28.658  41.465  53.273  1.00  0.00    -0.082 Cl
HETATM   34  C   UNL     1      31.105  44.086  56.281  1.00  0.00     0.001 A 
HETATM   35  C   UNL     1      30.663  45.377  56.525  1.00  0.00     0.001 A 
ENDBRANCH  23  26
ENDBRANCH  20  22
ENDBRANCH   1  20
TORSDOF 7
ENDMDL
MODEL 10
REMARK VINA RESULT:      -8.7      5.875      9.592
REMARK  7 active torsions:
REMARK  status: ('A' for Active; 'I' for Inactive)
REMARK    1  A    between atoms: C_2  and  C_3 
REMARK    2  A    between atoms: C_3  and  C_4 
REMARK       I    between atoms: C_4  and  N_5 
REMARK    3  A    between atoms: N_8  and  C_9 
REMARK    4  A    between atoms: C_12  and  N_13 
REMARK    5  A    between atoms: N_13  and  C_14 
REMARK    6  A    between atoms: C_14  and  N_15 
REMARK       I    between atoms: N_15  and  C_16 
REMARK    7  A    between atoms: C_16  and  C_17 
ROOT
HETATM    1  N   UNL     1      24.931  42.634  51.399  1.00  0.00    -0.333 N 
HETATM    2  H   UNL     1      24.011  42.498  51.820  1.00  0.00     0.168 HD
ENDROOT
BRANCH   1   3
HETATM    3  C   UNL     1      25.344  41.622  50.502  1.00  0.00     0.034 C 
HETATM    4  C   UNL     1      26.142  40.548  50.877  1.00  0.00     0.032 C 
HETATM    5  C   UNL     1      26.691  39.697  49.913  1.00  0.00     0.031 C 
HETATM    6  C   UNL     1      26.452  39.882  48.547  1.00  0.00     0.030 C 
HETATM    7  C   UNL     1      25.516  40.867  48.200  1.00  0.00     0.031 C 
HETATM    8  C   UNL     1      24.956  41.721  49.166  1.00  0.00     0.032 C 
BRANCH   6   9
HETATM    9  N   UNL     1      27.186  39.223  47.563  1.00  0.00    -0.378 N 
HETATM   10  C   UNL     1      28.277  38.323  47.982  1.00  0.00     0.143 C 
HETATM   11  C   UNL     1      28.621  37.331  46.846  1.00  0.00     0.145 C 
HETATM   12  N   UNL     1      28.773  37.956  45.521  1.00  0.00    -0.349 N 
HETATM   13  C   UNL     1      29.456  37.229  44.544  1.00  0.00     0.219 C 
HETATM   14  C   UNL     1      27.753  38.955  45.182  1.00  0.00     0.145 C 
HETATM   15  O   UNL     1      30.098  36.215  44.812  1.00  0.00    -0.273 OA
HETATM   16  C   UNL     1      27.485  39.949  46.318  1.00  0.00     0.143 C 
BRANCH  13  17
HETATM   17  C   UNL     1      29.377  37.776  43.121  1.00  0.00     0.103 C 
BRANCH  17  18
HETATM   18  C   UNL     1      30.578  38.638  42.740  1.00  0.00     0.005 C 
HETATM   19  C   UNL     1      30.172  40.095  42.570  1.00  0.00     0.005 C 
ENDBRANCH  17  18
ENDBRANCH  13  17
ENDBRANCH   6   9
ENDBRANCH   1   3
BRANCH   1  20
HETATM   20  C   UNL     1      25.435  43.909  51.545  1.00  0.00     0.179 C 
HETATM   21  S   UNL     1      24.962  45.340  50.808  1.00  0.00    -0.040 SA
BRANCH  20  22
HETATM   22  N   UNL     1      26.445  44.058  52.474  1.00  0.00    -0.299 N 
HETATM   23  C   UNL     1      27.827  44.004  52.342  1.00  0.00     0.266 C 
HETATM   24  O   UNL     1      28.359  43.864  51.241  1.00  0.00    -0.267 OA
HETATM   25  H   UNL     1      26.078  44.159  53.411  1.00  0.00     0.171 HD
BRANCH  23  26
HETATM   26  C   UNL     1      28.558  44.144  53.596  1.00  0.00     0.096 A 
HETATM   27  S   UNL     1      29.665  42.914  54.035  1.00  0.00    -0.082 SA
HETATM   28  C   UNL     1      30.153  43.728  55.468  1.00  0.00     0.017 A 
HETATM   29  C   UNL     1      29.451  44.922  55.641  1.00  0.00     0.004 A 
HETATM   30  C   UNL     1      31.124  43.301  56.396  1.00  0.00     0.020 A 
HETATM   31  C   UNL     1      28.528  45.139  54.558  1.00  0.00     0.068 A 
HETATM   32  C   UNL     1      29.741  45.700  56.794  1.00  0.00     0.014 A 
HETATM   33 CL   UNL     1      27.507  46.527  54.533  1.00  0.00    -0.082 Cl
HETATM   34  C   UNL     1      30.703  45.281  57.716  1.00  0.00     0.001 A 
HETATM   35  C   UNL     1      31.389  44.093  57.516  1.00  0.00     0.001 A 
ENDBRANCH  23  26
ENDBRANCH  20  22
ENDBRANCH   1  20
TORSDOF 7
ENDMDL
