MODEL 1
REMARK VINA RESULT:      -8.2      0.000      0.000
REMARK  4 active torsions:
REMARK  status: ('A' for Active; 'I' for Inactive)
REMARK    1  A    between atoms: C_5  and  C_6 
REMARK       I    between atoms: C_6  and  N_7 
REMARK    2  A    between atoms: N_7  and  C_8 
REMARK    3  A    between atoms: C_8  and  N_9 
REMARK    4  A    between atoms: N_9  and  C_10 
ROOT
HETATM    1  C   UNL     1      27.262  45.569  53.864  1.00  0.00     0.257 C 
HETATM    2  N   UNL     1      26.821  44.741  52.836  1.00  0.00    -0.299 N 
HETATM    3  O   UNL     1      26.766  46.637  54.200  1.00  0.00    -0.267 OA
HETATM    4  H   UNL     1      27.283  43.839  52.751  1.00  0.00     0.171 HD
ENDROOT
BRANCH   2   5
HETATM    5  C   UNL     1      25.792  44.886  51.927  1.00  0.00     0.180 C 
HETATM    6  S   UNL     1      25.177  43.723  50.897  1.00  0.00    -0.040 SA
BRANCH   5   7
HETATM    7  N   UNL     1      25.209  46.129  51.866  1.00  0.00    -0.318 N 
HETATM    8  H   UNL     1      24.618  46.338  52.662  1.00  0.00     0.170 HD
BRANCH   7   9
HETATM    9  C   UNL     1      25.335  47.118  50.882  1.00  0.00     0.129 A 
HETATM   10  N   UNL     1      24.224  47.655  50.328  1.00  0.00    -0.243 NA
HETATM   11  C   UNL     1      24.402  48.597  49.371  1.00  0.00     0.125 A 
HETATM   12  C   UNL     1      25.641  49.045  48.935  1.00  0.00    -0.044 A 
HETATM   13  C   UNL     1      25.770  50.063  47.848  1.00  0.00     0.049 C 
HETATM   14  C   UNL     1      26.769  48.472  49.521  1.00  0.00     0.012 A 
HETATM   15  C   UNL     1      26.617  47.500  50.508  1.00  0.00     0.051 A 
ENDBRANCH   7   9
ENDBRANCH   5   7
ENDBRANCH   2   5
BRANCH   1  16
HETATM   16  C   UNL     1      28.419  45.043  54.643  1.00  0.00     0.032 A 
HETATM   17  C   UNL     1      29.035  45.783  55.660  1.00  0.00     0.017 A 
HETATM   18  C   UNL     1      30.135  45.253  56.343  1.00  0.00     0.007 A 
HETATM   19  C   UNL     1      30.629  43.984  56.020  1.00  0.00    -0.062 A 
HETATM   20  C   UNL     1      31.796  43.403  56.763  1.00  0.00     0.048 C 
HETATM   21  C   UNL     1      29.984  43.231  55.031  1.00  0.00     0.007 A 
HETATM   22  C   UNL     1      28.885  43.756  54.348  1.00  0.00     0.017 A 
ENDBRANCH   1  16
TORSDOF 4
ENDMDL
MODEL 2
REMARK VINA RESULT:      -8.0      0.841      1.644
REMARK  4 active torsions:
REMARK  status: ('A' for Active; 'I' for Inactive)
REMARK    1  A    between atoms: C_5  and  C_6 
REMARK       I    between atoms: C_6  and  N_7 
REMARK    2  A    between atoms: N_7  and  C_8 
REMARK    3  A    between atoms: C_8  and  N_9 
REMARK    4  A    between atoms: N_9  and  C_10 
ROOT
HETATM    1  C   UNL     1      26.575  44.999  53.785  1.00  0.00     0.257 C 
HETATM    2  N   UNL     1      26.298  44.367  52.576  1.00  0.00    -0.299 N 
HETATM    3  O   UNL     1      25.843  45.780  54.380  1.00  0.00    -0.267 OA
HETATM    4  H   UNL     1      26.970  43.670  52.265  1.00  0.00     0.171 HD
ENDROOT
BRANCH   2   5
HETATM    5  C   UNL     1      25.213  44.456  51.728  1.00  0.00     0.180 C 
HETATM    6  S   UNL     1      24.486  43.217  50.874  1.00  0.00    -0.040 SA
BRANCH   5   7
HETATM    7  N   UNL     1      24.670  45.709  51.570  1.00  0.00    -0.318 N 
HETATM    8  H   UNL     1      23.870  45.881  52.168  1.00  0.00     0.170 HD
BRANCH   7   9
HETATM    9  C   UNL     1      25.078  46.751  50.728  1.00  0.00     0.129 A 
HETATM   10  N   UNL     1      26.390  47.066  50.640  1.00  0.00    -0.243 NA
HETATM   11  C   UNL     1      26.729  48.091  49.822  1.00  0.00     0.125 A 
HETATM   12  C   UNL     1      25.822  48.825  49.071  1.00  0.00    -0.044 A 
HETATM   13  C   UNL     1      26.257  49.971  48.215  1.00  0.00     0.049 C 
HETATM   14  C   UNL     1      24.475  48.482  49.184  1.00  0.00     0.012 A 
HETATM   15  C   UNL     1      24.096  47.432  50.018  1.00  0.00     0.051 A 
ENDBRANCH   7   9
ENDBRANCH   5   7
ENDBRANCH   2   5
BRANCH   1  16
HETATM   16  C   UNL     1      27.874  44.620  54.410  1.00  0.00     0.032 A 
HETATM   17  C   UNL     1      28.480  43.378  54.181  1.00  0.00     0.017 A 
HETATM   18  C   UNL     1      29.687  43.062  54.814  1.00  0.00     0.007 A 
HETATM   19  C   UNL     1      30.299  43.977  55.678  1.00  0.00    -0.062 A 
HETATM   20  C   UNL     1      31.603  43.650  56.343  1.00  0.00     0.048 C 
HETATM   21  C   UNL     1      29.710  45.233  55.872  1.00  0.00     0.007 A 
HETATM   22  C   UNL     1      28.506  45.553  55.240  1.00  0.00     0.017 A 
ENDBRANCH   1  16
TORSDOF 4
ENDMDL
MODEL 3
REMARK VINA RESULT:      -7.7      3.663      5.494
REMARK  4 active torsions:
REMARK  status: ('A' for Active; 'I' for Inactive)
REMARK    1  A    between atoms: C_5  and  C_6 
REMARK       I    between atoms: C_6  and  N_7 
REMARK    2  A    between atoms: N_7  and  C_8 
REMARK    3  A    between atoms: C_8  and  N_9 
REMARK    4  A    between atoms: N_9  and  C_10 
ROOT
HETATM    1  C   UNL     1      27.703  44.669  53.090  1.00  0.00     0.257 C 
HETATM    2  N   UNL     1      27.900  44.033  51.868  1.00  0.00    -0.299 N 
HETATM    3  O   UNL     1      26.750  45.374  53.396  1.00  0.00    -0.267 OA
HETATM    4  H   UNL     1      28.695  43.402  51.809  1.00  0.00     0.171 HD
ENDROOT
BRANCH   2   5
HETATM    5  C   UNL     1      27.156  44.040  50.706  1.00  0.00     0.180 C 
HETATM    6  S   UNL     1      26.765  45.361  49.759  1.00  0.00    -0.040 SA
BRANCH   5   7
HETATM    7  N   UNL     1      26.685  42.821  50.281  1.00  0.00    -0.318 N 
HETATM    8  H   UNL     1      25.678  42.793  50.169  1.00  0.00     0.170 HD
BRANCH   7   9
HETATM    9  C   UNL     1      27.397  41.654  49.977  1.00  0.00     0.129 A 
HETATM   10  N   UNL     1      27.946  40.926  50.976  1.00  0.00    -0.243 NA
HETATM   11  C   UNL     1      28.637  39.814  50.627  1.00  0.00     0.125 A 
HETATM   12  C   UNL     1      28.807  39.377  49.321  1.00  0.00    -0.044 A 
HETATM   13  C   UNL     1      29.613  38.160  48.999  1.00  0.00     0.049 C 
HETATM   14  C   UNL     1      28.233  40.149  48.310  1.00  0.00     0.012 A 
HETATM   15  C   UNL     1      27.517  41.298  48.640  1.00  0.00     0.051 A 
ENDBRANCH   7   9
ENDBRANCH   5   7
ENDBRANCH   2   5
BRANCH   1  16
HETATM   16  C   UNL     1      28.747  44.394  54.118  1.00  0.00     0.032 A 
HETATM   17  C   UNL     1      28.974  45.253  55.202  1.00  0.00     0.017 A 
HETATM   18  C   UNL     1      29.985  44.963  56.124  1.00  0.00     0.007 A 
HETATM   19  C   UNL     1      30.778  43.818  55.975  1.00  0.00    -0.062 A 
HETATM   20  C   UNL     1      31.850  43.493  56.973  1.00  0.00     0.048 C 
HETATM   21  C   UNL     1      30.520  42.943  54.913  1.00  0.00     0.007 A 
HETATM   22  C   UNL     1      29.511  43.228  53.991  1.00  0.00     0.017 A 
ENDBRANCH   1  16
TORSDOF 4
ENDMDL
MODEL 4
REMARK VINA RESULT:      -7.6      1.626      1.831
REMARK  4 active torsions:
REMARK  status: ('A' for Active; 'I' for Inactive)
REMARK    1  A    between atoms: C_5  and  C_6 
REMARK       I    between atoms: C_6  and  N_7 
REMARK    2  A    between atoms: N_7  and  C_8 
REMARK    3  A    between atoms: C_8  and  N_9 
REMARK    4  A    between atoms: N_9  and  C_10 
ROOT
HETATM    1  C   UNL     1      27.657  44.791  53.490  1.00  0.00     0.257 C 
HETATM    2  N   UNL     1      27.500  43.829  52.496  1.00  0.00    -0.299 N 
HETATM    3  O   UNL     1      26.966  45.790  53.649  1.00  0.00    -0.267 OA
HETATM    4  H   UNL     1      28.096  43.007  52.562  1.00  0.00     0.171 HD
ENDROOT
BRANCH   2   5
HETATM    5  C   UNL     1      26.611  43.741  51.444  1.00  0.00     0.180 C 
HETATM    6  S   UNL     1      26.850  42.986  49.972  1.00  0.00    -0.040 SA
BRANCH   5   7
HETATM    7  N   UNL     1      25.390  44.343  51.632  1.00  0.00    -0.318 N 
HETATM    8  H   UNL     1      24.927  44.061  52.488  1.00  0.00     0.170 HD
BRANCH   7   9
HETATM    9  C   UNL     1      24.731  45.279  50.825  1.00  0.00     0.129 A 
HETATM   10  N   UNL     1      23.804  44.860  49.934  1.00  0.00    -0.243 NA
HETATM   11  C   UNL     1      23.208  45.805  49.168  1.00  0.00     0.125 A 
HETATM   12  C   UNL     1      23.482  47.163  49.247  1.00  0.00    -0.044 A 
HETATM   13  C   UNL     1      22.814  48.152  48.346  1.00  0.00     0.049 C 
HETATM   14  C   UNL     1      24.445  47.568  50.172  1.00  0.00     0.012 A 
HETATM   15  C   UNL     1      25.075  46.617  50.973  1.00  0.00     0.051 A 
ENDBRANCH   7   9
ENDBRANCH   5   7
ENDBRANCH   2   5
BRANCH   1  16
HETATM   16  C   UNL     1      28.747  44.513  54.468  1.00  0.00     0.032 A 
HETATM   17  C   UNL     1      29.045  45.385  55.523  1.00  0.00     0.017 A 
HETATM   18  C   UNL     1      30.096  45.091  56.397  1.00  0.00     0.007 A 
HETATM   19  C   UNL     1      30.858  43.928  56.229  1.00  0.00    -0.062 A 
HETATM   20  C   UNL     1      31.973  43.598  57.177  1.00  0.00     0.048 C 
HETATM   21  C   UNL     1      30.529  43.040  55.198  1.00  0.00     0.007 A 
HETATM   22  C   UNL     1      29.480  43.329  54.324  1.00  0.00     0.017 A 
ENDBRANCH   1  16
TORSDOF 4
ENDMDL
MODEL 5
REMARK VINA RESULT:      -7.5      3.006      4.007
REMARK  4 active torsions:
REMARK  status: ('A' for Active; 'I' for Inactive)
REMARK    1  A    between atoms: C_5  and  C_6 
REMARK       I    between atoms: C_6  and  N_7 
REMARK    2  A    between atoms: N_7  and  C_8 
REMARK    3  A    between atoms: C_8  and  N_9 
REMARK    4  A    between atoms: N_9  and  C_10 
ROOT
HETATM    1  C   UNL     1      27.581  45.362  54.149  1.00  0.00     0.257 C 
HETATM    2  N   UNL     1      27.247  44.536  53.080  1.00  0.00    -0.299 N 
HETATM    3  O   UNL     1      26.989  46.377  54.495  1.00  0.00    -0.267 OA
HETATM    4  H   UNL     1      27.782  43.676  52.987  1.00  0.00     0.171 HD
ENDROOT
BRANCH   2   5
HETATM    5  C   UNL     1      26.247  44.629  52.133  1.00  0.00     0.180 C 
HETATM    6  S   UNL     1      26.028  45.841  51.003  1.00  0.00    -0.040 SA
BRANCH   5   7
HETATM    7  N   UNL     1      25.327  43.608  52.121  1.00  0.00    -0.318 N 
HETATM    8  H   UNL     1      25.078  43.277  53.045  1.00  0.00     0.170 HD
BRANCH   7   9
HETATM    9  C   UNL     1      24.699  42.996  51.029  1.00  0.00     0.129 A 
HETATM   10  N   UNL     1      23.415  43.303  50.737  1.00  0.00    -0.243 NA
HETATM   11  C   UNL     1      22.850  42.672  49.680  1.00  0.00     0.125 A 
HETATM   12  C   UNL     1      23.505  41.744  48.882  1.00  0.00    -0.044 A 
HETATM   13  C   UNL     1      22.813  41.055  47.750  1.00  0.00     0.049 C 
HETATM   14  C   UNL     1      24.828  41.443  49.207  1.00  0.00     0.012 A 
HETATM   15  C   UNL     1      25.434  42.077  50.290  1.00  0.00     0.051 A 
ENDBRANCH   7   9
ENDBRANCH   5   7
ENDBRANCH   2   5
BRANCH   1  16
HETATM   16  C   UNL     1      28.745  44.902  54.959  1.00  0.00     0.032 A 
HETATM   17  C   UNL     1      29.242  45.641  56.040  1.00  0.00     0.017 A 
HETATM   18  C   UNL     1      30.354  45.177  56.752  1.00  0.00     0.007 A 
HETATM   19  C   UNL     1      30.978  43.976  56.394  1.00  0.00    -0.062 A 
HETATM   20  C   UNL     1      32.157  43.465  57.167  1.00  0.00     0.048 C 
HETATM   21  C   UNL     1      30.451  43.221  55.339  1.00  0.00     0.007 A 
HETATM   22  C   UNL     1      29.341  43.680  54.627  1.00  0.00     0.017 A 
ENDBRANCH   1  16
TORSDOF 4
ENDMDL
MODEL 6
REMARK VINA RESULT:      -7.5      3.665      9.021
REMARK  4 active torsions:
REMARK  status: ('A' for Active; 'I' for Inactive)
REMARK    1  A    between atoms: C_5  and  C_6 
REMARK       I    between atoms: C_6  and  N_7 
REMARK    2  A    between atoms: N_7  and  C_8 
REMARK    3  A    between atoms: C_8  and  N_9 
REMARK    4  A    between atoms: N_9  and  C_10 
ROOT
HETATM    1  C   UNL     1      23.860  49.816  48.360  1.00  0.00     0.257 C 
HETATM    2  N   UNL     1      24.383  48.959  49.325  1.00  0.00    -0.299 N 
HETATM    3  O   UNL     1      24.388  50.120  47.297  1.00  0.00    -0.267 OA
HETATM    4  H   UNL     1      23.774  48.733  50.107  1.00  0.00     0.171 HD
ENDROOT
BRANCH   2   5
HETATM    5  C   UNL     1      25.581  48.279  49.386  1.00  0.00     0.180 C 
HETATM    6  S   UNL     1      27.105  48.872  49.040  1.00  0.00    -0.040 SA
BRANCH   5   7
HETATM    7  N   UNL     1      25.511  46.964  49.780  1.00  0.00    -0.318 N 
HETATM    8  H   UNL     1      25.067  46.361  49.098  1.00  0.00     0.170 HD
BRANCH   7   9
HETATM    9  C   UNL     1      25.976  46.366  50.958  1.00  0.00     0.129 A 
HETATM   10  N   UNL     1      26.618  45.177  50.898  1.00  0.00    -0.243 NA
HETATM   11  C   UNL     1      27.033  44.636  52.068  1.00  0.00     0.125 A 
HETATM   12  C   UNL     1      26.849  45.225  53.311  1.00  0.00    -0.044 A 
HETATM   13  C   UNL     1      27.299  44.558  54.571  1.00  0.00     0.049 C 
HETATM   14  C   UNL     1      26.180  46.449  53.345  1.00  0.00     0.012 A 
HETATM   15  C   UNL     1      25.741  47.029  52.156  1.00  0.00     0.051 A 
ENDBRANCH   7   9
ENDBRANCH   5   7
ENDBRANCH   2   5
BRANCH   1  16
HETATM   16  C   UNL     1      22.502  50.351  48.662  1.00  0.00     0.032 A 
HETATM   17  C   UNL     1      21.547  50.573  47.662  1.00  0.00     0.017 A 
HETATM   18  C   UNL     1      20.296  51.102  47.996  1.00  0.00     0.007 A 
HETATM   19  C   UNL     1      19.986  51.413  49.325  1.00  0.00    -0.062 A 
HETATM   20  C   UNL     1      18.638  51.961  49.691  1.00  0.00     0.048 C 
HETATM   21  C   UNL     1      20.930  51.151  50.326  1.00  0.00     0.007 A 
HETATM   22  C   UNL     1      22.179  50.622  49.996  1.00  0.00     0.017 A 
ENDBRANCH   1  16
TORSDOF 4
ENDMDL
MODEL 7
REMARK VINA RESULT:      -7.4      1.914      6.990
REMARK  4 active torsions:
REMARK  status: ('A' for Active; 'I' for Inactive)
REMARK    1  A    between atoms: C_5  and  C_6 
REMARK       I    between atoms: C_6  and  N_7 
REMARK    2  A    between atoms: N_7  and  C_8 
REMARK    3  A    between atoms: C_8  and  N_9 
REMARK    4  A    between atoms: N_9  and  C_10 
ROOT
HETATM    1  C   UNL     1      25.320  44.721  51.209  1.00  0.00     0.257 C 
HETATM    2  N   UNL     1      26.440  43.908  51.063  1.00  0.00    -0.299 N 
HETATM    3  O   UNL     1      24.326  44.474  51.881  1.00  0.00    -0.267 OA
HETATM    4  H   UNL     1      27.223  44.303  50.549  1.00  0.00     0.171 HD
ENDROOT
BRANCH   2   5
HETATM    5  C   UNL     1      26.727  42.653  51.561  1.00  0.00     0.180 C 
HETATM    6  S   UNL     1      26.884  41.230  50.699  1.00  0.00    -0.040 SA
BRANCH   5   7
HETATM    7  N   UNL     1      26.905  42.568  52.921  1.00  0.00    -0.318 N 
HETATM    8  H   UNL     1      26.347  41.843  53.357  1.00  0.00     0.170 HD
BRANCH   7   9
HETATM    9  C   UNL     1      27.743  43.321  53.753  1.00  0.00     0.129 A 
HETATM   10  N   UNL     1      27.321  44.516  54.224  1.00  0.00    -0.243 NA
HETATM   11  C   UNL     1      28.176  45.210  55.013  1.00  0.00     0.125 A 
HETATM   12  C   UNL     1      29.443  44.770  55.369  1.00  0.00    -0.044 A 
HETATM   13  C   UNL     1      30.354  45.601  56.213  1.00  0.00     0.049 C 
HETATM   14  C   UNL     1      29.855  43.536  54.866  1.00  0.00     0.012 A 
HETATM   15  C   UNL     1      28.996  42.800  54.051  1.00  0.00     0.051 A 
ENDBRANCH   7   9
ENDBRANCH   5   7
ENDBRANCH   2   5
BRANCH   1  16
HETATM   16  C   UNL     1      25.400  46.035  50.510  1.00  0.00     0.032 A 
HETATM   17  C   UNL     1      26.623  46.643  50.199  1.00  0.00     0.017 A 
HETATM   18  C   UNL     1      26.643  47.890  49.565  1.00  0.00     0.007 A 
HETATM   19  C   UNL     1      25.447  48.540  49.236  1.00  0.00    -0.062 A 
HETATM   20  C   UNL     1      25.464  49.868  48.538  1.00  0.00     0.048 C 
HETATM   21  C   UNL     1      24.229  47.910  49.513  1.00  0.00     0.007 A 
HETATM   22  C   UNL     1      24.205  46.664  50.144  1.00  0.00     0.017 A 
ENDBRANCH   1  16
TORSDOF 4
ENDMDL
MODEL 8
REMARK VINA RESULT:      -7.3      1.791      2.274
REMARK  4 active torsions:
REMARK  status: ('A' for Active; 'I' for Inactive)
REMARK    1  A    between atoms: C_5  and  C_6 
REMARK       I    between atoms: C_6  and  N_7 
REMARK    2  A    between atoms: N_7  and  C_8 
REMARK    3  A    between atoms: C_8  and  N_9 
REMARK    4  A    between atoms: N_9  and  C_10 
ROOT
HETATM    1  C   UNL     1      27.281  43.929  52.834  1.00  0.00     0.257 C 
HETATM    2  N   UNL     1      27.524  43.258  51.639  1.00  0.00    -0.299 N 
HETATM    3  O   UNL     1      26.234  44.474  53.161  1.00  0.00    -0.267 OA
HETATM    4  H   UNL     1      28.415  42.774  51.564  1.00  0.00     0.171 HD
ENDROOT
BRANCH   2   5
HETATM    5  C   UNL     1      26.730  43.058  50.528  1.00  0.00     0.180 C 
HETATM    6  S   UNL     1      25.822  41.704  50.159  1.00  0.00    -0.040 SA
BRANCH   5   7
HETATM    7  N   UNL     1      26.681  44.093  49.625  1.00  0.00    -0.318 N 
HETATM    8  H   UNL     1      27.353  44.005  48.872  1.00  0.00     0.170 HD
BRANCH   7   9
HETATM    9  C   UNL     1      25.837  45.211  49.603  1.00  0.00     0.129 A 
HETATM   10  N   UNL     1      24.533  45.058  49.277  1.00  0.00    -0.243 NA
HETATM   11  C   UNL     1      23.764  46.173  49.257  1.00  0.00     0.125 A 
HETATM   12  C   UNL     1      24.226  47.447  49.556  1.00  0.00    -0.044 A 
HETATM   13  C   UNL     1      23.333  48.644  49.480  1.00  0.00     0.049 C 
HETATM   14  C   UNL     1      25.575  47.576  49.885  1.00  0.00     0.012 A 
HETATM   15  C   UNL     1      26.391  46.446  49.913  1.00  0.00     0.051 A 
ENDBRANCH   7   9
ENDBRANCH   5   7
ENDBRANCH   2   5
BRANCH   1  16
HETATM   16  C   UNL     1      28.410  43.911  53.807  1.00  0.00     0.032 A 
HETATM   17  C   UNL     1      29.364  42.885  53.826  1.00  0.00     0.017 A 
HETATM   18  C   UNL     1      30.389  42.902  54.777  1.00  0.00     0.007 A 
HETATM   19  C   UNL     1      30.474  43.938  55.716  1.00  0.00    -0.062 A 
HETATM   20  C   UNL     1      31.583  43.971  56.725  1.00  0.00     0.048 C 
HETATM   21  C   UNL     1      29.541  44.981  55.666  1.00  0.00     0.007 A 
HETATM   22  C   UNL     1      28.517  44.969  54.717  1.00  0.00     0.017 A 
ENDBRANCH   1  16
TORSDOF 4
ENDMDL
MODEL 9
REMARK VINA RESULT:      -7.3      3.375      4.988
REMARK  4 active torsions:
REMARK  status: ('A' for Active; 'I' for Inactive)
REMARK    1  A    between atoms: C_5  and  C_6 
REMARK       I    between atoms: C_6  and  N_7 
REMARK    2  A    between atoms: N_7  and  C_8 
REMARK    3  A    between atoms: C_8  and  N_9 
REMARK    4  A    between atoms: N_9  and  C_10 
ROOT
HETATM    1  C   UNL     1      27.666  45.006  53.498  1.00  0.00     0.257 C 
HETATM    2  N   UNL     1      27.599  44.234  52.342  1.00  0.00    -0.299 N 
HETATM    3  O   UNL     1      26.900  45.909  53.814  1.00  0.00    -0.267 OA
HETATM    4  H   UNL     1      28.252  43.457  52.277  1.00  0.00     0.171 HD
ENDROOT
BRANCH   2   5
HETATM    5  C   UNL     1      26.738  44.280  51.263  1.00  0.00     0.180 C 
HETATM    6  S   UNL     1      26.409  45.593  50.282  1.00  0.00    -0.040 SA
BRANCH   5   7
HETATM    7  N   UNL     1      26.079  43.112  50.965  1.00  0.00    -0.318 N 
HETATM    8  H   UNL     1      25.154  43.053  51.374  1.00  0.00     0.170 HD
BRANCH   7   9
HETATM    9  C   UNL     1      26.503  42.033  50.179  1.00  0.00     0.129 A 
HETATM   10  N   UNL     1      27.206  42.264  49.047  1.00  0.00    -0.243 NA
HETATM   11  C   UNL     1      27.578  41.187  48.316  1.00  0.00     0.125 A 
HETATM   12  C   UNL     1      27.293  39.873  48.658  1.00  0.00    -0.044 A 
HETATM   13  C   UNL     1      27.701  38.728  47.788  1.00  0.00     0.049 C 
HETATM   14  C   UNL     1      26.564  39.662  49.829  1.00  0.00     0.012 A 
HETATM   15  C   UNL     1      26.166  40.752  50.601  1.00  0.00     0.051 A 
ENDBRANCH   7   9
ENDBRANCH   5   7
ENDBRANCH   2   5
BRANCH   1  16
HETATM   16  C   UNL     1      28.754  44.628  54.444  1.00  0.00     0.032 A 
HETATM   17  C   UNL     1      29.174  45.476  55.477  1.00  0.00     0.017 A 
HETATM   18  C   UNL     1      30.219  45.085  56.321  1.00  0.00     0.007 A 
HETATM   19  C   UNL     1      30.853  43.849  56.144  1.00  0.00    -0.062 A 
HETATM   20  C   UNL     1      31.960  43.417  57.059  1.00  0.00     0.048 C 
HETATM   21  C   UNL     1      30.402  42.989  55.135  1.00  0.00     0.007 A 
HETATM   22  C   UNL     1      29.358  43.375  54.292  1.00  0.00     0.017 A 
ENDBRANCH   1  16
TORSDOF 4
ENDMDL
MODEL 10
REMARK VINA RESULT:      -7.2      3.377      8.876
REMARK  4 active torsions:
REMARK  status: ('A' for Active; 'I' for Inactive)
REMARK    1  A    between atoms: C_5  and  C_6 
REMARK       I    between atoms: C_6  and  N_7 
REMARK    2  A    between atoms: N_7  and  C_8 
REMARK    3  A    between atoms: C_8  and  N_9 
REMARK    4  A    between atoms: N_9  and  C_10 
ROOT
HETATM    1  C   UNL     1      23.175  48.924  49.301  1.00  0.00     0.257 C 
HETATM    2  N   UNL     1      22.861  47.568  49.277  1.00  0.00    -0.299 N 
HETATM    3  O   UNL     1      24.293  49.408  49.427  1.00  0.00    -0.267 OA
HETATM    4  H   UNL     1      21.895  47.331  49.065  1.00  0.00     0.171 HD
ENDROOT
BRANCH   2   5
HETATM    5  C   UNL     1      23.652  46.447  49.420  1.00  0.00     0.180 C 
HETATM    6  S   UNL     1      23.219  44.856  49.143  1.00  0.00    -0.040 SA
BRANCH   5   7
HETATM    7  N   UNL     1      24.943  46.666  49.838  1.00  0.00    -0.318 N 
HETATM    8  H   UNL     1      25.543  47.043  49.114  1.00  0.00     0.170 HD
BRANCH   7   9
HETATM    9  C   UNL     1      25.513  46.455  51.099  1.00  0.00     0.129 A 
HETATM   10  N   UNL     1      25.331  47.372  52.077  1.00  0.00    -0.243 NA
HETATM   11  C   UNL     1      25.916  47.127  53.274  1.00  0.00     0.125 A 
HETATM   12  C   UNL     1      26.676  46.001  53.557  1.00  0.00    -0.044 A 
HETATM   13  C   UNL     1      27.327  45.807  54.889  1.00  0.00     0.049 C 
HETATM   14  C   UNL     1      26.851  45.074  52.530  1.00  0.00     0.012 A 
HETATM   15  C   UNL     1      26.261  45.300  51.288  1.00  0.00     0.051 A 
ENDBRANCH   7   9
ENDBRANCH   5   7
ENDBRANCH   2   5
BRANCH   1  16
HETATM   16  C   UNL     1      22.019  49.842  49.094  1.00  0.00     0.032 A 
HETATM   17  C   UNL     1      21.467  50.596  50.137  1.00  0.00     0.017 A 
HETATM   18  C   UNL     1      20.364  51.422  49.895  1.00  0.00     0.007 A 
HETATM   19  C   UNL     1      19.803  51.504  48.615  1.00  0.00    -0.062 A 
HETATM   20  C   UNL     1      18.633  52.404  48.346  1.00  0.00     0.048 C 
HETATM   21  C   UNL     1      20.384  50.779  47.567  1.00  0.00     0.007 A 
HETATM   22  C   UNL     1      21.486  49.955  47.805  1.00  0.00     0.017 A 
ENDBRANCH   1  16
TORSDOF 4
ENDMDL
