MODEL 1
REMARK VINA RESULT:      -8.8      0.000      0.000
REMARK  3 active torsions:
REMARK  status: ('A' for Active; 'I' for Inactive)
REMARK    1  A    between atoms: C_4  and  N_5 
REMARK       I    between atoms: N_5  and  C_6 
REMARK    2  A    between atoms: C_6  and  C_7 
REMARK    3  A    between atoms: C_7  and  C_8 
ROOT
HETATM    1  C   UNL     1      26.875  44.588  52.068  1.00  0.00     0.286 C 
HETATM    2  N   UNL     1      27.827  45.062  53.160  1.00  0.00    -0.056 N 
HETATM    3  H   UNL     1      28.790  44.948  52.823  1.00  0.00     0.278 HD
HETATM    4  H   UNL     1      27.696  46.093  53.263  1.00  0.00     0.278 HD
HETATM    5  C   UNL     1      27.636  44.397  54.495  1.00  0.00     0.209 C 
HETATM    6  C   UNL     1      27.790  42.869  54.306  1.00  0.00     0.115 C 
HETATM    7  N   UNL     1      26.953  42.371  53.214  1.00  0.00    -0.353 N 
HETATM    8  C   UNL     1      26.687  43.059  52.057  1.00  0.00     0.249 C 
HETATM    9  O   UNL     1      26.214  42.475  51.088  1.00  0.00    -0.271 OA
HETATM   10  C   UNL     1      28.638  44.978  55.492  1.00  0.00     0.035 C 
HETATM   11  C   UNL     1      30.077  44.540  55.230  1.00  0.00     0.002 C 
HETATM   12  C   UNL     1      30.188  43.023  55.128  1.00  0.00     0.002 C 
HETATM   13  C   UNL     1      29.250  42.458  54.066  1.00  0.00     0.027 C 
HETATM   14  H   UNL     1      26.798  41.367  53.142  1.00  0.00     0.163 HD
ENDROOT
BRANCH   1  15
HETATM   15  C   UNL     1      25.487  45.240  52.160  1.00  0.00     0.146 C 
BRANCH  15  16
HETATM   16  C   UNL     1      25.495  46.671  51.682  1.00  0.00     0.224 C 
HETATM   17  N   UNL     1      25.831  46.821  50.359  1.00  0.00    -0.327 N 
HETATM   18  H   UNL     1      26.267  46.041  49.879  1.00  0.00     0.169 HD
HETATM   19  O   UNL     1      25.171  47.561  52.469  1.00  0.00    -0.273 OA
BRANCH  17  20
HETATM   20  C   UNL     1      25.727  48.004  49.593  1.00  0.00     0.035 A 
HETATM   21  C   UNL     1      24.513  48.520  49.128  1.00  0.00     0.036 A 
HETATM   22  C   UNL     1      24.482  49.669  48.322  1.00  0.00    -0.060 A 
HETATM   23  C   UNL     1      23.175  50.210  47.819  1.00  0.00     0.048 C 
HETATM   24  C   UNL     1      25.678  50.330  48.025  1.00  0.00     0.007 A 
HETATM   25  C   UNL     1      26.891  49.824  48.487  1.00  0.00     0.003 A 
HETATM   26  C   UNL     1      26.917  48.659  49.255  1.00  0.00     0.029 A 
ENDBRANCH  17  20
ENDBRANCH  15  16
ENDBRANCH   1  15
TORSDOF 3
ENDMDL
MODEL 2
REMARK VINA RESULT:      -8.7      3.476      7.288
REMARK  3 active torsions:
REMARK  status: ('A' for Active; 'I' for Inactive)
REMARK    1  A    between atoms: C_4  and  N_5 
REMARK       I    between atoms: N_5  and  C_6 
REMARK    2  A    between atoms: C_6  and  C_7 
REMARK    3  A    between atoms: C_7  and  C_8 
ROOT
HETATM    1  C   UNL     1      26.811  41.355  50.979  1.00  0.00     0.286 C 
HETATM    2  N   UNL     1      26.242  42.601  51.648  1.00  0.00    -0.056 N 
HETATM    3  H   UNL     1      25.218  42.525  51.660  1.00  0.00     0.278 HD
HETATM    4  H   UNL     1      26.528  42.576  52.652  1.00  0.00     0.278 HD
HETATM    5  C   UNL     1      26.683  43.902  51.036  1.00  0.00     0.209 C 
HETATM    6  C   UNL     1      26.288  43.896  49.539  1.00  0.00     0.115 C 
HETATM    7  N   UNL     1      26.743  42.681  48.864  1.00  0.00    -0.353 N 
HETATM    8  C   UNL     1      26.789  41.436  49.441  1.00  0.00     0.249 C 
HETATM    9  O   UNL     1      26.917  40.437  48.742  1.00  0.00    -0.271 OA
HETATM   10  C   UNL     1      26.056  45.060  51.812  1.00  0.00     0.035 C 
HETATM   11  C   UNL     1      24.553  45.202  51.579  1.00  0.00     0.002 C 
HETATM   12  C   UNL     1      24.223  45.268  50.092  1.00  0.00     0.002 C 
HETATM   13  C   UNL     1      24.774  44.062  49.337  1.00  0.00     0.027 C 
HETATM   14  H   UNL     1      26.742  42.663  47.846  1.00  0.00     0.163 HD
ENDROOT
BRANCH   1  15
HETATM   15  C   UNL     1      28.248  41.042  51.421  1.00  0.00     0.146 C 
BRANCH  15  16
HETATM   16  C   UNL     1      28.531  41.520  52.825  1.00  0.00     0.224 C 
HETATM   17  N   UNL     1      29.397  42.584  52.893  1.00  0.00    -0.327 N 
HETATM   18  H   UNL     1      29.951  42.810  52.074  1.00  0.00     0.169 HD
HETATM   19  O   UNL     1      27.957  40.971  53.766  1.00  0.00    -0.273 OA
BRANCH  17  20
HETATM   20  C   UNL     1      29.687  43.362  54.037  1.00  0.00     0.035 A 
HETATM   21  C   UNL     1      30.669  43.023  54.973  1.00  0.00     0.036 A 
HETATM   22  C   UNL     1      30.869  43.808  56.120  1.00  0.00    -0.060 A 
HETATM   23  C   UNL     1      31.919  43.432  57.125  1.00  0.00     0.048 C 
HETATM   24  C   UNL     1      30.107  44.966  56.299  1.00  0.00     0.007 A 
HETATM   25  C   UNL     1      29.128  45.312  55.370  1.00  0.00     0.003 A 
HETATM   26  C   UNL     1      28.910  44.505  54.251  1.00  0.00     0.029 A 
ENDBRANCH  17  20
ENDBRANCH  15  16
ENDBRANCH   1  15
TORSDOF 3
ENDMDL
MODEL 3
REMARK VINA RESULT:      -8.6      3.608      7.404
REMARK  3 active torsions:
REMARK  status: ('A' for Active; 'I' for Inactive)
REMARK    1  A    between atoms: C_4  and  N_5 
REMARK       I    between atoms: N_5  and  C_6 
REMARK    2  A    between atoms: C_6  and  C_7 
REMARK    3  A    between atoms: C_7  and  C_8 
ROOT
HETATM    1  C   UNL     1      27.576  43.801  51.189  1.00  0.00     0.286 C 
HETATM    2  N   UNL     1      27.456  42.281  51.212  1.00  0.00    -0.056 N 
HETATM    3  H   UNL     1      28.252  41.884  50.699  1.00  0.00     0.278 HD
HETATM    4  H   UNL     1      27.588  41.971  52.200  1.00  0.00     0.278 HD
HETATM    5  C   UNL     1      26.151  41.744  50.690  1.00  0.00     0.209 C 
HETATM    6  C   UNL     1      25.958  42.254  49.242  1.00  0.00     0.115 C 
HETATM    7  N   UNL     1      26.141  43.703  49.149  1.00  0.00    -0.353 N 
HETATM    8  C   UNL     1      27.045  44.426  49.886  1.00  0.00     0.249 C 
HETATM    9  O   UNL     1      27.329  45.573  49.561  1.00  0.00    -0.271 OA
HETATM   10  C   UNL     1      26.161  40.219  50.788  1.00  0.00     0.035 C 
HETATM   11  C   UNL     1      27.095  39.554  49.779  1.00  0.00     0.002 C 
HETATM   12  C   UNL     1      26.813  40.032  48.359  1.00  0.00     0.002 C 
HETATM   13  C   UNL     1      26.896  41.551  48.249  1.00  0.00     0.027 C 
HETATM   14  H   UNL     1      25.822  44.178  48.306  1.00  0.00     0.163 HD
ENDROOT
BRANCH   1  15
HETATM   15  C   UNL     1      26.862  44.474  52.370  1.00  0.00     0.146 C 
BRANCH  15  16
HETATM   16  C   UNL     1      27.506  44.143  53.694  1.00  0.00     0.224 C 
HETATM   17  N   UNL     1      28.597  44.920  53.999  1.00  0.00    -0.327 N 
HETATM   18  H   UNL     1      29.026  45.463  53.258  1.00  0.00     0.169 HD
HETATM   19  O   UNL     1      27.003  43.264  54.395  1.00  0.00    -0.273 OA
BRANCH  17  20
HETATM   20  C   UNL     1      29.270  44.975  55.241  1.00  0.00     0.035 A 
HETATM   21  C   UNL     1      30.333  44.133  55.582  1.00  0.00     0.036 A 
HETATM   22  C   UNL     1      30.922  44.199  56.854  1.00  0.00    -0.060 A 
HETATM   23  C   UNL     1      32.057  43.284  57.215  1.00  0.00     0.048 C 
HETATM   24  C   UNL     1      30.469  45.153  57.770  1.00  0.00     0.007 A 
HETATM   25  C   UNL     1      29.412  45.998  57.437  1.00  0.00     0.003 A 
HETATM   26  C   UNL     1      28.806  45.900  56.183  1.00  0.00     0.029 A 
ENDBRANCH  17  20
ENDBRANCH  15  16
ENDBRANCH   1  15
TORSDOF 3
ENDMDL
MODEL 4
REMARK VINA RESULT:      -8.5      2.710      7.351
REMARK  3 active torsions:
REMARK  status: ('A' for Active; 'I' for Inactive)
REMARK    1  A    between atoms: C_4  and  N_5 
REMARK       I    between atoms: N_5  and  C_6 
REMARK    2  A    between atoms: C_6  and  C_7 
REMARK    3  A    between atoms: C_7  and  C_8 
ROOT
HETATM    1  C   UNL     1      26.087  45.827  51.780  1.00  0.00     0.286 C 
HETATM    2  N   UNL     1      26.186  44.361  51.374  1.00  0.00    -0.056 N 
HETATM    3  H   UNL     1      26.726  44.301  50.502  1.00  0.00     0.278 HD
HETATM    4  H   UNL     1      26.771  43.876  52.089  1.00  0.00     0.278 HD
HETATM    5  C   UNL     1      24.865  43.653  51.244  1.00  0.00     0.209 C 
HETATM    6  C   UNL     1      24.000  44.416  50.212  1.00  0.00     0.115 C 
HETATM    7  N   UNL     1      23.937  45.846  50.512  1.00  0.00    -0.353 N 
HETATM    8  C   UNL     1      24.969  46.582  51.038  1.00  0.00     0.249 C 
HETATM    9  O   UNL     1      24.933  47.807  51.003  1.00  0.00    -0.271 OA
HETATM   10  C   UNL     1      25.113  42.196  50.853  1.00  0.00     0.035 C 
HETATM   11  C   UNL     1      25.596  42.030  49.413  1.00  0.00     0.002 C 
HETATM   12  C   UNL     1      24.669  42.735  48.429  1.00  0.00     0.002 C 
HETATM   13  C   UNL     1      24.498  44.212  48.774  1.00  0.00     0.027 C 
HETATM   14  H   UNL     1      23.226  46.408  50.045  1.00  0.00     0.163 HD
ENDROOT
BRANCH   1  15
HETATM   15  C   UNL     1      25.873  46.015  53.289  1.00  0.00     0.146 C 
BRANCH  15  16
HETATM   16  C   UNL     1      26.752  45.104  54.110  1.00  0.00     0.224 C 
HETATM   17  N   UNL     1      28.049  45.537  54.236  1.00  0.00    -0.327 N 
HETATM   18  H   UNL     1      28.381  46.261  53.608  1.00  0.00     0.169 HD
HETATM   19  O   UNL     1      26.253  44.101  54.622  1.00  0.00    -0.273 OA
BRANCH  17  20
HETATM   20  C   UNL     1      29.034  45.005  55.100  1.00  0.00     0.035 A 
HETATM   21  C   UNL     1      29.403  45.600  56.311  1.00  0.00     0.036 A 
HETATM   22  C   UNL     1      30.429  45.053  57.096  1.00  0.00    -0.060 A 
HETATM   23  C   UNL     1      30.826  45.704  58.390  1.00  0.00     0.048 C 
HETATM   24  C   UNL     1      31.053  43.873  56.683  1.00  0.00     0.007 A 
HETATM   25  C   UNL     1      30.690  43.272  55.479  1.00  0.00     0.003 A 
HETATM   26  C   UNL     1      29.695  43.844  54.685  1.00  0.00     0.029 A 
ENDBRANCH  17  20
ENDBRANCH  15  16
ENDBRANCH   1  15
TORSDOF 3
ENDMDL
MODEL 5
REMARK VINA RESULT:      -8.3      5.247      7.705
REMARK  3 active torsions:
REMARK  status: ('A' for Active; 'I' for Inactive)
REMARK    1  A    between atoms: C_4  and  N_5 
REMARK       I    between atoms: N_5  and  C_6 
REMARK    2  A    between atoms: C_6  and  C_7 
REMARK    3  A    between atoms: C_7  and  C_8 
ROOT
HETATM    1  C   UNL     1      27.526  41.349  50.649  1.00  0.00     0.286 C 
HETATM    2  N   UNL     1      28.695  40.414  50.356  1.00  0.00    -0.056 N 
HETATM    3  H   UNL     1      29.079  40.653  49.434  1.00  0.00     0.278 HD
HETATM    4  H   UNL     1      29.455  40.642  51.034  1.00  0.00     0.278 HD
HETATM    5  C   UNL     1      28.367  38.949  50.445  1.00  0.00     0.209 C 
HETATM    6  C   UNL     1      27.208  38.647  49.465  1.00  0.00     0.115 C 
HETATM    7  N   UNL     1      26.088  39.569  49.651  1.00  0.00    -0.353 N 
HETATM    8  C   UNL     1      26.212  40.893  49.987  1.00  0.00     0.249 C 
HETATM    9  O   UNL     1      25.260  41.655  49.856  1.00  0.00    -0.271 OA
HETATM   10  C   UNL     1      29.627  38.135  50.147  1.00  0.00     0.035 C 
HETATM   11  C   UNL     1      30.044  38.181  48.679  1.00  0.00     0.002 C 
HETATM   12  C   UNL     1      28.889  37.802  47.759  1.00  0.00     0.002 C 
HETATM   13  C   UNL     1      27.665  38.679  47.998  1.00  0.00     0.027 C 
HETATM   14  H   UNL     1      25.192  39.333  49.228  1.00  0.00     0.163 HD
ENDROOT
BRANCH   1  15
HETATM   15  C   UNL     1      27.268  41.528  52.153  1.00  0.00     0.146 C 
BRANCH  15  16
HETATM   16  C   UNL     1      28.433  42.175  52.860  1.00  0.00     0.224 C 
HETATM   17  N   UNL     1      28.096  43.276  53.609  1.00  0.00    -0.327 N 
HETATM   18  H   UNL     1      27.192  43.708  53.454  1.00  0.00     0.169 HD
HETATM   19  O   UNL     1      29.549  41.666  52.754  1.00  0.00    -0.273 OA
BRANCH  17  20
HETATM   20  C   UNL     1      28.927  43.956  54.528  1.00  0.00     0.035 A 
HETATM   21  C   UNL     1      29.976  43.343  55.221  1.00  0.00     0.036 A 
HETATM   22  C   UNL     1      30.729  44.059  56.164  1.00  0.00    -0.060 A 
HETATM   23  C   UNL     1      31.847  43.391  56.912  1.00  0.00     0.048 C 
HETATM   24  C   UNL     1      30.455  45.414  56.374  1.00  0.00     0.007 A 
HETATM   25  C   UNL     1      29.414  46.033  55.686  1.00  0.00     0.003 A 
HETATM   26  C   UNL     1      28.645  45.303  54.777  1.00  0.00     0.029 A 
ENDBRANCH  17  20
ENDBRANCH  15  16
ENDBRANCH   1  15
TORSDOF 3
ENDMDL
MODEL 6
REMARK VINA RESULT:      -8.3      5.199      7.617
REMARK  3 active torsions:
REMARK  status: ('A' for Active; 'I' for Inactive)
REMARK    1  A    between atoms: C_4  and  N_5 
REMARK       I    between atoms: N_5  and  C_6 
REMARK    2  A    between atoms: C_6  and  C_7 
REMARK    3  A    between atoms: C_7  and  C_8 
ROOT
HETATM    1  C   UNL     1      28.064  40.908  50.561  1.00  0.00     0.286 C 
HETATM    2  N   UNL     1      28.825  39.972  49.629  1.00  0.00    -0.056 N 
HETATM    3  H   UNL     1      28.712  40.309  48.666  1.00  0.00     0.278 HD
HETATM    4  H   UNL     1      29.842  40.082  49.837  1.00  0.00     0.278 HD
HETATM    5  C   UNL     1      28.445  38.521  49.746  1.00  0.00     0.209 C 
HETATM    6  C   UNL     1      26.926  38.391  49.477  1.00  0.00     0.115 C 
HETATM    7  N   UNL     1      26.151  39.326  50.292  1.00  0.00    -0.353 N 
HETATM    8  C   UNL     1      26.558  40.592  50.630  1.00  0.00     0.249 C 
HETATM    9  O   UNL     1      25.750  41.402  51.074  1.00  0.00    -0.271 OA
HETATM   10  C   UNL     1      29.294  37.701  48.774  1.00  0.00     0.035 C 
HETATM   11  C   UNL     1      28.914  37.914  47.311  1.00  0.00     0.002 C 
HETATM   12  C   UNL     1      27.422  37.699  47.084  1.00  0.00     0.002 C 
HETATM   13  C   UNL     1      26.580  38.588  47.994  1.00  0.00     0.027 C 
HETATM   14  H   UNL     1      25.146  39.182  50.370  1.00  0.00     0.163 HD
ENDROOT
BRANCH   1  15
HETATM   15  C   UNL     1      28.619  40.908  51.992  1.00  0.00     0.146 C 
BRANCH  15  16
HETATM   16  C   UNL     1      28.746  42.302  52.557  1.00  0.00     0.224 C 
HETATM   17  N   UNL     1      28.928  42.343  53.918  1.00  0.00    -0.327 N 
HETATM   18  H   UNL     1      28.731  41.508  54.458  1.00  0.00     0.169 HD
HETATM   19  O   UNL     1      28.720  43.260  51.784  1.00  0.00    -0.273 OA
BRANCH  17  20
HETATM   20  C   UNL     1      29.275  43.478  54.687  1.00  0.00     0.035 A 
HETATM   21  C   UNL     1      28.474  44.620  54.783  1.00  0.00     0.036 A 
HETATM   22  C   UNL     1      28.902  45.738  55.517  1.00  0.00    -0.060 A 
HETATM   23  C   UNL     1      28.040  46.964  55.607  1.00  0.00     0.048 C 
HETATM   24  C   UNL     1      30.121  45.684  56.197  1.00  0.00     0.007 A 
HETATM   25  C   UNL     1      30.924  44.549  56.109  1.00  0.00     0.003 A 
HETATM   26  C   UNL     1      30.509  43.457  55.345  1.00  0.00     0.029 A 
ENDBRANCH  17  20
ENDBRANCH  15  16
ENDBRANCH   1  15
TORSDOF 3
ENDMDL
MODEL 7
REMARK VINA RESULT:      -8.3      1.976      7.427
REMARK  3 active torsions:
REMARK  status: ('A' for Active; 'I' for Inactive)
REMARK    1  A    between atoms: C_4  and  N_5 
REMARK       I    between atoms: N_5  and  C_6 
REMARK    2  A    between atoms: C_6  and  C_7 
REMARK    3  A    between atoms: C_7  and  C_8 
ROOT
HETATM    1  C   UNL     1      25.870  44.240  51.914  1.00  0.00     0.286 C 
HETATM    2  N   UNL     1      26.315  45.617  51.434  1.00  0.00    -0.056 N 
HETATM    3  H   UNL     1      25.672  46.318  51.819  1.00  0.00     0.278 HD
HETATM    4  H   UNL     1      27.237  45.821  51.879  1.00  0.00     0.278 HD
HETATM    5  C   UNL     1      26.439  45.754  49.941  1.00  0.00     0.209 C 
HETATM    6  C   UNL     1      25.074  45.403  49.303  1.00  0.00     0.115 C 
HETATM    7  N   UNL     1      24.562  44.122  49.791  1.00  0.00    -0.353 N 
HETATM    8  C   UNL     1      24.726  43.650  51.069  1.00  0.00     0.249 C 
HETATM    9  O   UNL     1      24.044  42.714  51.472  1.00  0.00    -0.271 OA
HETATM   10  C   UNL     1      26.908  47.170  49.605  1.00  0.00     0.035 C 
HETATM   11  C   UNL     1      25.836  48.233  49.838  1.00  0.00     0.002 C 
HETATM   12  C   UNL     1      24.535  47.878  49.126  1.00  0.00     0.002 C 
HETATM   13  C   UNL     1      24.025  46.500  49.536  1.00  0.00     0.027 C 
HETATM   14  H   UNL     1      23.795  43.683  49.284  1.00  0.00     0.163 HD
ENDROOT
BRANCH   1  15
HETATM   15  C   UNL     1      27.017  43.219  51.946  1.00  0.00     0.146 C 
BRANCH  15  16
HETATM   16  C   UNL     1      27.700  43.167  53.290  1.00  0.00     0.224 C 
HETATM   17  N   UNL     1      28.652  44.139  53.476  1.00  0.00    -0.327 N 
HETATM   18  H   UNL     1      28.994  44.643  52.665  1.00  0.00     0.169 HD
HETATM   19  O   UNL     1      27.340  42.318  54.107  1.00  0.00    -0.273 OA
BRANCH  17  20
HETATM   20  C   UNL     1      29.302  44.460  54.690  1.00  0.00     0.035 A 
HETATM   21  C   UNL     1      30.333  43.691  55.241  1.00  0.00     0.036 A 
HETATM   22  C   UNL     1      30.899  44.031  56.479  1.00  0.00    -0.060 A 
HETATM   23  C   UNL     1      31.999  43.195  57.068  1.00  0.00     0.048 C 
HETATM   24  C   UNL     1      30.457  45.180  57.142  1.00  0.00     0.007 A 
HETATM   25  C   UNL     1      29.433  45.952  56.599  1.00  0.00     0.003 A 
HETATM   26  C   UNL     1      28.849  45.585  55.386  1.00  0.00     0.029 A 
ENDBRANCH  17  20
ENDBRANCH  15  16
ENDBRANCH   1  15
TORSDOF 3
ENDMDL
MODEL 8
REMARK VINA RESULT:      -8.1      2.674      7.687
REMARK  3 active torsions:
REMARK  status: ('A' for Active; 'I' for Inactive)
REMARK    1  A    between atoms: C_4  and  N_5 
REMARK       I    between atoms: N_5  and  C_6 
REMARK    2  A    between atoms: C_6  and  C_7 
REMARK    3  A    between atoms: C_7  and  C_8 
ROOT
HETATM    1  C   UNL     1      25.711  44.722  52.488  1.00  0.00     0.286 C 
HETATM    2  N   UNL     1      24.612  45.344  51.634  1.00  0.00    -0.056 N 
HETATM    3  H   UNL     1      23.881  44.639  51.481  1.00  0.00     0.278 HD
HETATM    4  H   UNL     1      24.156  46.089  52.206  1.00  0.00     0.278 HD
HETATM    5  C   UNL     1      25.083  45.931  50.332  1.00  0.00     0.209 C 
HETATM    6  C   UNL     1      25.795  44.819  49.524  1.00  0.00     0.115 C 
HETATM    7  N   UNL     1      26.810  44.134  50.325  1.00  0.00    -0.353 N 
HETATM    8  C   UNL     1      26.703  43.876  51.668  1.00  0.00     0.249 C 
HETATM    9  O   UNL     1      27.455  43.068  52.202  1.00  0.00    -0.271 OA
HETATM   10  C   UNL     1      23.888  46.532  49.592  1.00  0.00     0.035 C 
HETATM   11  C   UNL     1      22.933  45.482  49.030  1.00  0.00     0.002 C 
HETATM   12  C   UNL     1      23.671  44.454  48.180  1.00  0.00     0.002 C 
HETATM   13  C   UNL     1      24.806  43.791  48.955  1.00  0.00     0.027 C 
HETATM   14  H   UNL     1      27.490  43.547  49.845  1.00  0.00     0.163 HD
ENDROOT
BRANCH   1  15
HETATM   15  C   UNL     1      26.513  45.763  53.282  1.00  0.00     0.146 C 
BRANCH  15  16
HETATM   16  C   UNL     1      27.214  45.159  54.474  1.00  0.00     0.224 C 
HETATM   17  N   UNL     1      28.490  45.628  54.674  1.00  0.00    -0.327 N 
HETATM   18  H   UNL     1      28.945  46.130  53.919  1.00  0.00     0.169 HD
HETATM   19  O   UNL     1      26.603  44.354  55.177  1.00  0.00    -0.273 OA
BRANCH  17  20
HETATM   20  C   UNL     1      29.302  45.400  55.808  1.00  0.00     0.035 A 
HETATM   21  C   UNL     1      30.302  44.423  55.859  1.00  0.00     0.036 A 
HETATM   22  C   UNL     1      31.035  44.207  57.036  1.00  0.00    -0.060 A 
HETATM   23  C   UNL     1      32.100  43.149  57.085  1.00  0.00     0.048 C 
HETATM   24  C   UNL     1      30.794  45.014  58.151  1.00  0.00     0.007 A 
HETATM   25  C   UNL     1      29.802  45.991  58.109  1.00  0.00     0.003 A 
HETATM   26  C   UNL     1      29.050  46.173  56.947  1.00  0.00     0.029 A 
ENDBRANCH  17  20
ENDBRANCH  15  16
ENDBRANCH   1  15
TORSDOF 3
ENDMDL
MODEL 9
REMARK VINA RESULT:      -7.7      4.767      6.971
REMARK  3 active torsions:
REMARK  status: ('A' for Active; 'I' for Inactive)
REMARK    1  A    between atoms: C_4  and  N_5 
REMARK       I    between atoms: N_5  and  C_6 
REMARK    2  A    between atoms: C_6  and  C_7 
REMARK    3  A    between atoms: C_7  and  C_8 
ROOT
HETATM    1  C   UNL     1      27.828  44.122  54.582  1.00  0.00     0.286 C 
HETATM    2  N   UNL     1      29.039  43.658  55.385  1.00  0.00    -0.056 N 
HETATM    3  H   UNL     1      28.733  43.455  56.345  1.00  0.00     0.278 HD
HETATM    4  H   UNL     1      29.339  42.737  54.996  1.00  0.00     0.278 HD
HETATM    5  C   UNL     1      30.203  44.609  55.375  1.00  0.00     0.209 C 
HETATM    6  C   UNL     1      29.721  45.978  55.915  1.00  0.00     0.115 C 
HETATM    7  N   UNL     1      28.512  46.434  55.229  1.00  0.00    -0.353 N 
HETATM    8  C   UNL     1      27.504  45.612  54.792  1.00  0.00     0.249 C 
HETATM    9  O   UNL     1      26.416  46.084  54.480  1.00  0.00    -0.271 OA
HETATM   10  C   UNL     1      31.345  44.013  56.199  1.00  0.00     0.035 C 
HETATM   11  C   UNL     1      31.071  44.013  57.701  1.00  0.00     0.002 C 
HETATM   12  C   UNL     1      30.674  45.399  58.197  1.00  0.00     0.002 C 
HETATM   13  C   UNL     1      29.476  45.950  57.431  1.00  0.00     0.027 C 
HETATM   14  H   UNL     1      28.233  47.408  55.336  1.00  0.00     0.163 HD
ENDROOT
BRANCH   1  15
HETATM   15  C   UNL     1      27.981  43.872  53.075  1.00  0.00     0.146 C 
BRANCH  15  16
HETATM   16  C   UNL     1      27.770  42.422  52.710  1.00  0.00     0.224 C 
HETATM   17  N   UNL     1      27.672  42.190  51.360  1.00  0.00    -0.327 N 
HETATM   18  H   UNL     1      27.508  42.979  50.744  1.00  0.00     0.169 HD
HETATM   19  O   UNL     1      27.744  41.582  53.610  1.00  0.00    -0.273 OA
BRANCH  17  20
HETATM   20  C   UNL     1      27.675  40.930  50.721  1.00  0.00     0.035 A 
HETATM   21  C   UNL     1      28.756  40.043  50.766  1.00  0.00     0.036 A 
HETATM   22  C   UNL     1      28.719  38.830  50.061  1.00  0.00    -0.060 A 
HETATM   23  C   UNL     1      29.888  37.888  50.106  1.00  0.00     0.048 C 
HETATM   24  C   UNL     1      27.568  38.487  49.347  1.00  0.00     0.007 A 
HETATM   25  C   UNL     1      26.486  39.363  49.299  1.00  0.00     0.003 A 
HETATM   26  C   UNL     1      26.545  40.585  49.971  1.00  0.00     0.029 A 
ENDBRANCH  17  20
ENDBRANCH  15  16
ENDBRANCH   1  15
TORSDOF 3
ENDMDL
MODEL 10
REMARK VINA RESULT:      -7.7      4.911     10.067
REMARK  3 active torsions:
REMARK  status: ('A' for Active; 'I' for Inactive)
REMARK    1  A    between atoms: C_4  and  N_5 
REMARK       I    between atoms: N_5  and  C_6 
REMARK    2  A    between atoms: C_6  and  C_7 
REMARK    3  A    between atoms: C_7  and  C_8 
ROOT
HETATM    1  C   UNL     1      20.009  49.584  48.394  1.00  0.00     0.286 C 
HETATM    2  N   UNL     1      18.599  49.654  47.818  1.00  0.00    -0.056 N 
HETATM    3  H   UNL     1      18.534  50.486  47.220  1.00  0.00     0.278 HD
HETATM    4  H   UNL     1      18.485  48.844  47.169  1.00  0.00     0.278 HD
HETATM    5  C   UNL     1      17.498  49.633  48.842  1.00  0.00     0.209 C 
HETATM    6  C   UNL     1      17.715  50.815  49.817  1.00  0.00     0.115 C 
HETATM    7  N   UNL     1      19.081  50.841  50.341  1.00  0.00    -0.353 N 
HETATM    8  C   UNL     1      20.199  50.483  49.629  1.00  0.00     0.249 C 
HETATM    9  O   UNL     1      21.313  50.789  50.038  1.00  0.00    -0.271 OA
HETATM   10  C   UNL     1      16.148  49.690  48.128  1.00  0.00     0.035 C 
HETATM   11  C   UNL     1      15.848  51.053  47.508  1.00  0.00     0.002 C 
HETATM   12  C   UNL     1      16.002  52.176  48.528  1.00  0.00     0.002 C 
HETATM   13  C   UNL     1      17.385  52.169  49.171  1.00  0.00     0.027 C 
HETATM   14  H   UNL     1      19.278  51.425  51.151  1.00  0.00     0.163 HD
ENDROOT
BRANCH   1  15
HETATM   15  C   UNL     1      20.429  48.156  48.772  1.00  0.00     0.146 C 
BRANCH  15  16
HETATM   16  C   UNL     1      21.881  47.885  48.462  1.00  0.00     0.224 C 
HETATM   17  N   UNL     1      22.726  48.055  49.532  1.00  0.00    -0.327 N 
HETATM   18  H   UNL     1      22.383  48.557  50.344  1.00  0.00     0.169 HD
HETATM   19  O   UNL     1      22.187  47.508  47.331  1.00  0.00    -0.273 OA
BRANCH  17  20
HETATM   20  C   UNL     1      24.089  47.684  49.596  1.00  0.00     0.035 A 
HETATM   21  C   UNL     1      25.143  48.576  49.373  1.00  0.00     0.036 A 
HETATM   22  C   UNL     1      26.474  48.133  49.393  1.00  0.00    -0.060 A 
HETATM   23  C   UNL     1      27.600  49.095  49.143  1.00  0.00     0.048 C 
HETATM   24  C   UNL     1      26.747  46.794  49.689  1.00  0.00     0.007 A 
HETATM   25  C   UNL     1      25.703  45.900  49.915  1.00  0.00     0.003 A 
HETATM   26  C   UNL     1      24.379  46.341  49.855  1.00  0.00     0.029 A 
ENDBRANCH  17  20
ENDBRANCH  15  16
ENDBRANCH   1  15
TORSDOF 3
ENDMDL
