MODEL 1
REMARK VINA RESULT:      -8.9      0.000      0.000
REMARK  7 active torsions:
REMARK  status: ('A' for Active; 'I' for Inactive)
REMARK    1  A    between atoms: C_4  and  C_5 
REMARK    2  A    between atoms: C_5  and  N_6 
REMARK       I    between atoms: N_6  and  C_7 
REMARK    3  A    between atoms: N_6  and  C_22 
REMARK    4  A    between atoms: C_7  and  C_8 
REMARK    5  A    between atoms: C_13  and  C_14 
REMARK    6  A    between atoms: C_15  and  O_16 
REMARK    7  A    between atoms: C_22  and  C_23 
ROOT
HETATM    1  N   UNL     1      25.797  46.186  50.732  1.00  0.00    -0.343 N 
HETATM    2  C   UNL     1      26.360  45.158  49.985  1.00  0.00     0.235 C 
HETATM    3  O   UNL     1      27.305  45.368  49.211  1.00  0.00    -0.272 OA
ENDROOT
BRANCH   2   4
HETATM    4  C   UNL     1      25.837  43.749  50.116  1.00  0.00     0.195 C 
HETATM    5  C   UNL     1      24.963  43.340  48.968  1.00  0.00     0.247 C 
HETATM    6  O   UNL     1      24.168  44.024  48.345  1.00  0.00    -0.271 OA
HETATM    7  N   UNL     1      25.209  41.996  48.733  1.00  0.00    -0.290 N 
HETATM    8  N   UNL     1      26.301  41.504  49.453  1.00  0.00    -0.228 NA
HETATM    9  H   UNL     1      24.748  41.503  47.974  1.00  0.00     0.183 HD
HETATM   10  C   UNL     1      26.976  42.726  49.963  1.00  0.00     0.134 C 
HETATM   11  H   UNL     1      26.948  41.012  48.829  1.00  0.00     0.147 HD
BRANCH  10  12
HETATM   12  C   UNL     1      27.737  42.525  51.257  1.00  0.00    -0.004 A 
HETATM   13  C   UNL     1      27.513  41.419  52.092  1.00  0.00     0.073 A 
HETATM   14  C   UNL     1      28.248  41.247  53.267  1.00  0.00     0.037 A 
HETATM   15  C   UNL     1      29.231  42.167  53.626  1.00  0.00     0.003 A 
HETATM   16  C   UNL     1      29.480  43.262  52.808  1.00  0.00     0.001 A 
HETATM   17  C   UNL     1      28.744  43.436  51.634  1.00  0.00     0.012 A 
BRANCH  13  18
HETATM   18  O   UNL     1      26.588  40.440  51.852  1.00  0.00    -0.360 OA
HETATM   19  H   UNL     1      25.832  40.464  52.469  1.00  0.00     0.217 HD
ENDBRANCH  13  18
ENDBRANCH  10  12
ENDBRANCH   2   4
BRANCH   1  20
HETATM   20  C   UNL     1      26.346  47.533  50.537  1.00  0.00     0.164 C 
BRANCH  20  21
HETATM   21  C   UNL     1      25.552  48.362  49.558  1.00  0.00    -0.040 A 
HETATM   22  C   UNL     1      24.157  48.237  49.487  1.00  0.00     0.009 A 
HETATM   23  C   UNL     1      23.415  49.048  48.625  1.00  0.00     0.001 A 
HETATM   24  C   UNL     1      24.059  49.992  47.827  1.00  0.00     0.000 A 
HETATM   25  C   UNL     1      25.443  50.131  47.892  1.00  0.00     0.001 A 
HETATM   26  C   UNL     1      26.184  49.328  48.760  1.00  0.00     0.009 A 
ENDBRANCH  20  21
ENDBRANCH   1  20
BRANCH   1  27
HETATM   27  C   UNL     1      25.044  45.981  51.976  1.00  0.00     0.164 C 
BRANCH  27  28
HETATM   28  C   UNL     1      25.819  45.519  53.184  1.00  0.00    -0.040 A 
HETATM   29  C   UNL     1      25.508  44.279  53.770  1.00  0.00     0.009 A 
HETATM   30  C   UNL     1      26.219  43.809  54.875  1.00  0.00     0.001 A 
HETATM   31  C   UNL     1      27.261  44.567  55.403  1.00  0.00     0.000 A 
HETATM   32  C   UNL     1      27.597  45.786  54.818  1.00  0.00     0.001 A 
HETATM   33  C   UNL     1      26.888  46.254  53.710  1.00  0.00     0.009 A 
ENDBRANCH  27  28
ENDBRANCH   1  27
TORSDOF 7
ENDMDL
MODEL 2
REMARK VINA RESULT:      -8.8      2.618      5.858
REMARK  7 active torsions:
REMARK  status: ('A' for Active; 'I' for Inactive)
REMARK    1  A    between atoms: C_4  and  C_5 
REMARK    2  A    between atoms: C_5  and  N_6 
REMARK       I    between atoms: N_6  and  C_7 
REMARK    3  A    between atoms: N_6  and  C_22 
REMARK    4  A    between atoms: C_7  and  C_8 
REMARK    5  A    between atoms: C_13  and  C_14 
REMARK    6  A    between atoms: C_15  and  O_16 
REMARK    7  A    between atoms: C_22  and  C_23 
ROOT
HETATM    1  N   UNL     1      25.280  45.534  51.659  1.00  0.00    -0.343 N 
HETATM    2  C   UNL     1      25.571  45.473  53.017  1.00  0.00     0.235 C 
HETATM    3  O   UNL     1      24.930  44.736  53.780  1.00  0.00    -0.272 OA
ENDROOT
BRANCH   2   4
HETATM    4  C   UNL     1      26.695  46.299  53.592  1.00  0.00     0.195 C 
HETATM    5  C   UNL     1      26.212  47.511  54.330  1.00  0.00     0.247 C 
HETATM    6  O   UNL     1      25.262  48.229  54.061  1.00  0.00    -0.271 OA
HETATM    7  N   UNL     1      27.068  47.698  55.404  1.00  0.00    -0.290 N 
HETATM    8  N   UNL     1      27.948  46.629  55.597  1.00  0.00    -0.228 NA
HETATM    9  H   UNL     1      26.919  48.451  56.070  1.00  0.00     0.183 HD
HETATM   10  C   UNL     1      27.393  45.548  54.740  1.00  0.00     0.134 C 
HETATM   11  H   UNL     1      27.922  46.316  56.572  1.00  0.00     0.147 HD
BRANCH  10  12
HETATM   12  C   UNL     1      28.426  44.565  54.230  1.00  0.00    -0.004 A 
HETATM   13  C   UNL     1      29.548  44.197  54.989  1.00  0.00     0.073 A 
HETATM   14  C   UNL     1      30.470  43.268  54.502  1.00  0.00     0.037 A 
HETATM   15  C   UNL     1      30.286  42.677  53.255  1.00  0.00     0.003 A 
HETATM   16  C   UNL     1      29.175  43.014  52.491  1.00  0.00     0.001 A 
HETATM   17  C   UNL     1      28.253  43.945  52.976  1.00  0.00     0.012 A 
BRANCH  13  18
HETATM   18  O   UNL     1      29.842  44.693  56.230  1.00  0.00    -0.360 OA
HETATM   19  H   UNL     1      30.513  45.401  56.213  1.00  0.00     0.217 HD
ENDBRANCH  13  18
ENDBRANCH  10  12
ENDBRANCH   2   4
BRANCH   1  20
HETATM   20  C   UNL     1      24.161  44.716  51.177  1.00  0.00     0.164 C 
BRANCH  20  21
HETATM   21  C   UNL     1      24.605  43.514  50.380  1.00  0.00    -0.040 A 
HETATM   22  C   UNL     1      25.395  42.518  50.974  1.00  0.00     0.009 A 
HETATM   23  C   UNL     1      25.754  41.376  50.256  1.00  0.00     0.001 A 
HETATM   24  C   UNL     1      25.327  41.215  48.939  1.00  0.00     0.000 A 
HETATM   25  C   UNL     1      24.537  42.192  48.339  1.00  0.00     0.001 A 
HETATM   26  C   UNL     1      24.169  43.330  49.059  1.00  0.00     0.009 A 
ENDBRANCH  20  21
ENDBRANCH   1  20
BRANCH   1  27
HETATM   27  C   UNL     1      26.236  45.972  50.634  1.00  0.00     0.164 C 
BRANCH  27  28
HETATM   28  C   UNL     1      25.946  47.276  49.933  1.00  0.00    -0.040 A 
HETATM   29  C   UNL     1      27.015  48.047  49.442  1.00  0.00     0.009 A 
HETATM   30  C   UNL     1      26.783  49.247  48.768  1.00  0.00     0.001 A 
HETATM   31  C   UNL     1      25.479  49.687  48.563  1.00  0.00     0.000 A 
HETATM   32  C   UNL     1      24.409  48.922  49.021  1.00  0.00     0.001 A 
HETATM   33  C   UNL     1      24.640  47.719  49.692  1.00  0.00     0.009 A 
ENDBRANCH  27  28
ENDBRANCH   1  27
TORSDOF 7
ENDMDL
MODEL 3
REMARK VINA RESULT:      -8.8      1.515      2.135
REMARK  7 active torsions:
REMARK  status: ('A' for Active; 'I' for Inactive)
REMARK    1  A    between atoms: C_4  and  C_5 
REMARK    2  A    between atoms: C_5  and  N_6 
REMARK       I    between atoms: N_6  and  C_7 
REMARK    3  A    between atoms: N_6  and  C_22 
REMARK    4  A    between atoms: C_7  and  C_8 
REMARK    5  A    between atoms: C_13  and  C_14 
REMARK    6  A    between atoms: C_15  and  O_16 
REMARK    7  A    between atoms: C_22  and  C_23 
ROOT
HETATM    1  N   UNL     1      25.649  44.905  50.899  1.00  0.00    -0.343 N 
HETATM    2  C   UNL     1      26.301  43.803  50.358  1.00  0.00     0.235 C 
HETATM    3  O   UNL     1      27.029  43.912  49.361  1.00  0.00    -0.272 OA
ENDROOT
BRANCH   2   4
HETATM    4  C   UNL     1      26.147  42.442  50.991  1.00  0.00     0.195 C 
HETATM    5  C   UNL     1      25.336  41.497  50.155  1.00  0.00     0.247 C 
HETATM    6  O   UNL     1      24.363  41.748  49.464  1.00  0.00    -0.271 OA
HETATM    7  N   UNL     1      25.889  40.237  50.320  1.00  0.00    -0.290 N 
HETATM    8  N   UNL     1      27.108  40.257  51.004  1.00  0.00    -0.228 NA
HETATM    9  H   UNL     1      25.519  39.432  49.822  1.00  0.00     0.183 HD
HETATM   10  C   UNL     1      27.492  41.693  51.011  1.00  0.00     0.134 C 
HETATM   11  H   UNL     1      27.819  39.734  50.483  1.00  0.00     0.147 HD
BRANCH  10  12
HETATM   12  C   UNL     1      28.352  42.102  52.189  1.00  0.00    -0.004 A 
HETATM   13  C   UNL     1      28.192  41.539  53.464  1.00  0.00     0.073 A 
HETATM   14  C   UNL     1      29.017  41.918  54.525  1.00  0.00     0.037 A 
HETATM   15  C   UNL     1      30.027  42.858  54.333  1.00  0.00     0.003 A 
HETATM   16  C   UNL     1      30.214  43.420  53.076  1.00  0.00     0.001 A 
HETATM   17  C   UNL     1      29.388  43.042  52.014  1.00  0.00     0.012 A 
BRANCH  13  18
HETATM   18  O   UNL     1      27.248  40.601  53.785  1.00  0.00    -0.360 OA
HETATM   19  H   UNL     1      26.388  40.756  53.350  1.00  0.00     0.217 HD
ENDBRANCH  13  18
ENDBRANCH  10  12
ENDBRANCH   2   4
BRANCH   1  20
HETATM   20  C   UNL     1      25.832  46.192  50.218  1.00  0.00     0.164 C 
BRANCH  20  21
HETATM   21  C   UNL     1      24.544  46.768  49.682  1.00  0.00    -0.040 A 
HETATM   22  C   UNL     1      24.338  48.155  49.664  1.00  0.00     0.009 A 
HETATM   23  C   UNL     1      23.173  48.692  49.111  1.00  0.00     0.001 A 
HETATM   24  C   UNL     1      22.203  47.849  48.571  1.00  0.00     0.000 A 
HETATM   25  C   UNL     1      22.398  46.470  48.577  1.00  0.00     0.001 A 
HETATM   26  C   UNL     1      23.566  45.933  49.120  1.00  0.00     0.009 A 
ENDBRANCH  20  21
ENDBRANCH   1  20
BRANCH   1  27
HETATM   27  C   UNL     1      25.182  44.981  52.289  1.00  0.00     0.164 C 
BRANCH  27  28
HETATM   28  C   UNL     1      26.035  45.755  53.262  1.00  0.00    -0.040 A 
HETATM   29  C   UNL     1      25.655  47.060  53.626  1.00  0.00     0.009 A 
HETATM   30  C   UNL     1      26.409  47.798  54.540  1.00  0.00     0.001 A 
HETATM   31  C   UNL     1      27.545  47.237  55.116  1.00  0.00     0.000 A 
HETATM   32  C   UNL     1      27.919  45.937  54.785  1.00  0.00     0.001 A 
HETATM   33  C   UNL     1      27.164  45.197  53.872  1.00  0.00     0.009 A 
ENDBRANCH  27  28
ENDBRANCH   1  27
TORSDOF 7
ENDMDL
MODEL 4
REMARK VINA RESULT:      -8.4      1.278      4.598
REMARK  7 active torsions:
REMARK  status: ('A' for Active; 'I' for Inactive)
REMARK    1  A    between atoms: C_4  and  C_5 
REMARK    2  A    between atoms: C_5  and  N_6 
REMARK       I    between atoms: N_6  and  C_7 
REMARK    3  A    between atoms: N_6  and  C_22 
REMARK    4  A    between atoms: C_7  and  C_8 
REMARK    5  A    between atoms: C_13  and  C_14 
REMARK    6  A    between atoms: C_15  and  O_16 
REMARK    7  A    between atoms: C_22  and  C_23 
ROOT
HETATM    1  N   UNL     1      25.811  45.824  51.462  1.00  0.00    -0.343 N 
HETATM    2  C   UNL     1      25.094  44.640  51.588  1.00  0.00     0.235 C 
HETATM    3  O   UNL     1      24.164  44.534  52.401  1.00  0.00    -0.272 OA
ENDROOT
BRANCH   2   4
HETATM    4  C   UNL     1      25.427  43.452  50.719  1.00  0.00     0.195 C 
HETATM    5  C   UNL     1      24.844  43.555  49.341  1.00  0.00     0.247 C 
HETATM    6  O   UNL     1      23.768  44.025  49.011  1.00  0.00    -0.271 OA
HETATM    7  N   UNL     1      25.763  42.988  48.471  1.00  0.00    -0.290 N 
HETATM    8  N   UNL     1      26.991  42.706  49.077  1.00  0.00    -0.228 NA
HETATM    9  H   UNL     1      25.596  42.971  47.469  1.00  0.00     0.183 HD
HETATM   10  C   UNL     1      26.927  43.431  50.373  1.00  0.00     0.134 C 
HETATM   11  H   UNL     1      27.760  43.097  48.525  1.00  0.00     0.147 HD
BRANCH  10  12
HETATM   12  C   UNL     1      27.755  42.807  51.478  1.00  0.00    -0.004 A 
HETATM   13  C   UNL     1      27.532  41.498  51.932  1.00  0.00     0.073 A 
HETATM   14  C   UNL     1      28.329  40.941  52.934  1.00  0.00     0.037 A 
HETATM   15  C   UNL     1      29.372  41.674  53.496  1.00  0.00     0.003 A 
HETATM   16  C   UNL     1      29.620  42.968  53.054  1.00  0.00     0.001 A 
HETATM   17  C   UNL     1      28.823  43.526  52.052  1.00  0.00     0.012 A 
BRANCH  13  18
HETATM   18  O   UNL     1      26.552  40.670  51.459  1.00  0.00    -0.360 OA
HETATM   19  H   UNL     1      25.655  41.046  51.544  1.00  0.00     0.217 HD
ENDBRANCH  13  18
ENDBRANCH  10  12
ENDBRANCH   2   4
BRANCH   1  20
HETATM   20  C   UNL     1      25.442  46.928  52.355  1.00  0.00     0.164 C 
BRANCH  20  21
HETATM   21  C   UNL     1      26.240  46.948  53.635  1.00  0.00    -0.040 A 
HETATM   22  C   UNL     1      27.192  45.951  53.897  1.00  0.00     0.009 A 
HETATM   23  C   UNL     1      27.974  46.002  55.052  1.00  0.00     0.001 A 
HETATM   24  C   UNL     1      27.815  47.050  55.958  1.00  0.00     0.000 A 
HETATM   25  C   UNL     1      26.878  48.050  55.707  1.00  0.00     0.001 A 
HETATM   26  C   UNL     1      26.102  48.005  54.548  1.00  0.00     0.009 A 
ENDBRANCH  20  21
ENDBRANCH   1  20
BRANCH   1  27
HETATM   27  C   UNL     1      26.565  46.202  50.260  1.00  0.00     0.164 C 
BRANCH  27  28
HETATM   28  C   UNL     1      26.199  47.507  49.598  1.00  0.00    -0.040 A 
HETATM   29  C   UNL     1      24.841  47.831  49.417  1.00  0.00     0.009 A 
HETATM   30  C   UNL     1      24.465  49.039  48.829  1.00  0.00     0.001 A 
HETATM   31  C   UNL     1      25.439  49.947  48.425  1.00  0.00     0.000 A 
HETATM   32  C   UNL     1      26.786  49.652  48.620  1.00  0.00     0.001 A 
HETATM   33  C   UNL     1      27.163  48.444  49.211  1.00  0.00     0.009 A 
ENDBRANCH  27  28
ENDBRANCH   1  27
TORSDOF 7
ENDMDL
MODEL 5
REMARK VINA RESULT:      -8.0      5.330      9.107
REMARK  7 active torsions:
REMARK  status: ('A' for Active; 'I' for Inactive)
REMARK    1  A    between atoms: C_4  and  C_5 
REMARK    2  A    between atoms: C_5  and  N_6 
REMARK       I    between atoms: N_6  and  C_7 
REMARK    3  A    between atoms: N_6  and  C_22 
REMARK    4  A    between atoms: C_7  and  C_8 
REMARK    5  A    between atoms: C_13  and  C_14 
REMARK    6  A    between atoms: C_15  and  O_16 
REMARK    7  A    between atoms: C_22  and  C_23 
ROOT
HETATM    1  N   UNL     1      21.771  48.280  47.962  1.00  0.00    -0.343 N 
HETATM    2  C   UNL     1      21.307  47.027  47.578  1.00  0.00     0.235 C 
HETATM    3  O   UNL     1      21.501  46.026  48.283  1.00  0.00    -0.272 OA
ENDROOT
BRANCH   2   4
HETATM    4  C   UNL     1      20.538  46.862  46.291  1.00  0.00     0.195 C 
HETATM    5  C   UNL     1      21.194  45.911  45.335  1.00  0.00     0.247 C 
HETATM    6  O   UNL     1      22.386  45.750  45.131  1.00  0.00    -0.271 OA
HETATM    7  N   UNL     1      20.178  45.231  44.682  1.00  0.00    -0.290 N 
HETATM    8  N   UNL     1      18.916  45.462  45.238  1.00  0.00    -0.228 NA
HETATM    9  H   UNL     1      20.385  44.506  44.001  1.00  0.00     0.183 HD
HETATM   10  C   UNL     1      19.212  46.120  46.538  1.00  0.00     0.134 C 
HETATM   11  H   UNL     1      18.440  44.574  45.425  1.00  0.00     0.147 HD
BRANCH  10  12
HETATM   12  C   UNL     1      18.122  47.051  47.028  1.00  0.00    -0.004 A 
HETATM   13  C   UNL     1      17.292  46.727  48.113  1.00  0.00     0.073 A 
HETATM   14  C   UNL     1      16.313  47.617  48.557  1.00  0.00     0.037 A 
HETATM   15  C   UNL     1      16.149  48.854  47.937  1.00  0.00     0.003 A 
HETATM   16  C   UNL     1      16.967  49.202  46.870  1.00  0.00     0.001 A 
HETATM   17  C   UNL     1      17.946  48.312  46.423  1.00  0.00     0.012 A 
BRANCH  13  18
HETATM   18  O   UNL     1      17.356  45.554  48.814  1.00  0.00    -0.360 OA
HETATM   19  H   UNL     1      16.815  44.841  48.422  1.00  0.00     0.217 HD
ENDBRANCH  13  18
ENDBRANCH  10  12
ENDBRANCH   2   4
BRANCH   1  20
HETATM   20  C   UNL     1      22.527  48.359  49.217  1.00  0.00     0.164 C 
BRANCH  20  21
HETATM   21  C   UNL     1      23.995  48.642  49.008  1.00  0.00    -0.040 A 
HETATM   22  C   UNL     1      24.406  49.704  48.188  1.00  0.00     0.009 A 
HETATM   23  C   UNL     1      25.761  50.005  48.043  1.00  0.00     0.001 A 
HETATM   24  C   UNL     1      26.720  49.250  48.717  1.00  0.00     0.000 A 
HETATM   25  C   UNL     1      26.326  48.198  49.539  1.00  0.00     0.001 A 
HETATM   26  C   UNL     1      24.971  47.902  49.692  1.00  0.00     0.009 A 
ENDBRANCH  20  21
ENDBRANCH   1  20
BRANCH   1  27
HETATM   27  C   UNL     1      21.207  49.547  47.478  1.00  0.00     0.164 C 
BRANCH  27  28
HETATM   28  C   UNL     1      20.217  50.248  48.374  1.00  0.00    -0.040 A 
HETATM   29  C   UNL     1      19.869  51.584  48.104  1.00  0.00     0.009 A 
HETATM   30  C   UNL     1      18.940  52.258  48.898  1.00  0.00     0.001 A 
HETATM   31  C   UNL     1      18.334  51.602  49.966  1.00  0.00     0.000 A 
HETATM   32  C   UNL     1      18.650  50.271  50.231  1.00  0.00     0.001 A 
HETATM   33  C   UNL     1      19.578  49.596  49.434  1.00  0.00     0.009 A 
ENDBRANCH  27  28
ENDBRANCH   1  27
TORSDOF 7
ENDMDL
MODEL 6
REMARK VINA RESULT:      -8.0      1.923      6.171
REMARK  7 active torsions:
REMARK  status: ('A' for Active; 'I' for Inactive)
REMARK    1  A    between atoms: C_4  and  C_5 
REMARK    2  A    between atoms: C_5  and  N_6 
REMARK       I    between atoms: N_6  and  C_7 
REMARK    3  A    between atoms: N_6  and  C_22 
REMARK    4  A    between atoms: C_7  and  C_8 
REMARK    5  A    between atoms: C_13  and  C_14 
REMARK    6  A    between atoms: C_15  and  O_16 
REMARK    7  A    between atoms: C_22  and  C_23 
ROOT
HETATM    1  N   UNL     1      25.903  44.926  51.484  1.00  0.00    -0.343 N 
HETATM    2  C   UNL     1      25.137  43.777  51.329  1.00  0.00     0.235 C 
HETATM    3  O   UNL     1      24.290  43.450  52.173  1.00  0.00    -0.272 OA
ENDROOT
BRANCH   2   4
HETATM    4  C   UNL     1      25.311  42.905  50.110  1.00  0.00     0.195 C 
HETATM    5  C   UNL     1      26.015  41.615  50.409  1.00  0.00     0.247 C 
HETATM    6  O   UNL     1      26.926  41.419  51.195  1.00  0.00    -0.271 OA
HETATM    7  N   UNL     1      25.445  40.648  49.596  1.00  0.00    -0.290 N 
HETATM    8  N   UNL     1      24.295  41.092  48.936  1.00  0.00    -0.228 NA
HETATM    9  H   UNL     1      25.744  39.678  49.646  1.00  0.00     0.183 HD
HETATM   10  C   UNL     1      23.954  42.364  49.627  1.00  0.00     0.134 C 
HETATM   11  H   UNL     1      23.525  40.431  49.076  1.00  0.00     0.147 HD
BRANCH  10  12
HETATM   12  C   UNL     1      23.219  43.365  48.760  1.00  0.00    -0.004 A 
HETATM   13  C   UNL     1      23.485  43.507  47.389  1.00  0.00     0.073 A 
HETATM   14  C   UNL     1      22.772  44.421  46.611  1.00  0.00     0.037 A 
HETATM   15  C   UNL     1      21.771  45.205  47.181  1.00  0.00     0.003 A 
HETATM   16  C   UNL     1      21.480  45.073  48.533  1.00  0.00     0.001 A 
HETATM   17  C   UNL     1      22.193  44.159  49.313  1.00  0.00     0.012 A 
BRANCH  13  18
HETATM   18  O   UNL     1      24.431  42.794  46.706  1.00  0.00    -0.360 OA
HETATM   19  H   UNL     1      24.609  43.146  45.813  1.00  0.00     0.217 HD
ENDBRANCH  13  18
ENDBRANCH  10  12
ENDBRANCH   2   4
BRANCH   1  20
HETATM   20  C   UNL     1      25.691  45.713  52.705  1.00  0.00     0.164 C 
BRANCH  20  21
HETATM   21  C   UNL     1      26.902  45.751  53.605  1.00  0.00    -0.040 A 
HETATM   22  C   UNL     1      27.210  46.909  54.335  1.00  0.00     0.009 A 
HETATM   23  C   UNL     1      28.294  46.925  55.214  1.00  0.00     0.001 A 
HETATM   24  C   UNL     1      29.081  45.786  55.374  1.00  0.00     0.000 A 
HETATM   25  C   UNL     1      28.783  44.628  54.660  1.00  0.00     0.001 A 
HETATM   26  C   UNL     1      27.694  44.607  53.788  1.00  0.00     0.009 A 
ENDBRANCH  20  21
ENDBRANCH   1  20
BRANCH   1  27
HETATM   27  C   UNL     1      26.552  45.637  50.375  1.00  0.00     0.164 C 
BRANCH  27  28
HETATM   28  C   UNL     1      25.875  46.885  49.865  1.00  0.00    -0.040 A 
HETATM   29  C   UNL     1      26.661  47.989  49.488  1.00  0.00     0.009 A 
HETATM   30  C   UNL     1      26.071  49.152  48.992  1.00  0.00     0.001 A 
HETATM   31  C   UNL     1      24.688  49.223  48.851  1.00  0.00     0.000 A 
HETATM   32  C   UNL     1      23.899  48.129  49.196  1.00  0.00     0.001 A 
HETATM   33  C   UNL     1      24.489  46.964  49.691  1.00  0.00     0.009 A 
ENDBRANCH  27  28
ENDBRANCH   1  27
TORSDOF 7
ENDMDL
MODEL 7
REMARK VINA RESULT:      -7.8     11.158     13.849
REMARK  7 active torsions:
REMARK  status: ('A' for Active; 'I' for Inactive)
REMARK    1  A    between atoms: C_4  and  C_5 
REMARK    2  A    between atoms: C_5  and  N_6 
REMARK       I    between atoms: N_6  and  C_7 
REMARK    3  A    between atoms: N_6  and  C_22 
REMARK    4  A    between atoms: C_7  and  C_8 
REMARK    5  A    between atoms: C_13  and  C_14 
REMARK    6  A    between atoms: C_15  and  O_16 
REMARK    7  A    between atoms: C_22  and  C_23 
ROOT
HETATM    1  N   UNL     1      31.941  50.891  39.931  1.00  0.00    -0.343 N 
HETATM    2  C   UNL     1      30.640  51.286  39.643  1.00  0.00     0.235 C 
HETATM    3  O   UNL     1      30.307  51.618  38.496  1.00  0.00    -0.272 OA
ENDROOT
BRANCH   2   4
HETATM    4  C   UNL     1      29.592  51.305  40.729  1.00  0.00     0.195 C 
HETATM    5  C   UNL     1      29.310  52.683  41.247  1.00  0.00     0.247 C 
HETATM    6  O   UNL     1      30.096  53.602  41.410  1.00  0.00    -0.271 OA
HETATM    7  N   UNL     1      27.956  52.736  41.537  1.00  0.00    -0.290 N 
HETATM    8  N   UNL     1      27.252  51.620  41.076  1.00  0.00    -0.228 NA
HETATM    9  H   UNL     1      27.525  53.591  41.877  1.00  0.00     0.183 HD
HETATM   10  C   UNL     1      28.208  50.945  40.159  1.00  0.00     0.134 C 
HETATM   11  H   UNL     1      26.434  51.913  40.533  1.00  0.00     0.147 HD
BRANCH  10  12
HETATM   12  C   UNL     1      28.012  49.448  40.046  1.00  0.00    -0.004 A 
HETATM   13  C   UNL     1      27.924  48.617  41.174  1.00  0.00     0.073 A 
HETATM   14  C   UNL     1      27.717  47.243  41.038  1.00  0.00     0.037 A 
HETATM   15  C   UNL     1      27.582  46.670  39.775  1.00  0.00     0.003 A 
HETATM   16  C   UNL     1      27.652  47.474  38.644  1.00  0.00     0.001 A 
HETATM   17  C   UNL     1      27.860  48.849  38.779  1.00  0.00     0.012 A 
BRANCH  13  18
HETATM   18  O   UNL     1      28.029  49.051  42.467  1.00  0.00    -0.360 OA
HETATM   19  H   UNL     1      28.424  48.389  43.065  1.00  0.00     0.217 HD
ENDBRANCH  13  18
ENDBRANCH  10  12
ENDBRANCH   2   4
BRANCH   1  20
HETATM   20  C   UNL     1      32.908  50.917  38.828  1.00  0.00     0.164 C 
BRANCH  20  21
HETATM   21  C   UNL     1      34.078  51.835  39.087  1.00  0.00    -0.040 A 
HETATM   22  C   UNL     1      35.389  51.335  39.089  1.00  0.00     0.009 A 
HETATM   23  C   UNL     1      36.475  52.193  39.267  1.00  0.00     0.001 A 
HETATM   24  C   UNL     1      36.264  53.560  39.442  1.00  0.00     0.000 A 
HETATM   25  C   UNL     1      34.969  54.071  39.435  1.00  0.00     0.001 A 
HETATM   26  C   UNL     1      33.883  53.215  39.249  1.00  0.00     0.009 A 
ENDBRANCH  20  21
ENDBRANCH   1  20
BRANCH   1  27
HETATM   27  C   UNL     1      32.309  50.054  41.080  1.00  0.00     0.164 C 
BRANCH  27  28
HETATM   28  C   UNL     1      32.811  50.759  42.315  1.00  0.00    -0.040 A 
HETATM   29  C   UNL     1      34.166  51.126  42.397  1.00  0.00     0.009 A 
HETATM   30  C   UNL     1      34.661  51.799  43.514  1.00  0.00     0.001 A 
HETATM   31  C   UNL     1      33.805  52.129  44.561  1.00  0.00     0.000 A 
HETATM   32  C   UNL     1      32.455  51.795  44.484  1.00  0.00     0.001 A 
HETATM   33  C   UNL     1      31.959  51.124  43.364  1.00  0.00     0.009 A 
ENDBRANCH  27  28
ENDBRANCH   1  27
TORSDOF 7
ENDMDL
MODEL 8
REMARK VINA RESULT:      -7.8     17.156     19.188
REMARK  7 active torsions:
REMARK  status: ('A' for Active; 'I' for Inactive)
REMARK    1  A    between atoms: C_4  and  C_5 
REMARK    2  A    between atoms: C_5  and  N_6 
REMARK       I    between atoms: N_6  and  C_7 
REMARK    3  A    between atoms: N_6  and  C_22 
REMARK    4  A    between atoms: C_7  and  C_8 
REMARK    5  A    between atoms: C_13  and  C_14 
REMARK    6  A    between atoms: C_15  and  O_16 
REMARK    7  A    between atoms: C_22  and  C_23 
ROOT
HETATM    1  N   UNL     1      37.961  47.454  66.261  1.00  0.00    -0.343 N 
HETATM    2  C   UNL     1      36.841  46.707  65.915  1.00  0.00     0.235 C 
HETATM    3  O   UNL     1      36.041  47.108  65.058  1.00  0.00    -0.272 OA
ENDROOT
BRANCH   2   4
HETATM    4  C   UNL     1      36.584  45.373  66.571  1.00  0.00     0.195 C 
HETATM    5  C   UNL     1      35.529  45.438  67.635  1.00  0.00     0.247 C 
HETATM    6  O   UNL     1      35.311  46.340  68.426  1.00  0.00    -0.271 OA
HETATM    7  N   UNL     1      34.825  44.245  67.578  1.00  0.00    -0.290 N 
HETATM    8  N   UNL     1      35.147  43.470  66.459  1.00  0.00    -0.228 NA
HETATM    9  H   UNL     1      34.035  44.072  68.192  1.00  0.00     0.183 HD
HETATM   10  C   UNL     1      35.911  44.400  65.586  1.00  0.00     0.134 C 
HETATM   11  H   UNL     1      34.296  43.187  65.964  1.00  0.00     0.147 HD
BRANCH  10  12
HETATM   12  C   UNL     1      36.918  43.720  64.682  1.00  0.00    -0.004 A 
HETATM   13  C   UNL     1      37.410  44.330  63.518  1.00  0.00     0.073 A 
HETATM   14  C   UNL     1      38.358  43.688  62.717  1.00  0.00     0.037 A 
HETATM   15  C   UNL     1      38.843  42.431  63.068  1.00  0.00     0.003 A 
HETATM   16  C   UNL     1      38.381  41.812  64.223  1.00  0.00     0.001 A 
HETATM   17  C   UNL     1      37.432  42.453  65.024  1.00  0.00     0.012 A 
BRANCH  13  18
HETATM   18  O   UNL     1      37.026  45.563  63.067  1.00  0.00    -0.360 OA
HETATM   19  H   UNL     1      36.473  45.525  62.263  1.00  0.00     0.217 HD
ENDBRANCH  13  18
ENDBRANCH  10  12
ENDBRANCH   2   4
BRANCH   1  20
HETATM   20  C   UNL     1      38.134  48.750  65.594  1.00  0.00     0.164 C 
BRANCH  20  21
HETATM   21  C   UNL     1      37.757  49.921  66.467  1.00  0.00    -0.040 A 
HETATM   22  C   UNL     1      37.210  49.713  67.742  1.00  0.00     0.009 A 
HETATM   23  C   UNL     1      36.918  50.795  68.574  1.00  0.00     0.001 A 
HETATM   24  C   UNL     1      37.170  52.096  68.143  1.00  0.00     0.000 A 
HETATM   25  C   UNL     1      37.718  52.317  66.882  1.00  0.00     0.001 A 
HETATM   26  C   UNL     1      38.019  51.236  66.053  1.00  0.00     0.009 A 
ENDBRANCH  20  21
ENDBRANCH   1  20
BRANCH   1  27
HETATM   27  C   UNL     1      39.171  46.886  66.870  1.00  0.00     0.164 C 
BRANCH  27  28
HETATM   28  C   UNL     1      40.029  45.999  66.003  1.00  0.00    -0.040 A 
HETATM   29  C   UNL     1      40.325  44.693  66.433  1.00  0.00     0.009 A 
HETATM   30  C   UNL     1      41.097  43.837  65.646  1.00  0.00     0.001 A 
HETATM   31  C   UNL     1      41.573  44.270  64.412  1.00  0.00     0.000 A 
HETATM   32  C   UNL     1      41.268  45.552  63.962  1.00  0.00     0.001 A 
HETATM   33  C   UNL     1      40.492  46.407  64.747  1.00  0.00     0.009 A 
ENDBRANCH  27  28
ENDBRANCH   1  27
TORSDOF 7
ENDMDL
MODEL 9
REMARK VINA RESULT:      -7.7     11.539     13.867
REMARK  7 active torsions:
REMARK  status: ('A' for Active; 'I' for Inactive)
REMARK    1  A    between atoms: C_4  and  C_5 
REMARK    2  A    between atoms: C_5  and  N_6 
REMARK       I    between atoms: N_6  and  C_7 
REMARK    3  A    between atoms: N_6  and  C_22 
REMARK    4  A    between atoms: C_7  and  C_8 
REMARK    5  A    between atoms: C_13  and  C_14 
REMARK    6  A    between atoms: C_15  and  O_16 
REMARK    7  A    between atoms: C_22  and  C_23 
ROOT
HETATM    1  N   UNL     1      28.893  47.172  39.105  1.00  0.00    -0.343 N 
HETATM    2  C   UNL     1      27.651  47.781  39.231  1.00  0.00     0.235 C 
HETATM    3  O   UNL     1      26.850  47.433  40.110  1.00  0.00    -0.272 OA
ENDROOT
BRANCH   2   4
HETATM    4  C   UNL     1      27.255  48.901  38.300  1.00  0.00     0.195 C 
HETATM    5  C   UNL     1      26.173  48.509  37.339  1.00  0.00     0.247 C 
HETATM    6  O   UNL     1      26.007  47.432  36.790  1.00  0.00    -0.271 OA
HETATM    7  N   UNL     1      25.370  49.624  37.158  1.00  0.00    -0.290 N 
HETATM    8  N   UNL     1      25.662  50.661  38.050  1.00  0.00    -0.228 NA
HETATM    9  H   UNL     1      24.546  49.587  36.565  1.00  0.00     0.183 HD
HETATM   10  C   UNL     1      26.535  50.023  39.070  1.00  0.00     0.134 C 
HETATM   11  H   UNL     1      24.808  50.986  38.512  1.00  0.00     0.147 HD
BRANCH  10  12
HETATM   12  C   UNL     1      27.510  50.970  39.737  1.00  0.00    -0.004 A 
HETATM   13  C   UNL     1      27.836  50.873  41.099  1.00  0.00     0.073 A 
HETATM   14  C   UNL     1      28.758  51.745  41.680  1.00  0.00     0.037 A 
HETATM   15  C   UNL     1      29.384  52.725  40.913  1.00  0.00     0.003 A 
HETATM   16  C   UNL     1      29.087  52.833  39.560  1.00  0.00     0.001 A 
HETATM   17  C   UNL     1      28.164  51.962  38.977  1.00  0.00     0.012 A 
BRANCH  13  18
HETATM   18  O   UNL     1      27.303  49.952  41.959  1.00  0.00    -0.360 OA
HETATM   19  H   UNL     1      26.328  49.969  41.986  1.00  0.00     0.217 HD
ENDBRANCH  13  18
ENDBRANCH  10  12
ENDBRANCH   2   4
BRANCH   1  20
HETATM   20  C   UNL     1      29.199  46.077  40.033  1.00  0.00     0.164 C 
BRANCH  20  21
HETATM   21  C   UNL     1      28.843  44.717  39.486  1.00  0.00    -0.040 A 
HETATM   22  C   UNL     1      29.522  44.196  38.375  1.00  0.00     0.009 A 
HETATM   23  C   UNL     1      29.235  42.913  37.906  1.00  0.00     0.001 A 
HETATM   24  C   UNL     1      28.269  42.136  38.542  1.00  0.00     0.000 A 
HETATM   25  C   UNL     1      27.591  42.638  39.650  1.00  0.00     0.001 A 
HETATM   26  C   UNL     1      27.883  43.917  40.125  1.00  0.00     0.009 A 
ENDBRANCH  20  21
ENDBRANCH   1  20
BRANCH   1  27
HETATM   27  C   UNL     1      30.052  47.796  38.454  1.00  0.00     0.164 C 
BRANCH  27  28
HETATM   28  C   UNL     1      30.818  48.825  39.248  1.00  0.00    -0.040 A 
HETATM   29  C   UNL     1      31.012  48.626  40.628  1.00  0.00     0.009 A 
HETATM   30  C   UNL     1      31.734  49.545  41.390  1.00  0.00     0.001 A 
HETATM   31  C   UNL     1      32.286  50.669  40.782  1.00  0.00     0.000 A 
HETATM   32  C   UNL     1      32.125  50.866  39.413  1.00  0.00     0.001 A 
HETATM   33  C   UNL     1      31.404  49.945  38.649  1.00  0.00     0.009 A 
ENDBRANCH  27  28
ENDBRANCH   1  27
TORSDOF 7
ENDMDL
MODEL 10
REMARK VINA RESULT:      -7.7     10.874     13.548
REMARK  7 active torsions:
REMARK  status: ('A' for Active; 'I' for Inactive)
REMARK    1  A    between atoms: C_4  and  C_5 
REMARK    2  A    between atoms: C_5  and  N_6 
REMARK       I    between atoms: N_6  and  C_7 
REMARK    3  A    between atoms: N_6  and  C_22 
REMARK    4  A    between atoms: C_7  and  C_8 
REMARK    5  A    between atoms: C_13  and  C_14 
REMARK    6  A    between atoms: C_15  and  O_16 
REMARK    7  A    between atoms: C_22  and  C_23 
ROOT
HETATM    1  N   UNL     1      27.500  49.619  40.797  1.00  0.00    -0.343 N 
HETATM    2  C   UNL     1      26.550  48.893  40.089  1.00  0.00     0.235 C 
HETATM    3  O   UNL     1      26.227  47.747  40.433  1.00  0.00    -0.272 OA
ENDROOT
BRANCH   2   4
HETATM    4  C   UNL     1      25.872  49.499  38.885  1.00  0.00     0.195 C 
HETATM    5  C   UNL     1      26.718  49.444  37.648  1.00  0.00     0.247 C 
HETATM    6  O   UNL     1      27.927  49.574  37.555  1.00  0.00    -0.271 OA
HETATM    7  N   UNL     1      25.859  49.228  36.582  1.00  0.00    -0.290 N 
HETATM    8  N   UNL     1      24.555  48.920  36.981  1.00  0.00    -0.228 NA
HETATM    9  H   UNL     1      26.213  49.123  35.635  1.00  0.00     0.183 HD
HETATM   10  C   UNL     1      24.682  48.634  38.434  1.00  0.00     0.134 C 
HETATM   11  H   UNL     1      24.228  48.070  36.510  1.00  0.00     0.147 HD
BRANCH  10  12
HETATM   12  C   UNL     1      23.432  48.924  39.238  1.00  0.00    -0.004 A 
HETATM   13  C   UNL     1      22.753  50.150  39.149  1.00  0.00     0.073 A 
HETATM   14  C   UNL     1      21.588  50.379  39.884  1.00  0.00     0.037 A 
HETATM   15  C   UNL     1      21.068  49.387  40.712  1.00  0.00     0.003 A 
HETATM   16  C   UNL     1      21.715  48.160  40.806  1.00  0.00     0.001 A 
HETATM   17  C   UNL     1      22.881  47.931  40.072  1.00  0.00     0.012 A 
BRANCH  13  18
HETATM   18  O   UNL     1      23.149  51.201  38.369  1.00  0.00    -0.360 OA
HETATM   19  H   UNL     1      22.723  52.045  38.613  1.00  0.00     0.217 HD
ENDBRANCH  13  18
ENDBRANCH  10  12
ENDBRANCH   2   4
BRANCH   1  20
HETATM   20  C   UNL     1      28.130  48.956  41.945  1.00  0.00     0.164 C 
BRANCH  20  21
HETATM   21  C   UNL     1      29.571  48.583  41.699  1.00  0.00    -0.040 A 
HETATM   22  C   UNL     1      29.947  47.936  40.513  1.00  0.00     0.009 A 
HETATM   23  C   UNL     1      31.289  47.647  40.256  1.00  0.00     0.001 A 
HETATM   24  C   UNL     1      32.269  48.002  41.182  1.00  0.00     0.000 A 
HETATM   25  C   UNL     1      31.911  48.650  42.361  1.00  0.00     0.001 A 
HETATM   26  C   UNL     1      30.571  48.948  42.614  1.00  0.00     0.009 A 
ENDBRANCH  20  21
ENDBRANCH   1  20
BRANCH   1  27
HETATM   27  C   UNL     1      27.598  51.084  40.777  1.00  0.00     0.164 C 
BRANCH  27  28
HETATM   28  C   UNL     1      28.982  51.683  40.767  1.00  0.00    -0.040 A 
HETATM   29  C   UNL     1      29.774  51.570  39.609  1.00  0.00     0.009 A 
HETATM   30  C   UNL     1      31.050  52.131  39.556  1.00  0.00     0.001 A 
HETATM   31  C   UNL     1      31.549  52.826  40.654  1.00  0.00     0.000 A 
HETATM   32  C   UNL     1      30.767  52.968  41.798  1.00  0.00     0.001 A 
HETATM   33  C   UNL     1      29.489  52.409  41.850  1.00  0.00     0.009 A 
ENDBRANCH  27  28
ENDBRANCH   1  27
TORSDOF 7
ENDMDL
