MODEL 1
REMARK VINA RESULT:      -9.6      0.000      0.000
REMARK  8 active torsions:
REMARK  status: ('A' for Active; 'I' for Inactive)
REMARK    1  A    between atoms: C_2  and  S_3 
REMARK    2  A    between atoms: C_2  and  C_24 
REMARK    3  A    between atoms: S_3  and  C_4 
REMARK    4  A    between atoms: N_5  and  C_6 
REMARK    5  A    between atoms: C_13  and  C_14 
REMARK    6  A    between atoms: C_14  and  N_15 
REMARK       I    between atoms: C_24  and  N_25 
REMARK    7  A    between atoms: N_25  and  C_26 
REMARK    8  A    between atoms: C_29  and  C_30 
REMARK       I    between atoms: C_30  and  N_31 
ROOT
HETATM    1  C   UNL     1      24.155  45.015  50.121  1.00  0.00     0.197 A 
HETATM    2  N   UNL     1      24.935  46.043  50.628  1.00  0.00    -0.274 N 
HETATM    3  C   UNL     1      25.064  45.719  51.977  1.00  0.00     0.161 A 
HETATM    4  N   UNL     1      24.354  44.638  52.244  1.00  0.00    -0.132 NA
HETATM    5  N   UNL     1      23.801  44.196  51.085  1.00  0.00    -0.122 NA
ENDROOT
BRANCH   1   6
HETATM    6  S   UNL     1      23.858  44.729  48.438  1.00  0.00    -0.076 SA
BRANCH   6   7
HETATM    7  C   UNL     1      22.044  44.972  48.333  1.00  0.00     0.143 C 
HETATM    8  C   UNL     1      21.440  44.067  47.261  1.00  0.00     0.031 C 
BRANCH   7   9
HETATM    9  C   UNL     1      21.708  46.439  48.010  1.00  0.00     0.236 C 
HETATM   10  N   UNL     1      20.949  47.028  49.017  1.00  0.00    -0.326 N 
HETATM   11  H   UNL     1      20.743  46.463  49.832  1.00  0.00     0.169 HD
HETATM   12  O   UNL     1      22.057  46.987  46.970  1.00  0.00    -0.272 OA
BRANCH  10  13
HETATM   13  C   UNL     1      20.420  48.335  49.047  1.00  0.00     0.034 A 
HETATM   14  C   UNL     1      21.195  49.496  49.088  1.00  0.00     0.030 A 
HETATM   15  C   UNL     1      20.587  50.760  49.108  1.00  0.00     0.019 A 
HETATM   16  C   UNL     1      19.194  50.875  49.094  1.00  0.00     0.032 A 
HETATM   17  C   UNL     1      18.416  49.713  49.040  1.00  0.00     0.019 A 
HETATM   18  C   UNL     1      19.025  48.454  49.020  1.00  0.00     0.030 A 
BRANCH  16  19
HETATM   19  C   UNL     1      18.495  52.187  49.108  1.00  0.00     0.249 C 
HETATM   20  N   UNL     1      18.659  53.009  48.029  1.00  0.00    -0.366 N 
HETATM   21  H   UNL     1      19.363  52.866  47.321  1.00  0.00     0.159 HD
HETATM   22  H   UNL     1      18.248  53.931  48.101  1.00  0.00     0.159 HD
HETATM   23  O   UNL     1      17.820  52.540  50.067  1.00  0.00    -0.268 OA
ENDBRANCH  16  19
ENDBRANCH  10  13
ENDBRANCH   7   9
ENDBRANCH   6   7
ENDBRANCH   1   6
BRANCH   2  24
HETATM   24  C   UNL     1      25.438  47.200  49.972  1.00  0.00     0.043 A 
HETATM   25  C   UNL     1      26.818  47.335  49.753  1.00  0.00     0.033 A 
HETATM   26  C   UNL     1      27.315  48.453  49.078  1.00  0.00     0.044 A 
HETATM   27  C   UNL     1      26.438  49.432  48.630  1.00  0.00     0.116 A 
HETATM   28  F   UNL     1      26.915  50.500  47.981  1.00  0.00    -0.206 F 
HETATM   29  C   UNL     1      25.071  49.317  48.849  1.00  0.00     0.044 A 
HETATM   30  C   UNL     1      24.565  48.202  49.523  1.00  0.00     0.033 A 
ENDBRANCH   2  24
BRANCH   3  31
HETATM   31  C   UNL     1      25.729  46.533  53.032  1.00  0.00     0.315 C 
BRANCH  31  32
HETATM   32  N   UNL     1      26.687  45.690  53.872  1.00  0.00    -0.064 N 
HETATM   33  H   UNL     1      26.067  45.098  54.449  1.00  0.00     0.280 HD
HETATM   34  C   UNL     1      27.511  44.735  53.034  1.00  0.00     0.235 C 
HETATM   35  C   UNL     1      28.285  43.804  53.956  1.00  0.00     0.028 C 
HETATM   36  C   UNL     1      29.159  44.585  54.930  1.00  0.00     0.003 C 
HETATM   37  C   UNL     1      28.340  45.608  55.709  1.00  0.00     0.028 C 
HETATM   38  C   UNL     1      27.541  46.521  54.789  1.00  0.00     0.235 C 
ENDBRANCH  31  32
ENDBRANCH   3  31
TORSDOF 8
ENDMDL
MODEL 2
REMARK VINA RESULT:      -9.1      4.208      7.987
REMARK  8 active torsions:
REMARK  status: ('A' for Active; 'I' for Inactive)
REMARK    1  A    between atoms: C_2  and  S_3 
REMARK    2  A    between atoms: C_2  and  C_24 
REMARK    3  A    between atoms: S_3  and  C_4 
REMARK    4  A    between atoms: N_5  and  C_6 
REMARK    5  A    between atoms: C_13  and  C_14 
REMARK    6  A    between atoms: C_14  and  N_15 
REMARK       I    between atoms: C_24  and  N_25 
REMARK    7  A    between atoms: N_25  and  C_26 
REMARK    8  A    between atoms: C_29  and  C_30 
REMARK       I    between atoms: C_30  and  N_31 
ROOT
HETATM    1  C   UNL     1      23.961  44.419  50.663  1.00  0.00     0.197 A 
HETATM    2  N   UNL     1      24.970  45.332  50.933  1.00  0.00    -0.274 N 
HETATM    3  C   UNL     1      25.615  44.784  52.040  1.00  0.00     0.161 A 
HETATM    4  N   UNL     1      24.985  43.690  52.426  1.00  0.00    -0.132 NA
HETATM    5  N   UNL     1      23.965  43.459  51.559  1.00  0.00    -0.122 NA
ENDROOT
BRANCH   1   6
HETATM    6  S   UNL     1      22.970  44.425  49.242  1.00  0.00    -0.076 SA
BRANCH   6   7
HETATM    7  C   UNL     1      24.128  43.777  47.977  1.00  0.00     0.143 C 
HETATM    8  C   UNL     1      23.431  43.644  46.624  1.00  0.00     0.031 C 
BRANCH   7   9
HETATM    9  C   UNL     1      24.687  42.407  48.400  1.00  0.00     0.236 C 
HETATM   10  N   UNL     1      26.078  42.382  48.360  1.00  0.00    -0.326 N 
HETATM   11  H   UNL     1      26.549  43.242  48.104  1.00  0.00     0.169 HD
HETATM   12  O   UNL     1      23.968  41.461  48.703  1.00  0.00    -0.272 OA
BRANCH  10  13
HETATM   13  C   UNL     1      26.930  41.292  48.633  1.00  0.00     0.034 A 
HETATM   14  C   UNL     1      27.533  40.501  47.653  1.00  0.00     0.030 A 
HETATM   15  C   UNL     1      28.374  39.438  48.011  1.00  0.00     0.019 A 
HETATM   16  C   UNL     1      28.615  39.149  49.357  1.00  0.00     0.032 A 
HETATM   17  C   UNL     1      28.022  39.948  50.341  1.00  0.00     0.019 A 
HETATM   18  C   UNL     1      27.184  41.008  49.981  1.00  0.00     0.030 A 
BRANCH  16  19
HETATM   19  C   UNL     1      29.502  38.039  49.796  1.00  0.00     0.249 C 
HETATM   20  N   UNL     1      28.946  37.031  50.532  1.00  0.00    -0.366 N 
HETATM   21  H   UNL     1      28.030  37.087  50.950  1.00  0.00     0.159 HD
HETATM   22  H   UNL     1      29.585  36.335  50.894  1.00  0.00     0.159 HD
HETATM   23  O   UNL     1      30.699  38.039  49.538  1.00  0.00    -0.268 OA
ENDBRANCH  16  19
ENDBRANCH  10  13
ENDBRANCH   7   9
ENDBRANCH   6   7
ENDBRANCH   1   6
BRANCH   2  24
HETATM   24  C   UNL     1      25.259  46.570  50.298  1.00  0.00     0.043 A 
HETATM   25  C   UNL     1      26.576  46.870  49.917  1.00  0.00     0.033 A 
HETATM   26  C   UNL     1      26.860  48.071  49.261  1.00  0.00     0.044 A 
HETATM   27  C   UNL     1      25.835  48.967  48.991  1.00  0.00     0.116 A 
HETATM   28  F   UNL     1      26.107  50.115  48.360  1.00  0.00    -0.206 F 
HETATM   29  C   UNL     1      24.528  48.688  49.371  1.00  0.00     0.044 A 
HETATM   30  C   UNL     1      24.234  47.489  50.028  1.00  0.00     0.033 A 
ENDBRANCH   2  24
BRANCH   3  31
HETATM   31  C   UNL     1      26.727  45.396  52.818  1.00  0.00     0.315 C 
BRANCH  31  32
HETATM   32  N   UNL     1      27.737  44.346  53.277  1.00  0.00    -0.064 N 
HETATM   33  H   UNL     1      27.155  43.576  53.645  1.00  0.00     0.280 HD
HETATM   34  C   UNL     1      28.527  43.757  52.128  1.00  0.00     0.235 C 
HETATM   35  C   UNL     1      29.359  42.590  52.641  1.00  0.00     0.028 C 
HETATM   36  C   UNL     1      30.274  43.018  53.783  1.00  0.00     0.003 C 
HETATM   37  C   UNL     1      29.484  43.692  54.901  1.00  0.00     0.028 C 
HETATM   38  C   UNL     1      28.628  44.840  54.384  1.00  0.00     0.235 C 
ENDBRANCH  31  32
ENDBRANCH   3  31
TORSDOF 8
ENDMDL
MODEL 3
REMARK VINA RESULT:      -9.0      4.034      9.962
REMARK  8 active torsions:
REMARK  status: ('A' for Active; 'I' for Inactive)
REMARK    1  A    between atoms: C_2  and  S_3 
REMARK    2  A    between atoms: C_2  and  C_24 
REMARK    3  A    between atoms: S_3  and  C_4 
REMARK    4  A    between atoms: N_5  and  C_6 
REMARK    5  A    between atoms: C_13  and  C_14 
REMARK    6  A    between atoms: C_14  and  N_15 
REMARK       I    between atoms: C_24  and  N_25 
REMARK    7  A    between atoms: N_25  and  C_26 
REMARK    8  A    between atoms: C_29  and  C_30 
REMARK       I    between atoms: C_30  and  N_31 
ROOT
HETATM    1  C   UNL     1      25.233  46.655  50.077  1.00  0.00     0.197 A 
HETATM    2  N   UNL     1      24.081  46.284  49.401  1.00  0.00    -0.274 N 
HETATM    3  C   UNL     1      23.383  47.483  49.267  1.00  0.00     0.161 A 
HETATM    4  N   UNL     1      24.037  48.450  49.881  1.00  0.00    -0.132 NA
HETATM    5  N   UNL     1      25.195  47.934  50.373  1.00  0.00    -0.122 NA
ENDROOT
BRANCH   1   6
HETATM    6  S   UNL     1      26.615  45.638  50.319  1.00  0.00    -0.076 SA
BRANCH   6   7
HETATM    7  C   UNL     1      26.039  44.541  51.670  1.00  0.00     0.143 C 
HETATM    8  C   UNL     1      25.117  45.298  52.624  1.00  0.00     0.031 C 
BRANCH   7   9
HETATM    9  C   UNL     1      27.233  43.972  52.457  1.00  0.00     0.236 C 
HETATM   10  N   UNL     1      27.505  44.725  53.596  1.00  0.00    -0.326 N 
HETATM   11  H   UNL     1      26.891  45.506  53.792  1.00  0.00     0.169 HD
HETATM   12  O   UNL     1      27.866  42.990  52.086  1.00  0.00    -0.272 OA
BRANCH  10  13
HETATM   13  C   UNL     1      28.547  44.535  54.527  1.00  0.00     0.034 A 
HETATM   14  C   UNL     1      29.521  43.539  54.425  1.00  0.00     0.030 A 
HETATM   15  C   UNL     1      30.529  43.424  55.393  1.00  0.00     0.019 A 
HETATM   16  C   UNL     1      30.569  44.302  56.479  1.00  0.00     0.032 A 
HETATM   17  C   UNL     1      29.603  45.308  56.577  1.00  0.00     0.019 A 
HETATM   18  C   UNL     1      28.599  45.421  55.610  1.00  0.00     0.030 A 
BRANCH  16  19
HETATM   19  C   UNL     1      31.617  44.231  57.532  1.00  0.00     0.249 C 
HETATM   20  N   UNL     1      31.534  45.110  58.575  1.00  0.00    -0.366 N 
HETATM   21  H   UNL     1      30.926  45.915  58.579  1.00  0.00     0.159 HD
HETATM   22  H   UNL     1      32.306  45.103  59.230  1.00  0.00     0.159 HD
HETATM   23  O   UNL     1      32.545  43.436  57.456  1.00  0.00    -0.268 OA
ENDBRANCH  16  19
ENDBRANCH  10  13
ENDBRANCH   7   9
ENDBRANCH   6   7
ENDBRANCH   1   6
BRANCH   2  24
HETATM   24  C   UNL     1      23.652  44.991  48.991  1.00  0.00     0.043 A 
HETATM   25  C   UNL     1      23.168  44.081  49.943  1.00  0.00     0.033 A 
HETATM   26  C   UNL     1      22.713  42.822  49.541  1.00  0.00     0.044 A 
HETATM   27  C   UNL     1      22.746  42.475  48.197  1.00  0.00     0.116 A 
HETATM   28  F   UNL     1      22.308  41.271  47.813  1.00  0.00    -0.206 F 
HETATM   29  C   UNL     1      23.233  43.362  47.245  1.00  0.00     0.044 A 
HETATM   30  C   UNL     1      23.690  44.624  47.637  1.00  0.00     0.033 A 
ENDBRANCH   2  24
BRANCH   3  31
HETATM   31  C   UNL     1      22.020  47.663  48.694  1.00  0.00     0.315 C 
BRANCH  31  32
HETATM   32  N   UNL     1      21.421  49.013  49.084  1.00  0.00    -0.064 N 
HETATM   33  H   UNL     1      22.067  49.381  49.801  1.00  0.00     0.280 HD
HETATM   34  C   UNL     1      21.448  50.013  47.947  1.00  0.00     0.235 C 
HETATM   35  C   UNL     1      21.022  51.376  48.472  1.00  0.00     0.028 C 
HETATM   36  C   UNL     1      19.646  51.315  49.126  1.00  0.00     0.003 C 
HETATM   37  C   UNL     1      19.596  50.245  50.211  1.00  0.00     0.028 C 
HETATM   38  C   UNL     1      20.052  48.887  49.695  1.00  0.00     0.235 C 
ENDBRANCH  31  32
ENDBRANCH   3  31
TORSDOF 8
ENDMDL
MODEL 4
REMARK VINA RESULT:      -9.0      2.592      3.769
REMARK  8 active torsions:
REMARK  status: ('A' for Active; 'I' for Inactive)
REMARK    1  A    between atoms: C_2  and  S_3 
REMARK    2  A    between atoms: C_2  and  C_24 
REMARK    3  A    between atoms: S_3  and  C_4 
REMARK    4  A    between atoms: N_5  and  C_6 
REMARK    5  A    between atoms: C_13  and  C_14 
REMARK    6  A    between atoms: C_14  and  N_15 
REMARK       I    between atoms: C_24  and  N_25 
REMARK    7  A    between atoms: N_25  and  C_26 
REMARK    8  A    between atoms: C_29  and  C_30 
REMARK       I    between atoms: C_30  and  N_31 
ROOT
HETATM    1  C   UNL     1      26.052  46.798  51.179  1.00  0.00     0.197 A 
HETATM    2  N   UNL     1      26.143  45.567  51.812  1.00  0.00    -0.274 N 
HETATM    3  C   UNL     1      26.315  45.904  53.153  1.00  0.00     0.161 A 
HETATM    4  N   UNL     1      26.396  47.215  53.276  1.00  0.00    -0.132 NA
HETATM    5  N   UNL     1      26.218  47.769  52.048  1.00  0.00    -0.122 NA
ENDROOT
BRANCH   1   6
HETATM    6  S   UNL     1      25.583  47.034  49.528  1.00  0.00    -0.076 SA
BRANCH   6   7
HETATM    7  C   UNL     1      23.760  46.876  49.631  1.00  0.00     0.143 C 
HETATM    8  C   UNL     1      23.283  45.631  48.885  1.00  0.00     0.031 C 
BRANCH   7   9
HETATM    9  C   UNL     1      23.071  48.119  49.043  1.00  0.00     0.236 C 
HETATM   10  N   UNL     1      21.790  48.293  49.560  1.00  0.00    -0.326 N 
HETATM   11  H   UNL     1      21.482  47.632  50.263  1.00  0.00     0.169 HD
HETATM   12  O   UNL     1      23.600  48.836  48.200  1.00  0.00    -0.272 OA
BRANCH  10  13
HETATM   13  C   UNL     1      20.850  49.288  49.222  1.00  0.00     0.034 A 
HETATM   14  C   UNL     1      21.008  50.647  49.503  1.00  0.00     0.030 A 
HETATM   15  C   UNL     1      20.026  51.574  49.124  1.00  0.00     0.019 A 
HETATM   16  C   UNL     1      18.869  51.148  48.465  1.00  0.00     0.032 A 
HETATM   17  C   UNL     1      18.714  49.789  48.172  1.00  0.00     0.019 A 
HETATM   18  C   UNL     1      19.695  48.868  48.550  1.00  0.00     0.030 A 
BRANCH  16  19
HETATM   19  C   UNL     1      17.798  52.085  48.036  1.00  0.00     0.249 C 
HETATM   20  N   UNL     1      17.525  53.156  48.840  1.00  0.00    -0.366 N 
HETATM   21  H   UNL     1      17.869  53.245  49.784  1.00  0.00     0.159 HD
HETATM   22  H   UNL     1      16.734  53.728  48.573  1.00  0.00     0.159 HD
HETATM   23  O   UNL     1      17.154  51.891  47.012  1.00  0.00    -0.268 OA
ENDBRANCH  16  19
ENDBRANCH  10  13
ENDBRANCH   7   9
ENDBRANCH   6   7
ENDBRANCH   1   6
BRANCH   2  24
HETATM   24  C   UNL     1      26.137  44.262  51.249  1.00  0.00     0.043 A 
HETATM   25  C   UNL     1      24.947  43.518  51.222  1.00  0.00     0.033 A 
HETATM   26  C   UNL     1      24.927  42.248  50.639  1.00  0.00     0.044 A 
HETATM   27  C   UNL     1      26.090  41.724  50.090  1.00  0.00     0.116 A 
HETATM   28  F   UNL     1      26.069  40.510  49.529  1.00  0.00    -0.206 F 
HETATM   29  C   UNL     1      27.278  42.445  50.119  1.00  0.00     0.044 A 
HETATM   30  C   UNL     1      27.307  43.716  50.700  1.00  0.00     0.033 A 
ENDBRANCH   2  24
BRANCH   3  31
HETATM   31  C   UNL     1      26.564  44.967  54.284  1.00  0.00     0.315 C 
BRANCH  31  32
HETATM   32  N   UNL     1      28.052  44.663  54.445  1.00  0.00    -0.064 N 
HETATM   33  H   UNL     1      28.504  45.185  53.676  1.00  0.00     0.280 HD
HETATM   34  C   UNL     1      28.627  45.230  55.726  1.00  0.00     0.235 C 
HETATM   35  C   UNL     1      30.139  45.058  55.713  1.00  0.00     0.028 C 
HETATM   36  C   UNL     1      30.531  43.597  55.526  1.00  0.00     0.003 C 
HETATM   37  C   UNL     1      29.879  43.004  54.282  1.00  0.00     0.028 C 
HETATM   38  C   UNL     1      28.369  43.202  54.279  1.00  0.00     0.235 C 
ENDBRANCH  31  32
ENDBRANCH   3  31
TORSDOF 8
ENDMDL
MODEL 5
REMARK VINA RESULT:      -8.8      3.946      5.867
REMARK  8 active torsions:
REMARK  status: ('A' for Active; 'I' for Inactive)
REMARK    1  A    between atoms: C_2  and  S_3 
REMARK    2  A    between atoms: C_2  and  C_24 
REMARK    3  A    between atoms: S_3  and  C_4 
REMARK    4  A    between atoms: N_5  and  C_6 
REMARK    5  A    between atoms: C_13  and  C_14 
REMARK    6  A    between atoms: C_14  and  N_15 
REMARK       I    between atoms: C_24  and  N_25 
REMARK    7  A    between atoms: N_25  and  C_26 
REMARK    8  A    between atoms: C_29  and  C_30 
REMARK       I    between atoms: C_30  and  N_31 
ROOT
HETATM    1  C   UNL     1      20.782  47.107  47.261  1.00  0.00     0.197 A 
HETATM    2  N   UNL     1      21.249  48.013  48.202  1.00  0.00    -0.274 N 
HETATM    3  C   UNL     1      22.490  47.494  48.565  1.00  0.00     0.161 A 
HETATM    4  N   UNL     1      22.689  46.345  47.946  1.00  0.00    -0.132 NA
HETATM    5  N   UNL     1      21.631  46.115  47.126  1.00  0.00    -0.122 NA
ENDROOT
BRANCH   1   6
HETATM    6  S   UNL     1      19.389  47.345  46.259  1.00  0.00    -0.076 SA
BRANCH   6   7
HETATM    7  C   UNL     1      18.039  46.753  47.349  1.00  0.00     0.143 C 
HETATM    8  C   UNL     1      17.437  45.458  46.807  1.00  0.00     0.031 C 
BRANCH   7   9
HETATM    9  C   UNL     1      16.934  47.817  47.474  1.00  0.00     0.236 C 
HETATM   10  N   UNL     1      17.326  49.036  46.928  1.00  0.00    -0.326 N 
HETATM   11  H   UNL     1      18.241  49.075  46.494  1.00  0.00     0.169 HD
HETATM   12  O   UNL     1      15.858  47.597  48.020  1.00  0.00    -0.272 OA
BRANCH  10  13
HETATM   13  C   UNL     1      16.600  50.244  46.903  1.00  0.00     0.034 A 
HETATM   14  C   UNL     1      16.153  50.869  45.737  1.00  0.00     0.030 A 
HETATM   15  C   UNL     1      15.429  52.068  45.801  1.00  0.00     0.019 A 
HETATM   16  C   UNL     1      15.151  52.660  47.037  1.00  0.00     0.032 A 
HETATM   17  C   UNL     1      15.587  52.030  48.207  1.00  0.00     0.019 A 
HETATM   18  C   UNL     1      16.308  50.833  48.139  1.00  0.00     0.030 A 
BRANCH  16  19
HETATM   19  C   UNL     1      14.383  53.927  47.167  1.00  0.00     0.249 C 
HETATM   20  N   UNL     1      14.536  54.651  48.316  1.00  0.00    -0.366 N 
HETATM   21  H   UNL     1      14.983  54.291  49.146  1.00  0.00     0.159 HD
HETATM   22  H   UNL     1      13.937  55.461  48.419  1.00  0.00     0.159 HD
HETATM   23  O   UNL     1      13.612  54.298  46.291  1.00  0.00    -0.268 OA
ENDBRANCH  16  19
ENDBRANCH  10  13
ENDBRANCH   7   9
ENDBRANCH   6   7
ENDBRANCH   1   6
BRANCH   2  24
HETATM   24  C   UNL     1      20.610  49.164  48.739  1.00  0.00     0.043 A 
HETATM   25  C   UNL     1      20.816  50.419  48.145  1.00  0.00     0.033 A 
HETATM   26  C   UNL     1      20.163  51.549  48.648  1.00  0.00     0.044 A 
HETATM   27  C   UNL     1      19.315  51.424  49.740  1.00  0.00     0.116 A 
HETATM   28  F   UNL     1      18.689  52.505  50.218  1.00  0.00    -0.206 F 
HETATM   29  C   UNL     1      19.110  50.190  50.345  1.00  0.00     0.044 A 
HETATM   30  C   UNL     1      19.758  49.055  49.849  1.00  0.00     0.033 A 
ENDBRANCH   2  24
BRANCH   3  31
HETATM   31  C   UNL     1      23.402  48.015  49.620  1.00  0.00     0.315 C 
BRANCH  31  32
HETATM   32  N   UNL     1      24.766  48.396  49.047  1.00  0.00    -0.064 N 
HETATM   33  H   UNL     1      24.843  47.838  48.180  1.00  0.00     0.280 HD
HETATM   34  C   UNL     1      24.832  49.845  48.614  1.00  0.00     0.235 C 
HETATM   35  C   UNL     1      26.143  50.086  47.879  1.00  0.00     0.028 C 
HETATM   36  C   UNL     1      27.342  49.708  48.741  1.00  0.00     0.003 C 
HETATM   37  C   UNL     1      27.228  48.274  49.248  1.00  0.00     0.028 C 
HETATM   38  C   UNL     1      25.904  48.023  49.956  1.00  0.00     0.235 C 
ENDBRANCH  31  32
ENDBRANCH   3  31
TORSDOF 8
ENDMDL
MODEL 6
REMARK VINA RESULT:      -8.5      3.910      9.334
REMARK  8 active torsions:
REMARK  status: ('A' for Active; 'I' for Inactive)
REMARK    1  A    between atoms: C_2  and  S_3 
REMARK    2  A    between atoms: C_2  and  C_24 
REMARK    3  A    between atoms: S_3  and  C_4 
REMARK    4  A    between atoms: N_5  and  C_6 
REMARK    5  A    between atoms: C_13  and  C_14 
REMARK    6  A    between atoms: C_14  and  N_15 
REMARK       I    between atoms: C_24  and  N_25 
REMARK    7  A    between atoms: N_25  and  C_26 
REMARK    8  A    between atoms: C_29  and  C_30 
REMARK       I    between atoms: C_30  and  N_31 
ROOT
HETATM    1  C   UNL     1      25.027  45.177  51.986  1.00  0.00     0.197 A 
HETATM    2  N   UNL     1      24.796  45.685  50.717  1.00  0.00    -0.274 N 
HETATM    3  C   UNL     1      23.873  44.793  50.173  1.00  0.00     0.161 A 
HETATM    4  N   UNL     1      23.650  43.810  51.024  1.00  0.00    -0.132 NA
HETATM    5  N   UNL     1      24.359  44.059  52.157  1.00  0.00    -0.122 NA
ENDROOT
BRANCH   1   6
HETATM    6  S   UNL     1      25.900  45.994  53.240  1.00  0.00    -0.076 SA
BRANCH   6   7
HETATM    7  C   UNL     1      26.778  44.603  54.050  1.00  0.00     0.143 C 
HETATM    8  C   UNL     1      27.730  45.121  55.127  1.00  0.00     0.031 C 
BRANCH   7   9
HETATM    9  C   UNL     1      27.572  43.785  53.017  1.00  0.00     0.236 C 
HETATM   10  N   UNL     1      27.014  42.525  52.818  1.00  0.00    -0.326 N 
HETATM   11  H   UNL     1      26.164  42.311  53.324  1.00  0.00     0.169 HD
HETATM   12  O   UNL     1      28.587  44.206  52.473  1.00  0.00    -0.272 OA
BRANCH  10  13
HETATM   13  C   UNL     1      27.493  41.491  51.987  1.00  0.00     0.034 A 
HETATM   14  C   UNL     1      28.651  40.752  52.239  1.00  0.00     0.030 A 
HETATM   15  C   UNL     1      29.053  39.733  51.364  1.00  0.00     0.019 A 
HETATM   16  C   UNL     1      28.303  39.447  50.220  1.00  0.00     0.032 A 
HETATM   17  C   UNL     1      27.136  40.177  49.972  1.00  0.00     0.019 A 
HETATM   18  C   UNL     1      26.737  41.192  50.847  1.00  0.00     0.030 A 
BRANCH  16  19
HETATM   19  C   UNL     1      28.677  38.375  49.260  1.00  0.00     0.249 C 
HETATM   20  N   UNL     1      29.632  37.477  49.645  1.00  0.00    -0.366 N 
HETATM   21  H   UNL     1      30.225  37.606  50.452  1.00  0.00     0.159 HD
HETATM   22  H   UNL     1      29.934  36.814  48.943  1.00  0.00     0.159 HD
HETATM   23  O   UNL     1      28.174  38.313  48.145  1.00  0.00    -0.268 OA
ENDBRANCH  16  19
ENDBRANCH  10  13
ENDBRANCH   7   9
ENDBRANCH   6   7
ENDBRANCH   1   6
BRANCH   2  24
HETATM   24  C   UNL     1      25.392  46.803  50.071  1.00  0.00     0.043 A 
HETATM   25  C   UNL     1      24.611  47.926  49.754  1.00  0.00     0.033 A 
HETATM   26  C   UNL     1      25.199  49.041  49.151  1.00  0.00     0.044 A 
HETATM   27  C   UNL     1      26.558  49.031  48.863  1.00  0.00     0.116 A 
HETATM   28  F   UNL     1      27.120  50.100  48.288  1.00  0.00    -0.206 F 
HETATM   29  C   UNL     1      27.341  47.923  49.161  1.00  0.00     0.044 A 
HETATM   30  C   UNL     1      26.761  46.803  49.765  1.00  0.00     0.033 A 
ENDBRANCH   2  24
BRANCH   3  31
HETATM   31  C   UNL     1      23.338  44.800  48.783  1.00  0.00     0.315 C 
BRANCH  31  32
HETATM   32  N   UNL     1      22.144  45.742  48.645  1.00  0.00    -0.064 N 
HETATM   33  H   UNL     1      22.229  46.382  49.452  1.00  0.00     0.280 HD
HETATM   34  C   UNL     1      22.231  46.616  47.412  1.00  0.00     0.235 C 
HETATM   35  C   UNL     1      21.117  47.652  47.455  1.00  0.00     0.028 C 
HETATM   36  C   UNL     1      19.748  46.993  47.574  1.00  0.00     0.003 C 
HETATM   37  C   UNL     1      19.692  46.045  48.768  1.00  0.00     0.028 C 
HETATM   38  C   UNL     1      20.824  45.027  48.742  1.00  0.00     0.235 C 
ENDBRANCH  31  32
ENDBRANCH   3  31
TORSDOF 8
ENDMDL
MODEL 7
REMARK VINA RESULT:      -8.3      4.911      9.256
REMARK  8 active torsions:
REMARK  status: ('A' for Active; 'I' for Inactive)
REMARK    1  A    between atoms: C_2  and  S_3 
REMARK    2  A    between atoms: C_2  and  C_24 
REMARK    3  A    between atoms: S_3  and  C_4 
REMARK    4  A    between atoms: N_5  and  C_6 
REMARK    5  A    between atoms: C_13  and  C_14 
REMARK    6  A    between atoms: C_14  and  N_15 
REMARK       I    between atoms: C_24  and  N_25 
REMARK    7  A    between atoms: N_25  and  C_26 
REMARK    8  A    between atoms: C_29  and  C_30 
REMARK       I    between atoms: C_30  and  N_31 
ROOT
HETATM    1  C   UNL     1      23.191  44.215  48.294  1.00  0.00     0.197 A 
HETATM    2  N   UNL     1      23.871  44.947  49.255  1.00  0.00    -0.274 N 
HETATM    3  C   UNL     1      23.370  46.238  49.096  1.00  0.00     0.161 A 
HETATM    4  N   UNL     1      22.530  46.266  48.079  1.00  0.00    -0.132 NA
HETATM    5  N   UNL     1      22.410  45.003  47.591  1.00  0.00    -0.122 NA
ENDROOT
BRANCH   1   6
HETATM    6  S   UNL     1      23.204  42.487  48.167  1.00  0.00    -0.076 SA
BRANCH   6   7
HETATM    7  C   UNL     1      24.035  42.238  46.552  1.00  0.00     0.143 C 
HETATM    8  C   UNL     1      23.036  41.764  45.499  1.00  0.00     0.031 C 
BRANCH   7   9
HETATM    9  C   UNL     1      25.171  41.208  46.678  1.00  0.00     0.236 C 
HETATM   10  N   UNL     1      25.595  41.065  47.996  1.00  0.00    -0.326 N 
HETATM   11  H   UNL     1      25.105  41.603  48.700  1.00  0.00     0.169 HD
HETATM   12  O   UNL     1      25.645  40.621  45.711  1.00  0.00    -0.272 OA
BRANCH  10  13
HETATM   13  C   UNL     1      26.640  40.253  48.483  1.00  0.00     0.034 A 
HETATM   14  C   UNL     1      26.482  38.926  48.887  1.00  0.00     0.030 A 
HETATM   15  C   UNL     1      27.578  38.185  49.353  1.00  0.00     0.019 A 
HETATM   16  C   UNL     1      28.845  38.770  49.427  1.00  0.00     0.032 A 
HETATM   17  C   UNL     1      29.009  40.095  49.012  1.00  0.00     0.019 A 
HETATM   18  C   UNL     1      27.915  40.831  48.547  1.00  0.00     0.030 A 
BRANCH  16  19
HETATM   19  C   UNL     1      30.044  38.032  49.908  1.00  0.00     0.249 C 
HETATM   20  N   UNL     1      31.269  38.448  49.467  1.00  0.00    -0.366 N 
HETATM   21  H   UNL     1      31.396  39.092  48.700  1.00  0.00     0.159 HD
HETATM   22  H   UNL     1      32.060  37.876  49.735  1.00  0.00     0.159 HD
HETATM   23  O   UNL     1      29.942  37.062  50.648  1.00  0.00    -0.268 OA
ENDBRANCH  16  19
ENDBRANCH  10  13
ENDBRANCH   7   9
ENDBRANCH   6   7
ENDBRANCH   1   6
BRANCH   2  24
HETATM   24  C   UNL     1      24.891  44.528  50.153  1.00  0.00     0.043 A 
HETATM   25  C   UNL     1      26.199  44.330  49.684  1.00  0.00     0.033 A 
HETATM   26  C   UNL     1      27.212  43.952  50.569  1.00  0.00     0.044 A 
HETATM   27  C   UNL     1      26.917  43.769  51.914  1.00  0.00     0.116 A 
HETATM   28  F   UNL     1      27.889  43.410  52.761  1.00  0.00    -0.206 F 
HETATM   29  C   UNL     1      25.625  43.950  52.391  1.00  0.00     0.044 A 
HETATM   30  C   UNL     1      24.605  44.329  51.513  1.00  0.00     0.033 A 
ENDBRANCH   2  24
BRANCH   3  31
HETATM   31  C   UNL     1      23.819  47.465  49.811  1.00  0.00     0.315 C 
BRANCH  31  32
HETATM   32  N   UNL     1      25.042  48.089  49.142  1.00  0.00    -0.064 N 
HETATM   33  H   UNL     1      25.163  47.544  48.272  1.00  0.00     0.280 HD
HETATM   34  C   UNL     1      24.801  49.519  48.706  1.00  0.00     0.235 C 
HETATM   35  C   UNL     1      25.987  49.995  47.879  1.00  0.00     0.028 C 
HETATM   36  C   UNL     1      27.294  49.862  48.654  1.00  0.00     0.003 C 
HETATM   37  C   UNL     1      27.490  48.440  49.167  1.00  0.00     0.028 C 
HETATM   38  C   UNL     1      26.291  47.951  49.968  1.00  0.00     0.235 C 
ENDBRANCH  31  32
ENDBRANCH   3  31
TORSDOF 8
ENDMDL
MODEL 8
REMARK VINA RESULT:      -8.2     12.031     14.996
REMARK  8 active torsions:
REMARK  status: ('A' for Active; 'I' for Inactive)
REMARK    1  A    between atoms: C_2  and  S_3 
REMARK    2  A    between atoms: C_2  and  C_24 
REMARK    3  A    between atoms: S_3  and  C_4 
REMARK    4  A    between atoms: N_5  and  C_6 
REMARK    5  A    between atoms: C_13  and  C_14 
REMARK    6  A    between atoms: C_14  and  N_15 
REMARK       I    between atoms: C_24  and  N_25 
REMARK    7  A    between atoms: N_25  and  C_26 
REMARK    8  A    between atoms: C_29  and  C_30 
REMARK       I    between atoms: C_30  and  N_31 
ROOT
HETATM    1  C   UNL     1      28.470  50.670  38.420  1.00  0.00     0.197 A 
HETATM    2  N   UNL     1      28.566  49.465  39.098  1.00  0.00    -0.274 N 
HETATM    3  C   UNL     1      27.364  48.826  38.798  1.00  0.00     0.161 A 
HETATM    4  N   UNL     1      26.604  49.626  38.074  1.00  0.00    -0.132 NA
HETATM    5  N   UNL     1      27.301  50.767  37.829  1.00  0.00    -0.122 NA
ENDROOT
BRANCH   1   6
HETATM    6  S   UNL     1      29.769  51.797  38.206  1.00  0.00    -0.076 SA
BRANCH   6   7
HETATM    7  C   UNL     1      29.821  52.621  39.842  1.00  0.00     0.143 C 
HETATM    8  C   UNL     1      29.132  53.983  39.783  1.00  0.00     0.031 C 
BRANCH   7   9
HETATM    9  C   UNL     1      31.274  52.805  40.313  1.00  0.00     0.236 C 
HETATM   10  N   UNL     1      32.013  51.632  40.180  1.00  0.00    -0.326 N 
HETATM   11  H   UNL     1      31.542  50.834  39.771  1.00  0.00     0.169 HD
HETATM   12  O   UNL     1      31.695  53.861  40.773  1.00  0.00    -0.272 OA
BRANCH  10  13
HETATM   13  C   UNL     1      33.355  51.411  40.551  1.00  0.00     0.034 A 
HETATM   14  C   UNL     1      34.440  51.521  39.679  1.00  0.00     0.030 A 
HETATM   15  C   UNL     1      35.747  51.290  40.132  1.00  0.00     0.019 A 
HETATM   16  C   UNL     1      35.981  50.938  41.464  1.00  0.00     0.032 A 
HETATM   17  C   UNL     1      34.897  50.839  42.343  1.00  0.00     0.019 A 
HETATM   18  C   UNL     1      33.595  51.071  41.888  1.00  0.00     0.030 A 
BRANCH  16  19
HETATM   19  C   UNL     1      37.345  50.687  42.002  1.00  0.00     0.249 C 
HETATM   20  N   UNL     1      37.450  50.194  43.272  1.00  0.00    -0.366 N 
HETATM   21  H   UNL     1      36.681  50.170  43.925  1.00  0.00     0.159 HD
HETATM   22  H   UNL     1      38.386  50.117  43.648  1.00  0.00     0.159 HD
HETATM   23  O   UNL     1      38.346  50.943  41.345  1.00  0.00    -0.268 OA
ENDBRANCH  16  19
ENDBRANCH  10  13
ENDBRANCH   7   9
ENDBRANCH   6   7
ENDBRANCH   1   6
BRANCH   2  24
HETATM   24  C   UNL     1      29.597  48.993  39.957  1.00  0.00     0.043 A 
HETATM   25  C   UNL     1      30.698  48.310  39.418  1.00  0.00     0.033 A 
HETATM   26  C   UNL     1      31.731  47.875  40.253  1.00  0.00     0.044 A 
HETATM   27  C   UNL     1      31.660  48.118  41.618  1.00  0.00     0.116 A 
HETATM   28  F   UNL     1      32.651  47.704  42.416  1.00  0.00    -0.206 F 
HETATM   29  C   UNL     1      30.571  48.783  42.167  1.00  0.00     0.044 A 
HETATM   30  C   UNL     1      29.533  49.222  41.340  1.00  0.00     0.033 A 
ENDBRANCH   2  24
BRANCH   3  31
HETATM   31  C   UNL     1      26.885  47.525  39.341  1.00  0.00     0.315 C 
BRANCH  31  32
HETATM   32  N   UNL     1      27.586  46.344  38.671  1.00  0.00    -0.064 N 
HETATM   33  H   UNL     1      28.280  46.782  38.044  1.00  0.00     0.280 HD
HETATM   34  C   UNL     1      28.380  45.507  39.651  1.00  0.00     0.235 C 
HETATM   35  C   UNL     1      29.199  44.481  38.880  1.00  0.00     0.028 C 
HETATM   36  C   UNL     1      28.313  43.612  37.996  1.00  0.00     0.003 C 
HETATM   37  C   UNL     1      27.449  44.463  37.072  1.00  0.00     0.028 C 
HETATM   38  C   UNL     1      26.652  45.509  37.838  1.00  0.00     0.235 C 
ENDBRANCH  31  32
ENDBRANCH   3  31
TORSDOF 8
ENDMDL
MODEL 9
REMARK VINA RESULT:      -8.1      5.462     10.482
REMARK  8 active torsions:
REMARK  status: ('A' for Active; 'I' for Inactive)
REMARK    1  A    between atoms: C_2  and  S_3 
REMARK    2  A    between atoms: C_2  and  C_24 
REMARK    3  A    between atoms: S_3  and  C_4 
REMARK    4  A    between atoms: N_5  and  C_6 
REMARK    5  A    between atoms: C_13  and  C_14 
REMARK    6  A    between atoms: C_14  and  N_15 
REMARK       I    between atoms: C_24  and  N_25 
REMARK    7  A    between atoms: N_25  and  C_26 
REMARK    8  A    between atoms: C_29  and  C_30 
REMARK       I    between atoms: C_30  and  N_31 
ROOT
HETATM    1  C   UNL     1      25.356  43.592  49.869  1.00  0.00     0.197 A 
HETATM    2  N   UNL     1      25.510  42.392  49.191  1.00  0.00    -0.274 N 
HETATM    3  C   UNL     1      24.275  42.209  48.571  1.00  0.00     0.161 A 
HETATM    4  N   UNL     1      23.452  43.179  48.923  1.00  0.00    -0.132 NA
HETATM    5  N   UNL     1      24.132  44.045  49.720  1.00  0.00    -0.122 NA
ENDROOT
BRANCH   1   6
HETATM    6  S   UNL     1      26.638  44.475  50.630  1.00  0.00    -0.076 SA
BRANCH   6   7
HETATM    7  C   UNL     1      25.736  45.396  51.933  1.00  0.00     0.143 C 
HETATM    8  C   UNL     1      25.673  46.885  51.596  1.00  0.00     0.031 C 
BRANCH   7   9
HETATM    9  C   UNL     1      26.414  45.210  53.301  1.00  0.00     0.236 C 
HETATM   10  N   UNL     1      27.760  44.881  53.170  1.00  0.00    -0.326 N 
HETATM   11  H   UNL     1      28.136  44.839  52.230  1.00  0.00     0.169 HD
HETATM   12  O   UNL     1      25.810  45.318  54.363  1.00  0.00    -0.272 OA
BRANCH  10  13
HETATM   13  C   UNL     1      28.682  44.591  54.196  1.00  0.00     0.034 A 
HETATM   14  C   UNL     1      29.408  43.402  54.289  1.00  0.00     0.030 A 
HETATM   15  C   UNL     1      30.313  43.196  55.340  1.00  0.00     0.019 A 
HETATM   16  C   UNL     1      30.495  44.179  56.317  1.00  0.00     0.032 A 
HETATM   17  C   UNL     1      29.778  45.376  56.220  1.00  0.00     0.019 A 
HETATM   18  C   UNL     1      28.878  45.578  55.170  1.00  0.00     0.030 A 
BRANCH  16  19
HETATM   19  C   UNL     1      31.443  44.019  57.451  1.00  0.00     0.249 C 
HETATM   20  N   UNL     1      31.413  44.955  58.446  1.00  0.00    -0.366 N 
HETATM   21  H   UNL     1      30.927  45.836  58.367  1.00  0.00     0.159 HD
HETATM   22  H   UNL     1      32.127  44.876  59.160  1.00  0.00     0.159 HD
HETATM   23  O   UNL     1      32.251  43.099  57.482  1.00  0.00    -0.268 OA
ENDBRANCH  16  19
ENDBRANCH  10  13
ENDBRANCH   7   9
ENDBRANCH   6   7
ENDBRANCH   1   6
BRANCH   2  24
HETATM   24  C   UNL     1      26.620  41.504  49.170  1.00  0.00     0.043 A 
HETATM   25  C   UNL     1      26.890  40.695  50.285  1.00  0.00     0.033 A 
HETATM   26  C   UNL     1      27.959  39.796  50.256  1.00  0.00     0.044 A 
HETATM   27  C   UNL     1      28.755  39.709  49.122  1.00  0.00     0.116 A 
HETATM   28  F   UNL     1      29.776  38.846  49.095  1.00  0.00    -0.206 F 
HETATM   29  C   UNL     1      28.507  40.512  48.015  1.00  0.00     0.044 A 
HETATM   30  C   UNL     1      27.439  41.414  48.035  1.00  0.00     0.033 A 
ENDBRANCH   2  24
BRANCH   3  31
HETATM   31  C   UNL     1      23.841  41.026  47.779  1.00  0.00     0.315 C 
BRANCH  31  32
HETATM   32  N   UNL     1      22.604  41.335  46.938  1.00  0.00    -0.064 N 
HETATM   33  H   UNL     1      22.081  42.028  47.498  1.00  0.00     0.280 HD
HETATM   34  C   UNL     1      22.944  42.028  45.635  1.00  0.00     0.235 C 
HETATM   35  C   UNL     1      21.656  42.475  44.957  1.00  0.00     0.028 C 
HETATM   36  C   UNL     1      20.709  41.302  44.733  1.00  0.00     0.003 C 
HETATM   37  C   UNL     1      20.439  40.553  46.033  1.00  0.00     0.028 C 
HETATM   38  C   UNL     1      21.727  40.132  46.728  1.00  0.00     0.235 C 
ENDBRANCH  31  32
ENDBRANCH   3  31
TORSDOF 8
ENDMDL
MODEL 10
REMARK VINA RESULT:      -8.0      2.256      3.122
REMARK  8 active torsions:
REMARK  status: ('A' for Active; 'I' for Inactive)
REMARK    1  A    between atoms: C_2  and  S_3 
REMARK    2  A    between atoms: C_2  and  C_24 
REMARK    3  A    between atoms: S_3  and  C_4 
REMARK    4  A    between atoms: N_5  and  C_6 
REMARK    5  A    between atoms: C_13  and  C_14 
REMARK    6  A    between atoms: C_14  and  N_15 
REMARK       I    between atoms: C_24  and  N_25 
REMARK    7  A    between atoms: N_25  and  C_26 
REMARK    8  A    between atoms: C_29  and  C_30 
REMARK       I    between atoms: C_30  and  N_31 
ROOT
HETATM    1  C   UNL     1      23.656  43.225  50.029  1.00  0.00     0.197 A 
HETATM    2  N   UNL     1      24.881  43.700  50.472  1.00  0.00    -0.274 N 
HETATM    3  C   UNL     1      25.797  42.813  49.908  1.00  0.00     0.161 A 
HETATM    4  N   UNL     1      25.152  41.861  49.259  1.00  0.00    -0.132 NA
HETATM    5  N   UNL     1      23.821  42.128  49.325  1.00  0.00    -0.122 NA
ENDROOT
BRANCH   1   6
HETATM    6  S   UNL     1      22.147  44.060  50.197  1.00  0.00    -0.076 SA
BRANCH   6   7
HETATM    7  C   UNL     1      21.868  44.674  48.493  1.00  0.00     0.143 C 
HETATM    8  C   UNL     1      23.143  45.298  47.929  1.00  0.00     0.031 C 
BRANCH   7   9
HETATM    9  C   UNL     1      20.736  45.716  48.468  1.00  0.00     0.236 C 
HETATM   10  N   UNL     1      21.191  46.983  48.824  1.00  0.00    -0.326 N 
HETATM   11  H   UNL     1      22.181  47.081  49.015  1.00  0.00     0.169 HD
HETATM   12  O   UNL     1      19.576  45.430  48.192  1.00  0.00    -0.272 OA
BRANCH  10  13
HETATM   13  C   UNL     1      20.436  48.166  48.956  1.00  0.00     0.034 A 
HETATM   14  C   UNL     1      19.391  48.334  49.867  1.00  0.00     0.030 A 
HETATM   15  C   UNL     1      18.694  49.548  49.940  1.00  0.00     0.019 A 
HETATM   16  C   UNL     1      19.032  50.608  49.094  1.00  0.00     0.032 A 
HETATM   17  C   UNL     1      20.087  50.447  48.189  1.00  0.00     0.019 A 
HETATM   18  C   UNL     1      20.780  49.235  48.120  1.00  0.00     0.030 A 
BRANCH  16  19
HETATM   19  C   UNL     1      18.333  51.920  49.129  1.00  0.00     0.249 C 
HETATM   20  N   UNL     1      18.641  52.834  48.161  1.00  0.00    -0.366 N 
HETATM   21  H   UNL     1      19.437  52.749  47.548  1.00  0.00     0.159 HD
HETATM   22  H   UNL     1      18.221  53.750  48.259  1.00  0.00     0.159 HD
HETATM   23  O   UNL     1      17.530  52.191  50.013  1.00  0.00    -0.268 OA
ENDBRANCH  16  19
ENDBRANCH  10  13
ENDBRANCH   7   9
ENDBRANCH   6   7
ENDBRANCH   1   6
BRANCH   2  24
HETATM   24  C   UNL     1      25.165  44.784  51.348  1.00  0.00     0.043 A 
HETATM   25  C   UNL     1      25.081  44.601  52.737  1.00  0.00     0.033 A 
HETATM   26  C   UNL     1      25.393  45.653  53.602  1.00  0.00     0.044 A 
HETATM   27  C   UNL     1      25.782  46.880  53.082  1.00  0.00     0.116 A 
HETATM   28  F   UNL     1      26.083  47.885  53.911  1.00  0.00    -0.206 F 
HETATM   29  C   UNL     1      25.859  47.079  51.709  1.00  0.00     0.044 A 
HETATM   30  C   UNL     1      25.549  46.032  50.835  1.00  0.00     0.033 A 
ENDBRANCH   2  24
BRANCH   3  31
HETATM   31  C   UNL     1      27.269  42.789  50.129  1.00  0.00     0.315 C 
BRANCH  31  32
HETATM   32  N   UNL     1      27.613  42.634  51.609  1.00  0.00    -0.064 N 
HETATM   33  H   UNL     1      26.698  42.665  52.088  1.00  0.00     0.280 HD
HETATM   34  C   UNL     1      28.204  41.277  51.930  1.00  0.00     0.235 C 
HETATM   35  C   UNL     1      28.331  41.134  53.440  1.00  0.00     0.028 C 
HETATM   36  C   UNL     1      29.166  42.260  54.038  1.00  0.00     0.003 C 
HETATM   37  C   UNL     1      28.619  43.627  53.638  1.00  0.00     0.028 C 
HETATM   38  C   UNL     1      28.463  43.760  52.130  1.00  0.00     0.235 C 
ENDBRANCH  31  32
ENDBRANCH   3  31
TORSDOF 8
ENDMDL
