MODEL 1
REMARK VINA RESULT:      -8.8      0.000      0.000
REMARK  8 active torsions:
REMARK  status: ('A' for Active; 'I' for Inactive)
REMARK    1  A    between atoms: O_2  and  C_3 
REMARK    2  A    between atoms: C_4  and  O_5 
REMARK    3  A    between atoms: C_6  and  C_7 
REMARK    4  A    between atoms: C_7  and  C_8 
REMARK    5  A    between atoms: C_11  and  C_12 
REMARK    6  A    between atoms: C_12  and  N_13 
REMARK    7  A    between atoms: C_16  and  N_17 
REMARK       I    between atoms: N_17  and  C_18 
REMARK       I    between atoms: C_18  and  N_19 
REMARK    8  A    between atoms: N_19  and  C_20 
ROOT
HETATM    1  N   UNL     1      25.460  45.000  50.740  1.00  0.00    -0.065 N 
HETATM    2  H   UNL     1      24.513  45.030  50.340  1.00  0.00     0.280 HD
HETATM    3  C   UNL     1      25.451  43.962  51.853  1.00  0.00     0.260 C 
HETATM    4  C   UNL     1      26.703  43.100  51.601  1.00  0.00     0.113 C 
HETATM    5  C   UNL     1      26.727  43.061  50.079  1.00  0.00     0.054 C 
HETATM    6  C   UNL     1      26.410  44.494  49.677  1.00  0.00     0.237 C 
ENDROOT
BRANCH   1   7
HETATM    7  C   UNL     1      25.754  46.398  51.223  1.00  0.00     0.273 C 
BRANCH   7   8
HETATM    8  C   UNL     1      25.226  47.431  50.260  1.00  0.00    -0.029 A 
HETATM    9  C   UNL     1      23.856  47.451  49.938  1.00  0.00     0.019 A 
HETATM   10  C   UNL     1      23.342  48.340  48.976  1.00  0.00    -0.018 A 
HETATM   11  C   UNL     1      24.231  49.196  48.321  1.00  0.00     0.105 A 
HETATM   12  C   UNL     1      25.582  49.218  48.670  1.00  0.00     0.102 A 
HETATM   13  C   UNL     1      26.086  48.331  49.620  1.00  0.00     0.048 A 
BRANCH  10  14
HETATM   14  C   UNL     1      21.869  48.315  48.638  1.00  0.00     0.068 C 
BRANCH  14  15
HETATM   15  C   UNL     1      21.404  46.944  48.233  1.00  0.00    -0.032 C 
HETATM   16  C   UNL     1      21.670  46.369  47.052  1.00  0.00     0.007 C 
ENDBRANCH  14  15
ENDBRANCH  10  14
BRANCH  11  17
HETATM   17  O   UNL     1      23.770  49.990  47.310  1.00  0.00    -0.357 OA
HETATM   18  H   UNL     1      24.467  50.644  47.118  1.00  0.00     0.218 HD
ENDBRANCH  11  17
BRANCH  12  19
HETATM   19  O   UNL     1      26.462  50.051  48.031  1.00  0.00    -0.353 OA
HETATM   20  C   UNL     1      27.708  50.104  48.737  1.00  0.00     0.210 C 
ENDBRANCH  12  19
ENDBRANCH   7   8
ENDBRANCH   1   7
BRANCH   4  21
HETATM   21  N   UNL     1      27.963  43.639  52.124  1.00  0.00    -0.337 N 
HETATM   22  C   UNL     1      28.129  43.736  53.498  1.00  0.00     0.321 C 
HETATM   23  N   UNL     1      29.425  44.043  53.829  1.00  0.00    -0.309 N 
HETATM   24  O   UNL     1      27.182  43.583  54.255  1.00  0.00    -0.247 OA
HETATM   25  H   UNL     1      30.068  44.213  53.070  1.00  0.00     0.170 HD
HETATM   26  H   UNL     1      28.798  43.278  51.676  1.00  0.00     0.164 HD
BRANCH  23  27
HETATM   27  C   UNL     1      29.968  44.176  55.126  1.00  0.00     0.036 A 
HETATM   28  C   UNL     1      30.799  43.224  55.727  1.00  0.00     0.032 A 
HETATM   29  C   UNL     1      31.302  43.434  57.015  1.00  0.00     0.044 A 
HETATM   30  C   UNL     1      30.978  44.597  57.701  1.00  0.00     0.116 A 
HETATM   31  F   UNL     1      31.463  44.796  58.933  1.00  0.00    -0.206 F 
HETATM   32  C   UNL     1      30.158  45.556  57.123  1.00  0.00     0.044 A 
HETATM   33  C   UNL     1      29.652  45.345  55.837  1.00  0.00     0.032 A 
ENDBRANCH  23  27
ENDBRANCH   4  21
TORSDOF 8
ENDMDL
MODEL 2
REMARK VINA RESULT:      -8.8      4.460      9.823
REMARK  8 active torsions:
REMARK  status: ('A' for Active; 'I' for Inactive)
REMARK    1  A    between atoms: O_2  and  C_3 
REMARK    2  A    between atoms: C_4  and  O_5 
REMARK    3  A    between atoms: C_6  and  C_7 
REMARK    4  A    between atoms: C_7  and  C_8 
REMARK    5  A    between atoms: C_11  and  C_12 
REMARK    6  A    between atoms: C_12  and  N_13 
REMARK    7  A    between atoms: C_16  and  N_17 
REMARK       I    between atoms: N_17  and  C_18 
REMARK       I    between atoms: C_18  and  N_19 
REMARK    8  A    between atoms: N_19  and  C_20 
ROOT
HETATM    1  N   UNL     1      25.476  45.002  51.169  1.00  0.00    -0.065 N 
HETATM    2  H   UNL     1      26.306  44.397  51.232  1.00  0.00     0.280 HD
HETATM    3  C   UNL     1      25.882  46.250  50.400  1.00  0.00     0.260 C 
HETATM    4  C   UNL     1      24.768  46.451  49.355  1.00  0.00     0.113 C 
HETATM    5  C   UNL     1      24.447  45.008  48.993  1.00  0.00     0.054 C 
HETATM    6  C   UNL     1      24.432  44.294  50.336  1.00  0.00     0.237 C 
ENDROOT
BRANCH   1   7
HETATM    7  C   UNL     1      25.055  45.281  52.590  1.00  0.00     0.273 C 
BRANCH   7   8
HETATM    8  C   UNL     1      26.239  45.633  53.453  1.00  0.00    -0.029 A 
HETATM    9  C   UNL     1      27.199  44.651  53.760  1.00  0.00     0.019 A 
HETATM   10  C   UNL     1      28.268  44.919  54.634  1.00  0.00    -0.018 A 
HETATM   11  C   UNL     1      28.346  46.185  55.219  1.00  0.00     0.105 A 
HETATM   12  C   UNL     1      27.428  47.180  54.883  1.00  0.00     0.102 A 
HETATM   13  C   UNL     1      26.368  46.908  54.019  1.00  0.00     0.048 A 
BRANCH  10  14
HETATM   14  C   UNL     1      29.266  43.830  54.959  1.00  0.00     0.068 C 
BRANCH  14  15
HETATM   15  C   UNL     1      29.291  42.754  53.910  1.00  0.00    -0.032 C 
HETATM   16  C   UNL     1      30.242  42.623  52.976  1.00  0.00     0.007 C 
ENDBRANCH  14  15
ENDBRANCH  10  14
BRANCH  11  17
HETATM   17  O   UNL     1      29.313  46.430  56.152  1.00  0.00    -0.357 OA
HETATM   18  H   UNL     1      30.137  46.024  55.826  1.00  0.00     0.218 HD
ENDBRANCH  11  17
BRANCH  12  19
HETATM   19  O   UNL     1      27.495  48.424  55.453  1.00  0.00    -0.353 OA
HETATM   20  C   UNL     1      26.201  48.839  55.908  1.00  0.00     0.210 C 
ENDBRANCH  12  19
ENDBRANCH   7   8
ENDBRANCH   1   7
BRANCH   4  21
HETATM   21  N   UNL     1      23.566  47.143  49.831  1.00  0.00    -0.337 N 
HETATM   22  C   UNL     1      23.032  48.162  49.055  1.00  0.00     0.321 C 
HETATM   23  N   UNL     1      21.799  48.554  49.517  1.00  0.00    -0.309 N 
HETATM   24  O   UNL     1      23.656  48.624  48.111  1.00  0.00    -0.247 OA
HETATM   25  H   UNL     1      21.462  48.117  50.361  1.00  0.00     0.170 HD
HETATM   26  H   UNL     1      22.839  46.535  50.191  1.00  0.00     0.164 HD
BRANCH  23  27
HETATM   27  C   UNL     1      20.945  49.528  48.954  1.00  0.00     0.036 A 
HETATM   28  C   UNL     1      20.301  49.384  47.720  1.00  0.00     0.032 A 
HETATM   29  C   UNL     1      19.465  50.394  47.234  1.00  0.00     0.044 A 
HETATM   30  C   UNL     1      19.268  51.546  47.984  1.00  0.00     0.116 A 
HETATM   31  F   UNL     1      18.464  52.510  47.518  1.00  0.00    -0.206 F 
HETATM   32  C   UNL     1      19.894  51.708  49.212  1.00  0.00     0.044 A 
HETATM   33  C   UNL     1      20.733  50.701  49.695  1.00  0.00     0.032 A 
ENDBRANCH  23  27
ENDBRANCH   4  21
TORSDOF 8
ENDMDL
MODEL 3
REMARK VINA RESULT:      -8.7      4.280     10.274
REMARK  8 active torsions:
REMARK  status: ('A' for Active; 'I' for Inactive)
REMARK    1  A    between atoms: O_2  and  C_3 
REMARK    2  A    between atoms: C_4  and  O_5 
REMARK    3  A    between atoms: C_6  and  C_7 
REMARK    4  A    between atoms: C_7  and  C_8 
REMARK    5  A    between atoms: C_11  and  C_12 
REMARK    6  A    between atoms: C_12  and  N_13 
REMARK    7  A    between atoms: C_16  and  N_17 
REMARK       I    between atoms: N_17  and  C_18 
REMARK       I    between atoms: C_18  and  N_19 
REMARK    8  A    between atoms: N_19  and  C_20 
ROOT
HETATM    1  N   UNL     1      25.346  44.846  51.056  1.00  0.00    -0.065 N 
HETATM    2  H   UNL     1      26.009  44.060  51.052  1.00  0.00     0.280 HD
HETATM    3  C   UNL     1      25.637  45.691  49.824  1.00  0.00     0.260 C 
HETATM    4  C   UNL     1      24.260  45.946  49.184  1.00  0.00     0.113 C 
HETATM    5  C   UNL     1      23.565  44.618  49.451  1.00  0.00     0.054 C 
HETATM    6  C   UNL     1      23.949  44.293  50.887  1.00  0.00     0.237 C 
ENDROOT
BRANCH   1   7
HETATM    7  C   UNL     1      25.574  45.577  52.355  1.00  0.00     0.273 C 
BRANCH   7   8
HETATM    8  C   UNL     1      26.639  44.904  53.182  1.00  0.00    -0.029 A 
HETATM    9  C   UNL     1      27.476  45.676  54.009  1.00  0.00     0.019 A 
HETATM   10  C   UNL     1      28.538  45.095  54.724  1.00  0.00    -0.018 A 
HETATM   11  C   UNL     1      28.766  43.724  54.577  1.00  0.00     0.105 A 
HETATM   12  C   UNL     1      27.912  42.942  53.799  1.00  0.00     0.102 A 
HETATM   13  C   UNL     1      26.864  43.525  53.089  1.00  0.00     0.048 A 
BRANCH  10  14
HETATM   14  C   UNL     1      29.432  45.961  55.583  1.00  0.00     0.068 C 
BRANCH  14  15
HETATM   15  C   UNL     1      28.990  45.980  57.020  1.00  0.00    -0.032 C 
HETATM   16  C   UNL     1      29.819  45.942  58.072  1.00  0.00     0.007 C 
ENDBRANCH  14  15
ENDBRANCH  10  14
BRANCH  11  17
HETATM   17  O   UNL     1      29.856  43.161  55.177  1.00  0.00    -0.357 OA
HETATM   18  H   UNL     1      29.841  42.210  54.967  1.00  0.00     0.218 HD
ENDBRANCH  11  17
BRANCH  12  19
HETATM   19  O   UNL     1      28.129  41.598  53.646  1.00  0.00    -0.353 OA
HETATM   20  C   UNL     1      28.665  41.319  52.347  1.00  0.00     0.210 C 
ENDBRANCH  12  19
ENDBRANCH   7   8
ENDBRANCH   1   7
BRANCH   4  21
HETATM   21  N   UNL     1      23.487  47.055  49.754  1.00  0.00    -0.337 N 
HETATM   22  C   UNL     1      22.670  47.799  48.916  1.00  0.00     0.321 C 
HETATM   23  N   UNL     1      21.854  48.644  49.627  1.00  0.00    -0.309 N 
HETATM   24  O   UNL     1      22.747  47.684  47.702  1.00  0.00    -0.247 OA
HETATM   25  H   UNL     1      21.975  48.669  50.629  1.00  0.00     0.170 HD
HETATM   26  H   UNL     1      23.022  46.843  50.630  1.00  0.00     0.164 HD
BRANCH  23  27
HETATM   27  C   UNL     1      20.867  49.514  49.113  1.00  0.00     0.036 A 
HETATM   28  C   UNL     1      19.602  49.095  48.685  1.00  0.00     0.032 A 
HETATM   29  C   UNL     1      18.677  50.021  48.193  1.00  0.00     0.044 A 
HETATM   30  C   UNL     1      19.014  51.367  48.134  1.00  0.00     0.116 A 
HETATM   31  F   UNL     1      18.125  52.252  47.665  1.00  0.00    -0.206 F 
HETATM   32  C   UNL     1      20.261  51.805  48.556  1.00  0.00     0.044 A 
HETATM   33  C   UNL     1      21.187  50.879  49.044  1.00  0.00     0.032 A 
ENDBRANCH  23  27
ENDBRANCH   4  21
TORSDOF 8
ENDMDL
MODEL 4
REMARK VINA RESULT:      -8.6      3.565      8.521
REMARK  8 active torsions:
REMARK  status: ('A' for Active; 'I' for Inactive)
REMARK    1  A    between atoms: O_2  and  C_3 
REMARK    2  A    between atoms: C_4  and  O_5 
REMARK    3  A    between atoms: C_6  and  C_7 
REMARK    4  A    between atoms: C_7  and  C_8 
REMARK    5  A    between atoms: C_11  and  C_12 
REMARK    6  A    between atoms: C_12  and  N_13 
REMARK    7  A    between atoms: C_16  and  N_17 
REMARK       I    between atoms: N_17  and  C_18 
REMARK       I    between atoms: C_18  and  N_19 
REMARK    8  A    between atoms: N_19  and  C_20 
ROOT
HETATM    1  N   UNL     1      28.604  42.186  52.573  1.00  0.00    -0.065 N 
HETATM    2  H   UNL     1      28.765  41.212  52.860  1.00  0.00     0.280 HD
HETATM    3  C   UNL     1      28.288  42.175  51.085  1.00  0.00     0.260 C 
HETATM    4  C   UNL     1      27.040  43.067  50.939  1.00  0.00     0.113 C 
HETATM    5  C   UNL     1      26.284  42.718  52.213  1.00  0.00     0.054 C 
HETATM    6  C   UNL     1      27.368  42.693  53.280  1.00  0.00     0.237 C 
ENDROOT
BRANCH   1   7
HETATM    7  C   UNL     1      29.868  42.936  52.915  1.00  0.00     0.273 C 
BRANCH   7   8
HETATM    8  C   UNL     1      29.693  43.763  54.162  1.00  0.00    -0.029 A 
HETATM    9  C   UNL     1      28.761  44.818  54.178  1.00  0.00     0.019 A 
HETATM   10  C   UNL     1      28.634  45.668  55.292  1.00  0.00    -0.018 A 
HETATM   11  C   UNL     1      29.477  45.459  56.385  1.00  0.00     0.105 A 
HETATM   12  C   UNL     1      30.369  44.387  56.400  1.00  0.00     0.102 A 
HETATM   13  C   UNL     1      30.494  43.551  55.291  1.00  0.00     0.048 A 
BRANCH  10  14
HETATM   14  C   UNL     1      27.639  46.806  55.261  1.00  0.00     0.068 C 
BRANCH  14  15
HETATM   15  C   UNL     1      26.430  46.478  54.428  1.00  0.00    -0.032 C 
HETATM   16  C   UNL     1      25.802  47.347  53.625  1.00  0.00     0.007 C 
ENDBRANCH  14  15
ENDBRANCH  10  14
BRANCH  11  17
HETATM   17  O   UNL     1      29.444  46.338  57.430  1.00  0.00    -0.357 OA
HETATM   18  H   UNL     1      28.508  46.546  57.602  1.00  0.00     0.218 HD
ENDBRANCH  11  17
BRANCH  12  19
HETATM   19  O   UNL     1      31.203  44.176  57.466  1.00  0.00    -0.353 OA
HETATM   20  C   UNL     1      32.061  43.054  57.221  1.00  0.00     0.210 C 
ENDBRANCH  12  19
ENDBRANCH   7   8
ENDBRANCH   1   7
BRANCH   4  21
HETATM   21  N   UNL     1      27.293  44.510  50.868  1.00  0.00    -0.337 N 
HETATM   22  C   UNL     1      26.491  45.288  50.044  1.00  0.00     0.321 C 
HETATM   23  N   UNL     1      26.703  46.628  50.254  1.00  0.00    -0.309 N 
HETATM   24  O   UNL     1      25.737  44.770  49.234  1.00  0.00    -0.247 OA
HETATM   25  H   UNL     1      27.424  46.884  50.913  1.00  0.00     0.170 HD
HETATM   26  H   UNL     1      27.446  44.959  51.764  1.00  0.00     0.164 HD
BRANCH  23  27
HETATM   27  C   UNL     1      26.037  47.707  49.632  1.00  0.00     0.036 A 
HETATM   28  C   UNL     1      24.648  47.868  49.624  1.00  0.00     0.032 A 
HETATM   29  C   UNL     1      24.065  48.970  48.989  1.00  0.00     0.044 A 
HETATM   30  C   UNL     1      24.872  49.913  48.367  1.00  0.00     0.116 A 
HETATM   31  F   UNL     1      24.312  50.968  47.762  1.00  0.00    -0.206 F 
HETATM   32  C   UNL     1      26.253  49.774  48.365  1.00  0.00     0.044 A 
HETATM   33  C   UNL     1      26.835  48.671  48.995  1.00  0.00     0.032 A 
ENDBRANCH  23  27
ENDBRANCH   4  21
TORSDOF 8
ENDMDL
MODEL 5
REMARK VINA RESULT:      -8.6      1.756      2.867
REMARK  8 active torsions:
REMARK  status: ('A' for Active; 'I' for Inactive)
REMARK    1  A    between atoms: O_2  and  C_3 
REMARK    2  A    between atoms: C_4  and  O_5 
REMARK    3  A    between atoms: C_6  and  C_7 
REMARK    4  A    between atoms: C_7  and  C_8 
REMARK    5  A    between atoms: C_11  and  C_12 
REMARK    6  A    between atoms: C_12  and  N_13 
REMARK    7  A    between atoms: C_16  and  N_17 
REMARK       I    between atoms: N_17  and  C_18 
REMARK       I    between atoms: C_18  and  N_19 
REMARK    8  A    between atoms: N_19  and  C_20 
ROOT
HETATM    1  N   UNL     1      25.095  44.863  50.246  1.00  0.00    -0.065 N 
HETATM    2  H   UNL     1      24.345  44.584  49.600  1.00  0.00     0.280 HD
HETATM    3  C   UNL     1      24.944  44.025  51.506  1.00  0.00     0.260 C 
HETATM    4  C   UNL     1      26.361  43.501  51.806  1.00  0.00     0.113 C 
HETATM    5  C   UNL     1      26.885  43.260  50.398  1.00  0.00     0.054 C 
HETATM    6  C   UNL     1      26.422  44.486  49.626  1.00  0.00     0.237 C 
ENDROOT
BRANCH   1   7
HETATM    7  C   UNL     1      24.915  46.342  50.480  1.00  0.00     0.273 C 
BRANCH   7   8
HETATM    8  C   UNL     1      23.891  46.924  49.541  1.00  0.00    -0.029 A 
HETATM    9  C   UNL     1      23.744  48.320  49.442  1.00  0.00     0.019 A 
HETATM   10  C   UNL     1      22.738  48.897  48.645  1.00  0.00    -0.018 A 
HETATM   11  C   UNL     1      21.862  48.049  47.966  1.00  0.00     0.105 A 
HETATM   12  C   UNL     1      22.030  46.664  48.018  1.00  0.00     0.102 A 
HETATM   13  C   UNL     1      23.025  46.098  48.813  1.00  0.00     0.048 A 
BRANCH  10  14
HETATM   14  C   UNL     1      22.596  50.401  48.584  1.00  0.00     0.068 C 
BRANCH  14  15
HETATM   15  C   UNL     1      21.868  50.950  49.780  1.00  0.00    -0.032 C 
HETATM   16  C   UNL     1      20.536  51.041  49.883  1.00  0.00     0.007 C 
ENDBRANCH  14  15
ENDBRANCH  10  14
BRANCH  11  17
HETATM   17  O   UNL     1      20.814  48.587  47.274  1.00  0.00    -0.357 OA
HETATM   18  H   UNL     1      21.152  48.850  46.399  1.00  0.00     0.218 HD
ENDBRANCH  11  17
BRANCH  12  19
HETATM   19  O   UNL     1      21.173  45.824  47.357  1.00  0.00    -0.353 OA
HETATM   20  C   UNL     1      21.352  44.472  47.799  1.00  0.00     0.210 C 
ENDBRANCH  12  19
ENDBRANCH   7   8
ENDBRANCH   1   7
BRANCH   4  21
HETATM   21  N   UNL     1      27.240  44.423  52.533  1.00  0.00    -0.337 N 
HETATM   22  C   UNL     1      27.782  44.014  53.744  1.00  0.00     0.321 C 
HETATM   23  N   UNL     1      28.746  44.886  54.185  1.00  0.00    -0.309 N 
HETATM   24  O   UNL     1      27.375  43.007  54.303  1.00  0.00    -0.247 OA
HETATM   25  H   UNL     1      28.906  45.716  53.633  1.00  0.00     0.170 HD
HETATM   26  H   UNL     1      27.933  44.891  51.959  1.00  0.00     0.164 HD
BRANCH  23  27
HETATM   27  C   UNL     1      29.538  44.768  55.349  1.00  0.00     0.036 A 
HETATM   28  C   UNL     1      30.501  43.773  55.541  1.00  0.00     0.032 A 
HETATM   29  C   UNL     1      31.249  43.729  56.723  1.00  0.00     0.044 A 
HETATM   30  C   UNL     1      31.037  44.683  57.709  1.00  0.00     0.116 A 
HETATM   31  F   UNL     1      31.757  44.640  58.837  1.00  0.00    -0.206 F 
HETATM   32  C   UNL     1      30.089  45.681  57.537  1.00  0.00     0.044 A 
HETATM   33  C   UNL     1      29.338  45.723  56.359  1.00  0.00     0.032 A 
ENDBRANCH  23  27
ENDBRANCH   4  21
TORSDOF 8
ENDMDL
MODEL 6
REMARK VINA RESULT:      -8.5      3.697      5.047
REMARK  8 active torsions:
REMARK  status: ('A' for Active; 'I' for Inactive)
REMARK    1  A    between atoms: O_2  and  C_3 
REMARK    2  A    between atoms: C_4  and  O_5 
REMARK    3  A    between atoms: C_6  and  C_7 
REMARK    4  A    between atoms: C_7  and  C_8 
REMARK    5  A    between atoms: C_11  and  C_12 
REMARK    6  A    between atoms: C_12  and  N_13 
REMARK    7  A    between atoms: C_16  and  N_17 
REMARK       I    between atoms: N_17  and  C_18 
REMARK       I    between atoms: C_18  and  N_19 
REMARK    8  A    between atoms: N_19  and  C_20 
ROOT
HETATM    1  N   UNL     1      27.281  40.514  49.222  1.00  0.00    -0.065 N 
HETATM    2  H   UNL     1      26.620  39.949  48.673  1.00  0.00     0.280 HD
HETATM    3  C   UNL     1      26.909  40.349  50.688  1.00  0.00     0.260 C 
HETATM    4  C   UNL     1      28.242  40.061  51.405  1.00  0.00     0.113 C 
HETATM    5  C   UNL     1      28.954  39.210  50.362  1.00  0.00     0.054 C 
HETATM    6  C   UNL     1      28.665  39.929  49.053  1.00  0.00     0.237 C 
ENDROOT
BRANCH   1   7
HETATM    7  C   UNL     1      27.137  41.929  48.720  1.00  0.00     0.273 C 
BRANCH   7   8
HETATM    8  C   UNL     1      25.829  42.535  49.158  1.00  0.00    -0.029 A 
HETATM    9  C   UNL     1      25.814  43.516  50.167  1.00  0.00     0.019 A 
HETATM   10  C   UNL     1      24.606  44.038  50.665  1.00  0.00    -0.018 A 
HETATM   11  C   UNL     1      23.406  43.540  50.151  1.00  0.00     0.105 A 
HETATM   12  C   UNL     1      23.411  42.604  49.117  1.00  0.00     0.102 A 
HETATM   13  C   UNL     1      24.611  42.087  48.631  1.00  0.00     0.048 A 
BRANCH  10  14
HETATM   14  C   UNL     1      24.630  45.073  51.766  1.00  0.00     0.068 C 
BRANCH  14  15
HETATM   15  C   UNL     1      25.637  44.742  52.832  1.00  0.00    -0.032 C 
HETATM   16  C   UNL     1      25.330  44.302  54.060  1.00  0.00     0.007 C 
ENDBRANCH  14  15
ENDBRANCH  10  14
BRANCH  11  17
HETATM   17  O   UNL     1      22.224  43.954  50.696  1.00  0.00    -0.357 OA
HETATM   18  H   UNL     1      21.661  44.261  49.962  1.00  0.00     0.218 HD
ENDBRANCH  11  17
BRANCH  12  19
HETATM   19  O   UNL     1      22.239  42.107  48.608  1.00  0.00    -0.353 OA
HETATM   20  C   UNL     1      22.492  40.952  47.797  1.00  0.00     0.210 C 
ENDBRANCH  12  19
ENDBRANCH   7   8
ENDBRANCH   1   7
BRANCH   4  21
HETATM   21  N   UNL     1      29.048  41.237  51.749  1.00  0.00    -0.337 N 
HETATM   22  C   UNL     1      28.822  41.869  52.964  1.00  0.00     0.321 C 
HETATM   23  N   UNL     1      29.793  42.802  53.234  1.00  0.00    -0.309 N 
HETATM   24  O   UNL     1      27.841  41.596  53.639  1.00  0.00    -0.247 OA
HETATM   25  H   UNL     1      30.496  42.956  52.527  1.00  0.00     0.170 HD
HETATM   26  H   UNL     1      30.040  41.143  51.561  1.00  0.00     0.164 HD
BRANCH  23  27
HETATM   27  C   UNL     1      29.912  43.600  54.393  1.00  0.00     0.036 A 
HETATM   28  C   UNL     1      30.854  43.377  55.403  1.00  0.00     0.032 A 
HETATM   29  C   UNL     1      30.911  44.219  56.519  1.00  0.00     0.044 A 
HETATM   30  C   UNL     1      30.030  45.287  56.622  1.00  0.00     0.116 A 
HETATM   31  F   UNL     1      30.089  46.093  57.689  1.00  0.00    -0.206 F 
HETATM   32  C   UNL     1      29.090  45.529  55.631  1.00  0.00     0.044 A 
HETATM   33  C   UNL     1      29.029  44.685  54.518  1.00  0.00     0.032 A 
ENDBRANCH  23  27
ENDBRANCH   4  21
TORSDOF 8
ENDMDL
MODEL 7
REMARK VINA RESULT:      -8.5      4.545     10.027
REMARK  8 active torsions:
REMARK  status: ('A' for Active; 'I' for Inactive)
REMARK    1  A    between atoms: O_2  and  C_3 
REMARK    2  A    between atoms: C_4  and  O_5 
REMARK    3  A    between atoms: C_6  and  C_7 
REMARK    4  A    between atoms: C_7  and  C_8 
REMARK    5  A    between atoms: C_11  and  C_12 
REMARK    6  A    between atoms: C_12  and  N_13 
REMARK    7  A    between atoms: C_16  and  N_17 
REMARK       I    between atoms: N_17  and  C_18 
REMARK       I    between atoms: C_18  and  N_19 
REMARK    8  A    between atoms: N_19  and  C_20 
ROOT
HETATM    1  N   UNL     1      24.239  43.757  50.049  1.00  0.00    -0.065 N 
HETATM    2  H   UNL     1      24.657  42.835  49.866  1.00  0.00     0.280 HD
HETATM    3  C   UNL     1      24.590  44.657  48.874  1.00  0.00     0.260 C 
HETATM    4  C   UNL     1      23.264  45.338  48.487  1.00  0.00     0.113 C 
HETATM    5  C   UNL     1      22.275  44.207  48.732  1.00  0.00     0.054 C 
HETATM    6  C   UNL     1      22.735  43.606  50.051  1.00  0.00     0.237 C 
ENDROOT
BRANCH   1   7
HETATM    7  C   UNL     1      24.819  44.224  51.361  1.00  0.00     0.273 C 
BRANCH   7   8
HETATM    8  C   UNL     1      26.043  43.427  51.732  1.00  0.00    -0.029 A 
HETATM    9  C   UNL     1      26.945  43.932  52.688  1.00  0.00     0.019 A 
HETATM   10  C   UNL     1      28.142  43.260  52.993  1.00  0.00    -0.018 A 
HETATM   11  C   UNL     1      28.436  42.081  52.304  1.00  0.00     0.105 A 
HETATM   12  C   UNL     1      27.526  41.546  51.392  1.00  0.00     0.102 A 
HETATM   13  C   UNL     1      26.343  42.219  51.090  1.00  0.00     0.048 A 
BRANCH  10  14
HETATM   14  C   UNL     1      29.098  43.847  54.007  1.00  0.00     0.068 C 
BRANCH  14  15
HETATM   15  C   UNL     1      28.463  44.945  54.813  1.00  0.00    -0.032 C 
HETATM   16  C   UNL     1      29.141  45.861  55.519  1.00  0.00     0.007 C 
ENDBRANCH  14  15
ENDBRANCH  10  14
BRANCH  11  17
HETATM   17  O   UNL     1      29.641  41.472  52.507  1.00  0.00    -0.357 OA
HETATM   18  H   UNL     1      30.333  42.136  52.332  1.00  0.00     0.218 HD
ENDBRANCH  11  17
BRANCH  12  19
HETATM   19  O   UNL     1      27.806  40.392  50.708  1.00  0.00    -0.353 OA
HETATM   20  C   UNL     1      28.104  40.679  49.336  1.00  0.00     0.210 C 
ENDBRANCH  12  19
ENDBRANCH   7   8
ENDBRANCH   1   7
BRANCH   4  21
HETATM   21  N   UNL     1      22.901  46.521  49.276  1.00  0.00    -0.337 N 
HETATM   22  C   UNL     1      22.133  47.510  48.679  1.00  0.00     0.321 C 
HETATM   23  N   UNL     1      21.694  48.431  49.599  1.00  0.00    -0.309 N 
HETATM   24  O   UNL     1      21.941  47.512  47.472  1.00  0.00    -0.247 OA
HETATM   25  H   UNL     1      22.011  48.321  50.551  1.00  0.00     0.170 HD
HETATM   26  H   UNL     1      22.580  46.322  50.217  1.00  0.00     0.164 HD
BRANCH  23  27
HETATM   27  C   UNL     1      20.857  49.544  49.362  1.00  0.00     0.036 A 
HETATM   28  C   UNL     1      19.514  49.608  49.747  1.00  0.00     0.032 A 
HETATM   29  C   UNL     1      18.754  50.751  49.481  1.00  0.00     0.044 A 
HETATM   30  C   UNL     1      19.337  51.832  48.835  1.00  0.00     0.116 A 
HETATM   31  F   UNL     1      18.608  52.927  48.584  1.00  0.00    -0.206 F 
HETATM   32  C   UNL     1      20.669  51.792  48.447  1.00  0.00     0.044 A 
HETATM   33  C   UNL     1      21.428  50.647  48.709  1.00  0.00     0.032 A 
ENDBRANCH  23  27
ENDBRANCH   4  21
TORSDOF 8
ENDMDL
MODEL 8
REMARK VINA RESULT:      -8.4      4.586      9.757
REMARK  8 active torsions:
REMARK  status: ('A' for Active; 'I' for Inactive)
REMARK    1  A    between atoms: O_2  and  C_3 
REMARK    2  A    between atoms: C_4  and  O_5 
REMARK    3  A    between atoms: C_6  and  C_7 
REMARK    4  A    between atoms: C_7  and  C_8 
REMARK    5  A    between atoms: C_11  and  C_12 
REMARK    6  A    between atoms: C_12  and  N_13 
REMARK    7  A    between atoms: C_16  and  N_17 
REMARK       I    between atoms: N_17  and  C_18 
REMARK       I    between atoms: C_18  and  N_19 
REMARK    8  A    between atoms: N_19  and  C_20 
ROOT
HETATM    1  N   UNL     1      24.679  44.350  49.274  1.00  0.00    -0.065 N 
HETATM    2  H   UNL     1      25.075  43.430  49.043  1.00  0.00     0.280 HD
HETATM    3  C   UNL     1      23.888  44.822  48.063  1.00  0.00     0.260 C 
HETATM    4  C   UNL     1      22.541  45.306  48.632  1.00  0.00     0.113 C 
HETATM    5  C   UNL     1      22.319  44.295  49.749  1.00  0.00     0.054 C 
HETATM    6  C   UNL     1      23.688  44.172  50.402  1.00  0.00     0.237 C 
ENDROOT
BRANCH   1   7
HETATM    7  C   UNL     1      25.852  45.237  49.610  1.00  0.00     0.273 C 
BRANCH   7   8
HETATM    8  C   UNL     1      26.275  45.063  51.046  1.00  0.00    -0.029 A 
HETATM    9  C   UNL     1      27.133  44.005  51.400  1.00  0.00     0.019 A 
HETATM   10  C   UNL     1      27.476  43.757  52.742  1.00  0.00    -0.018 A 
HETATM   11  C   UNL     1      26.923  44.574  53.730  1.00  0.00     0.105 A 
HETATM   12  C   UNL     1      26.112  45.656  53.386  1.00  0.00     0.102 A 
HETATM   13  C   UNL     1      25.772  45.894  52.055  1.00  0.00     0.048 A 
BRANCH  10  14
HETATM   14  C   UNL     1      28.380  42.595  53.085  1.00  0.00     0.068 C 
BRANCH  14  15
HETATM   15  C   UNL     1      29.817  43.017  53.221  1.00  0.00    -0.032 C 
HETATM   16  C   UNL     1      30.452  43.188  54.388  1.00  0.00     0.007 C 
ENDBRANCH  14  15
ENDBRANCH  10  14
BRANCH  11  17
HETATM   17  O   UNL     1      27.158  44.284  55.044  1.00  0.00    -0.357 OA
HETATM   18  H   UNL     1      27.674  45.023  55.414  1.00  0.00     0.218 HD
ENDBRANCH  11  17
BRANCH  12  19
HETATM   19  O   UNL     1      25.563  46.462  54.348  1.00  0.00    -0.353 OA
HETATM   20  C   UNL     1      26.366  47.633  54.542  1.00  0.00     0.210 C 
ENDBRANCH  12  19
ENDBRANCH   7   8
ENDBRANCH   1   7
BRANCH   4  21
HETATM   21  N   UNL     1      22.529  46.673  49.164  1.00  0.00    -0.337 N 
HETATM   22  C   UNL     1      21.501  47.526  48.788  1.00  0.00     0.321 C 
HETATM   23  N   UNL     1      21.505  48.679  49.533  1.00  0.00    -0.309 N 
HETATM   24  O   UNL     1      20.745  47.231  47.874  1.00  0.00    -0.247 OA
HETATM   25  H   UNL     1      22.253  48.796  50.200  1.00  0.00     0.170 HD
HETATM   26  H   UNL     1      22.723  46.745  50.157  1.00  0.00     0.164 HD
BRANCH  23  27
HETATM   27  C   UNL     1      20.585  49.748  49.459  1.00  0.00     0.036 A 
HETATM   28  C   UNL     1      19.376  49.789  50.162  1.00  0.00     0.032 A 
HETATM   29  C   UNL     1      18.521  50.889  50.038  1.00  0.00     0.044 A 
HETATM   30  C   UNL     1      18.877  51.950  49.217  1.00  0.00     0.116 A 
HETATM   31  F   UNL     1      18.057  53.003  49.103  1.00  0.00    -0.206 F 
HETATM   32  C   UNL     1      20.072  51.932  48.513  1.00  0.00     0.044 A 
HETATM   33  C   UNL     1      20.925  50.831  48.632  1.00  0.00     0.032 A 
ENDBRANCH  23  27
ENDBRANCH   4  21
TORSDOF 8
ENDMDL
MODEL 9
REMARK VINA RESULT:      -8.4      2.021      3.601
REMARK  8 active torsions:
REMARK  status: ('A' for Active; 'I' for Inactive)
REMARK    1  A    between atoms: O_2  and  C_3 
REMARK    2  A    between atoms: C_4  and  O_5 
REMARK    3  A    between atoms: C_6  and  C_7 
REMARK    4  A    between atoms: C_7  and  C_8 
REMARK    5  A    between atoms: C_11  and  C_12 
REMARK    6  A    between atoms: C_12  and  N_13 
REMARK    7  A    between atoms: C_16  and  N_17 
REMARK       I    between atoms: N_17  and  C_18 
REMARK       I    between atoms: C_18  and  N_19 
REMARK    8  A    between atoms: N_19  and  C_20 
ROOT
HETATM    1  N   UNL     1      24.942  41.909  49.993  1.00  0.00    -0.065 N 
HETATM    2  H   UNL     1      24.349  41.254  49.466  1.00  0.00     0.280 HD
HETATM    3  C   UNL     1      25.907  41.078  50.825  1.00  0.00     0.260 C 
HETATM    4  C   UNL     1      27.288  41.716  50.586  1.00  0.00     0.113 C 
HETATM    5  C   UNL     1      27.177  42.107  49.119  1.00  0.00     0.054 C 
HETATM    6  C   UNL     1      25.778  42.694  49.008  1.00  0.00     0.237 C 
ENDROOT
BRANCH   1   7
HETATM    7  C   UNL     1      24.002  42.749  50.821  1.00  0.00     0.273 C 
BRANCH   7   8
HETATM    8  C   UNL     1      24.171  44.216  50.520  1.00  0.00    -0.029 A 
HETATM    9  C   UNL     1      25.049  44.994  51.297  1.00  0.00     0.019 A 
HETATM   10  C   UNL     1      25.165  46.383  51.104  1.00  0.00    -0.018 A 
HETATM   11  C   UNL     1      24.364  46.987  50.132  1.00  0.00     0.105 A 
HETATM   12  C   UNL     1      23.528  46.217  49.322  1.00  0.00     0.102 A 
HETATM   13  C   UNL     1      23.414  44.842  49.522  1.00  0.00     0.048 A 
BRANCH  10  14
HETATM   14  C   UNL     1      26.101  47.189  51.976  1.00  0.00     0.068 C 
BRANCH  14  15
HETATM   15  C   UNL     1      26.032  46.770  53.418  1.00  0.00    -0.032 C 
HETATM   16  C   UNL     1      26.163  47.602  54.460  1.00  0.00     0.007 C 
ENDBRANCH  14  15
ENDBRANCH  10  14
BRANCH  11  17
HETATM   17  O   UNL     1      24.383  48.346  50.003  1.00  0.00    -0.357 OA
HETATM   18  H   UNL     1      25.316  48.626  50.036  1.00  0.00     0.218 HD
ENDBRANCH  11  17
BRANCH  12  19
HETATM   19  O   UNL     1      22.737  46.801  48.368  1.00  0.00    -0.353 OA
HETATM   20  C   UNL     1      22.319  45.831  47.399  1.00  0.00     0.210 C 
ENDBRANCH  12  19
ENDBRANCH   7   8
ENDBRANCH   1   7
BRANCH   4  21
HETATM   21  N   UNL     1      27.599  42.890  51.410  1.00  0.00    -0.337 N 
HETATM   22  C   UNL     1      28.226  42.699  52.633  1.00  0.00     0.321 C 
HETATM   23  N   UNL     1      28.646  43.889  53.175  1.00  0.00    -0.309 N 
HETATM   24  O   UNL     1      28.327  41.582  53.118  1.00  0.00    -0.247 OA
HETATM   25  H   UNL     1      28.411  44.733  52.674  1.00  0.00     0.170 HD
HETATM   26  H   UNL     1      28.006  43.669  50.905  1.00  0.00     0.164 HD
BRANCH  23  27
HETATM   27  C   UNL     1      29.357  44.076  54.382  1.00  0.00     0.036 A 
HETATM   28  C   UNL     1      30.345  43.202  54.849  1.00  0.00     0.032 A 
HETATM   29  C   UNL     1      31.008  43.463  56.053  1.00  0.00     0.044 A 
HETATM   30  C   UNL     1      30.688  44.597  56.786  1.00  0.00     0.116 A 
HETATM   31  F   UNL     1      31.326  44.844  57.936  1.00  0.00    -0.206 F 
HETATM   32  C   UNL     1      29.713  45.478  56.339  1.00  0.00     0.044 A 
HETATM   33  C   UNL     1      29.047  45.216  55.138  1.00  0.00     0.032 A 
ENDBRANCH  23  27
ENDBRANCH   4  21
TORSDOF 8
ENDMDL
MODEL 10
REMARK VINA RESULT:      -8.1      1.623      2.088
REMARK  8 active torsions:
REMARK  status: ('A' for Active; 'I' for Inactive)
REMARK    1  A    between atoms: O_2  and  C_3 
REMARK    2  A    between atoms: C_4  and  O_5 
REMARK    3  A    between atoms: C_6  and  C_7 
REMARK    4  A    between atoms: C_7  and  C_8 
REMARK    5  A    between atoms: C_11  and  C_12 
REMARK    6  A    between atoms: C_12  and  N_13 
REMARK    7  A    between atoms: C_16  and  N_17 
REMARK       I    between atoms: N_17  and  C_18 
REMARK       I    between atoms: C_18  and  N_19 
REMARK    8  A    between atoms: N_19  and  C_20 
ROOT
HETATM    1  N   UNL     1      25.078  44.749  50.022  1.00  0.00    -0.065 N 
HETATM    2  H   UNL     1      24.337  44.472  49.364  1.00  0.00     0.280 HD
HETATM    3  C   UNL     1      24.679  44.237  51.398  1.00  0.00     0.260 C 
HETATM    4  C   UNL     1      25.944  43.554  51.948  1.00  0.00     0.113 C 
HETATM    5  C   UNL     1      26.513  42.932  50.680  1.00  0.00     0.054 C 
HETATM    6  C   UNL     1      26.349  44.027  49.637  1.00  0.00     0.237 C 
ENDROOT
BRANCH   1   7
HETATM    7  C   UNL     1      25.167  46.253  49.941  1.00  0.00     0.273 C 
BRANCH   7   8
HETATM    8  C   UNL     1      23.879  46.850  49.434  1.00  0.00    -0.029 A 
HETATM    9  C   UNL     1      22.979  46.055  48.700  1.00  0.00     0.019 A 
HETATM   10  C   UNL     1      21.813  46.601  48.134  1.00  0.00    -0.018 A 
HETATM   11  C   UNL     1      21.573  47.968  48.295  1.00  0.00     0.105 A 
HETATM   12  C   UNL     1      22.433  48.754  49.063  1.00  0.00     0.102 A 
HETATM   13  C   UNL     1      23.590  48.209  49.617  1.00  0.00     0.048 A 
BRANCH  10  14
HETATM   14  C   UNL     1      20.883  45.720  47.331  1.00  0.00     0.068 C 
BRANCH  14  15
HETATM   15  C   UNL     1      21.355  45.542  45.915  1.00  0.00    -0.032 C 
HETATM   16  C   UNL     1      20.725  46.026  44.836  1.00  0.00     0.007 C 
ENDBRANCH  14  15
ENDBRANCH  10  14
BRANCH  11  17
HETATM   17  O   UNL     1      20.504  48.536  47.664  1.00  0.00    -0.357 OA
HETATM   18  H   UNL     1      19.716  48.016  47.907  1.00  0.00     0.218 HD
ENDBRANCH  11  17
BRANCH  12  19
HETATM   19  O   UNL     1      22.208  50.095  49.224  1.00  0.00    -0.353 OA
HETATM   20  C   UNL     1      23.189  50.859  48.511  1.00  0.00     0.210 C 
ENDBRANCH  12  19
ENDBRANCH   7   8
ENDBRANCH   1   7
BRANCH   4  21
HETATM   21  N   UNL     1      26.929  44.444  52.573  1.00  0.00    -0.337 N 
HETATM   22  C   UNL     1      27.500  44.065  53.779  1.00  0.00     0.321 C 
HETATM   23  N   UNL     1      28.551  44.882  54.117  1.00  0.00    -0.309 N 
HETATM   24  O   UNL     1      27.048  43.128  54.420  1.00  0.00    -0.247 OA
HETATM   25  H   UNL     1      28.744  45.663  53.508  1.00  0.00     0.170 HD
HETATM   26  H   UNL     1      27.624  44.821  51.938  1.00  0.00     0.164 HD
BRANCH  23  27
HETATM   27  C   UNL     1      29.391  44.771  55.247  1.00  0.00     0.036 A 
HETATM   28  C   UNL     1      30.369  43.782  55.400  1.00  0.00     0.032 A 
HETATM   29  C   UNL     1      31.166  43.744  56.548  1.00  0.00     0.044 A 
HETATM   30  C   UNL     1      30.990  44.697  57.542  1.00  0.00     0.116 A 
HETATM   31  F   UNL     1      31.756  44.660  58.639  1.00  0.00    -0.206 F 
HETATM   32  C   UNL     1      30.028  45.689  57.410  1.00  0.00     0.044 A 
HETATM   33  C   UNL     1      29.228  45.725  56.264  1.00  0.00     0.032 A 
ENDBRANCH  23  27
ENDBRANCH   4  21
TORSDOF 8
ENDMDL
