MODEL 1
REMARK VINA RESULT:      -8.4      0.000      0.000
REMARK  5 active torsions:
REMARK  status: ('A' for Active; 'I' for Inactive)
REMARK    1  A    between atoms: C_4  and  N_5 
REMARK    2  A    between atoms: C_9  and  C_10 
REMARK    3  A    between atoms: C_13  and  O_14 
REMARK    4  A    between atoms: C_17  and  C_18 
REMARK       I    between atoms: C_18  and  N_19 
REMARK    5  A    between atoms: N_19  and  C_20 
ROOT
HETATM    1  N   UNL     1      19.103  49.052  47.847  1.00  0.00    -0.292 N 
HETATM    2  C   UNL     1      19.516  49.490  49.127  1.00  0.00     0.179 C 
HETATM    3  S   UNL     1      18.808  50.660  50.108  1.00  0.00    -0.040 SA
HETATM    4  N   UNL     1      20.596  48.862  49.671  1.00  0.00    -0.354 N 
HETATM    5  C   UNL     1      21.495  47.965  48.987  1.00  0.00     0.158 C 
HETATM    6  C   UNL     1      20.848  47.424  47.755  1.00  0.00     0.060 C 
HETATM    7  C   UNL     1      19.733  47.956  47.205  1.00  0.00     0.030 C 
HETATM    8  C   UNL     1      19.114  47.417  45.930  1.00  0.00     0.070 C 
HETATM    9  H   UNL     1      20.883  49.203  50.581  1.00  0.00     0.163 HD
ENDROOT
BRANCH   6  10
HETATM   10  C   UNL     1      21.441  46.125  47.321  1.00  0.00     0.257 C 
HETATM   11  N   UNL     1      21.242  45.084  48.193  1.00  0.00    -0.306 N 
HETATM   12  H   UNL     1      20.650  45.217  48.998  1.00  0.00     0.170 HD
HETATM   13  O   UNL     1      22.012  46.086  46.236  1.00  0.00    -0.267 OA
BRANCH  11  14
HETATM   14  C   UNL     1      21.966  43.905  48.138  1.00  0.00     0.160 A 
HETATM   15  N   UNL     1      21.781  42.916  47.257  1.00  0.00    -0.110 NA
HETATM   16  O   UNL     1      22.774  41.991  47.492  1.00  0.00    -0.216 OA
HETATM   17  C   UNL     1      23.562  42.422  48.510  1.00  0.00     0.078 A 
HETATM   18  C   UNL     1      24.717  41.573  48.845  1.00  0.00     0.079 C 
HETATM   19  C   UNL     1      23.070  43.615  48.980  1.00  0.00     0.087 A 
ENDBRANCH  11  14
ENDBRANCH   6  10
BRANCH   5  20
HETATM   20  C   UNL     1      22.818  48.662  48.695  1.00  0.00    -0.031 A 
HETATM   21  C   UNL     1      22.841  49.803  47.874  1.00  0.00     0.012 A 
HETATM   22  C   UNL     1      24.046  50.450  47.581  1.00  0.00     0.037 A 
HETATM   23  C   UNL     1      25.232  49.961  48.116  1.00  0.00     0.065 A 
HETATM   24  C   UNL     1      25.234  48.846  48.943  1.00  0.00     0.037 A 
HETATM   25  C   UNL     1      24.032  48.199  49.233  1.00  0.00     0.012 A 
BRANCH  23  26
HETATM   26  O   UNL     1      26.431  50.554  47.850  1.00  0.00    -0.361 OA
HETATM   27  H   UNL     1      26.478  50.745  46.898  1.00  0.00     0.217 HD
ENDBRANCH  23  26
ENDBRANCH   5  20
BRANCH   1  28
HETATM   28  C   UNL     1      17.959  49.699  47.261  1.00  0.00     0.048 A 
HETATM   29  C   UNL     1      18.189  50.845  46.476  1.00  0.00     0.037 A 
HETATM   30  C   UNL     1      17.128  51.541  45.887  1.00  0.00    -0.060 A 
HETATM   31  C   UNL     1      17.388  52.778  45.080  1.00  0.00     0.048 C 
HETATM   32  C   UNL     1      15.831  51.045  46.034  1.00  0.00     0.007 A 
HETATM   33  C   UNL     1      15.593  49.908  46.811  1.00  0.00     0.009 A 
HETATM   34  C   UNL     1      16.643  49.237  47.457  1.00  0.00    -0.035 A 
HETATM   35  C   UNL     1      16.292  48.068  48.335  1.00  0.00     0.050 C 
ENDBRANCH   1  28
TORSDOF 5
ENDMDL
MODEL 2
REMARK VINA RESULT:      -8.3      0.913      1.047
REMARK  5 active torsions:
REMARK  status: ('A' for Active; 'I' for Inactive)
REMARK    1  A    between atoms: C_4  and  N_5 
REMARK    2  A    between atoms: C_9  and  C_10 
REMARK    3  A    between atoms: C_13  and  O_14 
REMARK    4  A    between atoms: C_17  and  C_18 
REMARK       I    between atoms: C_18  and  N_19 
REMARK    5  A    between atoms: N_19  and  C_20 
ROOT
HETATM    1  N   UNL     1      18.968  49.011  47.796  1.00  0.00    -0.292 N 
HETATM    2  C   UNL     1      19.375  49.355  49.105  1.00  0.00     0.179 C 
HETATM    3  S   UNL     1      18.658  50.447  50.167  1.00  0.00    -0.040 SA
HETATM    4  N   UNL     1      20.457  48.695  49.606  1.00  0.00    -0.354 N 
HETATM    5  C   UNL     1      21.363  47.856  48.861  1.00  0.00     0.158 C 
HETATM    6  C   UNL     1      20.723  47.403  47.590  1.00  0.00     0.060 C 
HETATM    7  C   UNL     1      19.607  47.968  47.077  1.00  0.00     0.030 C 
HETATM    8  C   UNL     1      18.995  47.521  45.764  1.00  0.00     0.070 C 
HETATM    9  H   UNL     1      20.739  48.970  50.539  1.00  0.00     0.163 HD
ENDROOT
BRANCH   6  10
HETATM   10  C   UNL     1      21.324  46.143  47.064  1.00  0.00     0.257 C 
HETATM   11  N   UNL     1      20.818  44.992  47.615  1.00  0.00    -0.306 N 
HETATM   12  H   UNL     1      20.034  45.047  48.247  1.00  0.00     0.170 HD
HETATM   13  O   UNL     1      22.173  46.234  46.184  1.00  0.00    -0.267 OA
BRANCH  11  14
HETATM   14  C   UNL     1      21.447  43.764  47.506  1.00  0.00     0.160 A 
HETATM   15  N   UNL     1      22.125  43.145  48.479  1.00  0.00    -0.110 NA
HETATM   16  O   UNL     1      22.491  41.914  47.981  1.00  0.00    -0.216 OA
HETATM   17  C   UNL     1      22.030  41.786  46.710  1.00  0.00     0.078 A 
HETATM   18  C   UNL     1      22.283  40.493  46.052  1.00  0.00     0.079 C 
HETATM   19  C   UNL     1      21.392  42.947  46.348  1.00  0.00     0.087 A 
ENDBRANCH  11  14
ENDBRANCH   6  10
BRANCH   5  20
HETATM   20  C   UNL     1      22.683  48.580  48.625  1.00  0.00    -0.031 A 
HETATM   21  C   UNL     1      22.712  49.742  47.835  1.00  0.00     0.012 A 
HETATM   22  C   UNL     1      23.915  50.414  47.594  1.00  0.00     0.037 A 
HETATM   23  C   UNL     1      25.093  49.929  48.150  1.00  0.00     0.065 A 
HETATM   24  C   UNL     1      25.088  48.792  48.947  1.00  0.00     0.037 A 
HETATM   25  C   UNL     1      23.888  48.120  49.186  1.00  0.00     0.012 A 
BRANCH  23  26
HETATM   26  O   UNL     1      26.289  50.547  47.934  1.00  0.00    -0.361 OA
HETATM   27  H   UNL     1      26.977  50.068  48.425  1.00  0.00     0.217 HD
ENDBRANCH  23  26
ENDBRANCH   5  20
BRANCH   1  28
HETATM   28  C   UNL     1      17.823  49.692  47.255  1.00  0.00     0.048 A 
HETATM   29  C   UNL     1      18.055  50.844  46.478  1.00  0.00     0.037 A 
HETATM   30  C   UNL     1      16.993  51.573  45.932  1.00  0.00    -0.060 A 
HETATM   31  C   UNL     1      17.258  52.814  45.134  1.00  0.00     0.048 C 
HETATM   32  C   UNL     1      15.690  51.106  46.114  1.00  0.00     0.007 A 
HETATM   33  C   UNL     1      15.449  49.964  46.883  1.00  0.00     0.009 A 
HETATM   34  C   UNL     1      16.503  49.259  47.487  1.00  0.00    -0.035 A 
HETATM   35  C   UNL     1      16.151  48.088  48.360  1.00  0.00     0.050 C 
ENDBRANCH   1  28
TORSDOF 5
ENDMDL
MODEL 3
REMARK VINA RESULT:      -8.1      7.198     10.771
REMARK  5 active torsions:
REMARK  status: ('A' for Active; 'I' for Inactive)
REMARK    1  A    between atoms: C_4  and  N_5 
REMARK    2  A    between atoms: C_9  and  C_10 
REMARK    3  A    between atoms: C_13  and  O_14 
REMARK    4  A    between atoms: C_17  and  C_18 
REMARK       I    between atoms: C_18  and  N_19 
REMARK    5  A    between atoms: N_19  and  C_20 
ROOT
HETATM    1  N   UNL     1      26.562  40.782  48.719  1.00  0.00    -0.292 N 
HETATM    2  C   UNL     1      25.206  41.180  48.703  1.00  0.00     0.179 C 
HETATM    3  S   UNL     1      24.040  40.865  47.530  1.00  0.00    -0.040 SA
HETATM    4  N   UNL     1      24.754  41.866  49.791  1.00  0.00    -0.354 N 
HETATM    5  C   UNL     1      25.566  42.426  50.843  1.00  0.00     0.158 C 
HETATM    6  C   UNL     1      26.907  41.769  50.867  1.00  0.00     0.060 C 
HETATM    7  C   UNL     1      27.385  41.015  49.851  1.00  0.00     0.030 C 
HETATM    8  C   UNL     1      28.766  40.389  49.878  1.00  0.00     0.070 C 
HETATM    9  H   UNL     1      23.784  42.154  49.750  1.00  0.00     0.163 HD
ENDROOT
BRANCH   6  10
HETATM   10  C   UNL     1      27.568  41.865  52.202  1.00  0.00     0.257 C 
HETATM   11  N   UNL     1      28.223  43.049  52.434  1.00  0.00    -0.306 N 
HETATM   12  H   UNL     1      28.148  43.798  51.762  1.00  0.00     0.170 HD
HETATM   13  O   UNL     1      27.447  40.920  52.974  1.00  0.00    -0.267 OA
BRANCH  11  14
HETATM   14  C   UNL     1      29.149  43.212  53.450  1.00  0.00     0.160 A 
HETATM   15  N   UNL     1      30.393  42.724  53.458  1.00  0.00    -0.110 NA
HETATM   16  O   UNL     1      30.997  43.206  54.599  1.00  0.00    -0.216 OA
HETATM   17  C   UNL     1      30.121  43.990  55.276  1.00  0.00     0.078 A 
HETATM   18  C   UNL     1      30.634  44.639  56.494  1.00  0.00     0.079 C 
HETATM   19  C   UNL     1      28.921  43.997  54.609  1.00  0.00     0.087 A 
ENDBRANCH  11  14
ENDBRANCH   6  10
BRANCH   5  20
HETATM   20  C   UNL     1      25.660  43.939  50.692  1.00  0.00    -0.031 A 
HETATM   21  C   UNL     1      24.896  44.775  51.525  1.00  0.00     0.012 A 
HETATM   22  C   UNL     1      24.957  46.166  51.393  1.00  0.00     0.037 A 
HETATM   23  C   UNL     1      25.788  46.727  50.430  1.00  0.00     0.065 A 
HETATM   24  C   UNL     1      26.565  45.923  49.606  1.00  0.00     0.037 A 
HETATM   25  C   UNL     1      26.504  44.535  49.736  1.00  0.00     0.012 A 
BRANCH  23  26
HETATM   26  O   UNL     1      25.872  48.077  50.260  1.00  0.00    -0.361 OA
HETATM   27  H   UNL     1      25.058  48.483  50.601  1.00  0.00     0.217 HD
ENDBRANCH  23  26
ENDBRANCH   5  20
BRANCH   1  28
HETATM   28  C   UNL     1      27.054  40.050  47.583  1.00  0.00     0.048 A 
HETATM   29  C   UNL     1      27.562  40.791  46.499  1.00  0.00     0.037 A 
HETATM   30  C   UNL     1      28.042  40.153  45.350  1.00  0.00    -0.060 A 
HETATM   31  C   UNL     1      28.551  40.959  44.192  1.00  0.00     0.048 C 
HETATM   32  C   UNL     1      28.069  38.758  45.314  1.00  0.00     0.007 A 
HETATM   33  C   UNL     1      27.568  38.013  46.385  1.00  0.00     0.009 A 
HETATM   34  C   UNL     1      27.028  38.643  47.518  1.00  0.00    -0.035 A 
HETATM   35  C   UNL     1      26.439  37.770  48.590  1.00  0.00     0.050 C 
ENDBRANCH   1  28
TORSDOF 5
ENDMDL
MODEL 4
REMARK VINA RESULT:      -8.0     13.370     16.763
REMARK  5 active torsions:
REMARK  status: ('A' for Active; 'I' for Inactive)
REMARK    1  A    between atoms: C_4  and  N_5 
REMARK    2  A    between atoms: C_9  and  C_10 
REMARK    3  A    between atoms: C_13  and  O_14 
REMARK    4  A    between atoms: C_17  and  C_18 
REMARK       I    between atoms: C_18  and  N_19 
REMARK    5  A    between atoms: N_19  and  C_20 
ROOT
HETATM    1  N   UNL     1      32.776  50.890  40.657  1.00  0.00    -0.292 N 
HETATM    2  C   UNL     1      33.427  49.691  41.029  1.00  0.00     0.179 C 
HETATM    3  S   UNL     1      32.735  48.228  41.490  1.00  0.00    -0.040 SA
HETATM    4  N   UNL     1      34.789  49.688  40.967  1.00  0.00    -0.354 N 
HETATM    5  C   UNL     1      35.637  50.840  40.786  1.00  0.00     0.158 C 
HETATM    6  C   UNL     1      34.857  51.970  40.199  1.00  0.00     0.060 C 
HETATM    7  C   UNL     1      33.506  52.001  40.163  1.00  0.00     0.030 C 
HETATM    8  C   UNL     1      32.731  53.176  39.598  1.00  0.00     0.070 C 
HETATM    9  H   UNL     1      35.233  48.824  41.254  1.00  0.00     0.163 HD
ENDROOT
BRANCH   6  10
HETATM   10  C   UNL     1      35.723  52.950  39.481  1.00  0.00     0.257 C 
HETATM   11  N   UNL     1      35.958  54.116  40.166  1.00  0.00    -0.306 N 
HETATM   12  H   UNL     1      35.631  54.210  41.115  1.00  0.00     0.170 HD
HETATM   13  O   UNL     1      36.168  52.631  38.384  1.00  0.00    -0.267 OA
BRANCH  11  14
HETATM   14  C   UNL     1      36.454  55.259  39.562  1.00  0.00     0.160 A 
HETATM   15  N   UNL     1      37.748  55.558  39.401  1.00  0.00    -0.110 NA
HETATM   16  O   UNL     1      37.794  56.722  38.667  1.00  0.00    -0.216 OA
HETATM   17  C   UNL     1      36.529  57.124  38.379  1.00  0.00     0.078 A 
HETATM   18  C   UNL     1      36.403  58.327  37.539  1.00  0.00     0.079 C 
HETATM   19  C   UNL     1      35.641  56.250  38.955  1.00  0.00     0.087 A 
ENDBRANCH  11  14
ENDBRANCH   6  10
BRANCH   5  20
HETATM   20  C   UNL     1      36.308  51.215  42.102  1.00  0.00    -0.031 A 
HETATM   21  C   UNL     1      35.613  51.989  43.047  1.00  0.00     0.012 A 
HETATM   22  C   UNL     1      36.215  52.356  44.254  1.00  0.00     0.037 A 
HETATM   23  C   UNL     1      37.515  51.943  44.524  1.00  0.00     0.065 A 
HETATM   24  C   UNL     1      38.217  51.164  43.614  1.00  0.00     0.037 A 
HETATM   25  C   UNL     1      37.617  50.799  42.408  1.00  0.00     0.012 A 
BRANCH  23  26
HETATM   26  O   UNL     1      38.145  52.285  45.684  1.00  0.00    -0.361 OA
HETATM   27  H   UNL     1      38.577  53.146  45.559  1.00  0.00     0.217 HD
ENDBRANCH  23  26
ENDBRANCH   5  20
BRANCH   1  28
HETATM   28  C   UNL     1      31.338  50.909  40.708  1.00  0.00     0.048 A 
HETATM   29  C   UNL     1      30.639  50.367  39.612  1.00  0.00     0.037 A 
HETATM   30  C   UNL     1      29.241  50.365  39.578  1.00  0.00    -0.060 A 
HETATM   31  C   UNL     1      28.513  49.813  38.388  1.00  0.00     0.048 C 
HETATM   32  C   UNL     1      28.538  50.853  40.680  1.00  0.00     0.007 A 
HETATM   33  C   UNL     1      29.222  51.392  41.773  1.00  0.00     0.009 A 
HETATM   34  C   UNL     1      30.625  51.455  41.792  1.00  0.00    -0.035 A 
HETATM   35  C   UNL     1      31.279  52.120  42.971  1.00  0.00     0.050 C 
ENDBRANCH   1  28
TORSDOF 5
ENDMDL
MODEL 5
REMARK VINA RESULT:      -7.7     10.158     12.972
REMARK  5 active torsions:
REMARK  status: ('A' for Active; 'I' for Inactive)
REMARK    1  A    between atoms: C_4  and  N_5 
REMARK    2  A    between atoms: C_9  and  C_10 
REMARK    3  A    between atoms: C_13  and  O_14 
REMARK    4  A    between atoms: C_17  and  C_18 
REMARK       I    between atoms: C_18  and  N_19 
REMARK    5  A    between atoms: N_19  and  C_20 
ROOT
HETATM    1  N   UNL     1      29.148  50.205  40.179  1.00  0.00    -0.292 N 
HETATM    2  C   UNL     1      29.222  49.157  41.125  1.00  0.00     0.179 C 
HETATM    3  S   UNL     1      30.351  48.939  42.354  1.00  0.00    -0.040 SA
HETATM    4  N   UNL     1      28.235  48.218  41.079  1.00  0.00    -0.354 N 
HETATM    5  C   UNL     1      27.260  48.056  40.029  1.00  0.00     0.158 C 
HETATM    6  C   UNL     1      27.144  49.314  39.232  1.00  0.00     0.060 C 
HETATM    7  C   UNL     1      28.051  50.315  39.286  1.00  0.00     0.030 C 
HETATM    8  C   UNL     1      27.936  51.567  38.439  1.00  0.00     0.070 C 
HETATM    9  H   UNL     1      28.319  47.468  41.756  1.00  0.00     0.163 HD
ENDROOT
BRANCH   6  10
HETATM   10  C   UNL     1      25.829  49.430  38.536  1.00  0.00     0.257 C 
HETATM   11  N   UNL     1      24.818  49.952  39.303  1.00  0.00    -0.306 N 
HETATM   12  H   UNL     1      25.025  50.305  40.225  1.00  0.00     0.170 HD
HETATM   13  O   UNL     1      25.769  49.091  37.359  1.00  0.00    -0.267 OA
BRANCH  11  14
HETATM   14  C   UNL     1      23.481  49.846  38.962  1.00  0.00     0.160 A 
HETATM   15  N   UNL     1      22.736  50.815  38.418  1.00  0.00    -0.110 NA
HETATM   16  O   UNL     1      21.505  50.258  38.147  1.00  0.00    -0.216 OA
HETATM   17  C   UNL     1      21.508  48.953  38.519  1.00  0.00     0.078 A 
HETATM   18  C   UNL     1      20.281  48.191  38.235  1.00  0.00     0.079 C 
HETATM   19  C   UNL     1      22.727  48.651  39.076  1.00  0.00     0.087 A 
ENDBRANCH  11  14
ENDBRANCH   6  10
BRANCH   5  20
HETATM   20  C   UNL     1      27.606  46.848  39.167  1.00  0.00    -0.031 A 
HETATM   21  C   UNL     1      26.789  45.704  39.204  1.00  0.00     0.012 A 
HETATM   22  C   UNL     1      27.097  44.580  38.431  1.00  0.00     0.037 A 
HETATM   23  C   UNL     1      28.219  44.599  37.612  1.00  0.00     0.065 A 
HETATM   24  C   UNL     1      29.033  45.722  37.545  1.00  0.00     0.037 A 
HETATM   25  C   UNL     1      28.728  46.844  38.318  1.00  0.00     0.012 A 
BRANCH  23  26
HETATM   26  O   UNL     1      28.562  43.522  36.849  1.00  0.00    -0.361 OA
HETATM   27  H   UNL     1      29.111  42.926  37.384  1.00  0.00     0.217 HD
ENDBRANCH  23  26
ENDBRANCH   5  20
BRANCH   1  28
HETATM   28  C   UNL     1      30.177  51.210  40.218  1.00  0.00     0.048 A 
HETATM   29  C   UNL     1      31.377  50.941  39.530  1.00  0.00     0.037 A 
HETATM   30  C   UNL     1      32.432  51.859  39.535  1.00  0.00    -0.060 A 
HETATM   31  C   UNL     1      33.714  51.544  38.824  1.00  0.00     0.048 C 
HETATM   32  C   UNL     1      32.259  53.084  40.183  1.00  0.00     0.007 A 
HETATM   33  C   UNL     1      31.072  53.360  40.867  1.00  0.00     0.009 A 
HETATM   34  C   UNL     1      30.029  52.421  40.920  1.00  0.00    -0.035 A 
HETATM   35  C   UNL     1      28.819  52.766  41.742  1.00  0.00     0.050 C 
ENDBRANCH   1  28
TORSDOF 5
ENDMDL
MODEL 6
REMARK VINA RESULT:      -7.5     23.961     26.562
REMARK  5 active torsions:
REMARK  status: ('A' for Active; 'I' for Inactive)
REMARK    1  A    between atoms: C_4  and  N_5 
REMARK    2  A    between atoms: C_9  and  C_10 
REMARK    3  A    between atoms: C_13  and  O_14 
REMARK    4  A    between atoms: C_17  and  C_18 
REMARK       I    between atoms: C_18  and  N_19 
REMARK    5  A    between atoms: N_19  and  C_20 
ROOT
HETATM    1  N   UNL     1      38.439  46.721  66.426  1.00  0.00    -0.292 N 
HETATM    2  C   UNL     1      38.324  46.055  67.667  1.00  0.00     0.179 C 
HETATM    3  S   UNL     1      38.410  44.403  67.976  1.00  0.00    -0.040 SA
HETATM    4  N   UNL     1      38.169  46.838  68.772  1.00  0.00    -0.354 N 
HETATM    5  C   UNL     1      37.880  48.251  68.782  1.00  0.00     0.158 C 
HETATM    6  C   UNL     1      38.239  48.862  67.467  1.00  0.00     0.060 C 
HETATM    7  C   UNL     1      38.476  48.137  66.350  1.00  0.00     0.030 C 
HETATM    8  C   UNL     1      38.800  48.778  65.015  1.00  0.00     0.070 C 
HETATM    9  H   UNL     1      38.072  46.338  69.647  1.00  0.00     0.163 HD
ENDROOT
BRANCH   6  10
HETATM   10  C   UNL     1      38.504  50.327  67.570  1.00  0.00     0.257 C 
HETATM   11  N   UNL     1      37.432  51.127  67.264  1.00  0.00    -0.306 N 
HETATM   12  H   UNL     1      36.532  50.706  67.088  1.00  0.00     0.170 HD
HETATM   13  O   UNL     1      39.617  50.686  67.941  1.00  0.00    -0.267 OA
BRANCH  11  14
HETATM   14  C   UNL     1      37.553  52.478  66.990  1.00  0.00     0.160 A 
HETATM   15  N   UNL     1      37.854  53.009  65.801  1.00  0.00    -0.110 NA
HETATM   16  O   UNL     1      37.768  54.376  65.947  1.00  0.00    -0.216 OA
HETATM   17  C   UNL     1      37.409  54.671  67.223  1.00  0.00     0.078 A 
HETATM   18  C   UNL     1      37.209  56.097  67.530  1.00  0.00     0.079 C 
HETATM   19  C   UNL     1      37.295  53.503  67.936  1.00  0.00     0.087 A 
ENDBRANCH  11  14
ENDBRANCH   6  10
BRANCH   5  20
HETATM   20  C   UNL     1      36.424  48.491  69.160  1.00  0.00    -0.031 A 
HETATM   21  C   UNL     1      36.106  49.015  70.426  1.00  0.00     0.012 A 
HETATM   22  C   UNL     1      34.775  49.230  70.797  1.00  0.00     0.037 A 
HETATM   23  C   UNL     1      33.757  48.929  69.901  1.00  0.00     0.065 A 
HETATM   24  C   UNL     1      34.045  48.426  68.639  1.00  0.00     0.037 A 
HETATM   25  C   UNL     1      35.373  48.210  68.268  1.00  0.00     0.012 A 
BRANCH  23  26
HETATM   26  O   UNL     1      32.445  49.114  70.224  1.00  0.00    -0.361 OA
HETATM   27  H   UNL     1      32.010  49.587  69.496  1.00  0.00     0.217 HD
ENDBRANCH  23  26
ENDBRANCH   5  20
BRANCH   1  28
HETATM   28  C   UNL     1      38.611  45.911  65.249  1.00  0.00     0.048 A 
HETATM   29  C   UNL     1      39.922  45.522  64.912  1.00  0.00     0.037 A 
HETATM   30  C   UNL     1      40.175  44.749  63.773  1.00  0.00    -0.060 A 
HETATM   31  C   UNL     1      41.580  44.370  63.411  1.00  0.00     0.048 C 
HETATM   32  C   UNL     1      39.097  44.310  63.002  1.00  0.00     0.007 A 
HETATM   33  C   UNL     1      37.792  44.690  63.330  1.00  0.00     0.009 A 
HETATM   34  C   UNL     1      37.532  45.516  64.435  1.00  0.00    -0.035 A 
HETATM   35  C   UNL     1      36.110  45.941  64.672  1.00  0.00     0.050 C 
ENDBRANCH   1  28
TORSDOF 5
ENDMDL
MODEL 7
REMARK VINA RESULT:      -7.4      7.385     10.135
REMARK  5 active torsions:
REMARK  status: ('A' for Active; 'I' for Inactive)
REMARK    1  A    between atoms: C_4  and  N_5 
REMARK    2  A    between atoms: C_9  and  C_10 
REMARK    3  A    between atoms: C_13  and  O_14 
REMARK    4  A    between atoms: C_17  and  C_18 
REMARK       I    between atoms: C_18  and  N_19 
REMARK    5  A    between atoms: N_19  and  C_20 
ROOT
HETATM    1  N   UNL     1      24.577  41.157  47.034  1.00  0.00    -0.292 N 
HETATM    2  C   UNL     1      25.495  40.538  46.155  1.00  0.00     0.179 C 
HETATM    3  S   UNL     1      25.188  39.815  44.666  1.00  0.00    -0.040 SA
HETATM    4  N   UNL     1      26.807  40.561  46.521  1.00  0.00    -0.354 N 
HETATM    5  C   UNL     1      27.325  40.944  47.812  1.00  0.00     0.158 C 
HETATM    6  C   UNL     1      26.320  41.764  48.551  1.00  0.00     0.060 C 
HETATM    7  C   UNL     1      25.017  41.841  48.196  1.00  0.00     0.030 C 
HETATM    8  C   UNL     1      24.003  42.648  48.983  1.00  0.00     0.070 C 
HETATM    9  H   UNL     1      27.444  40.098  45.884  1.00  0.00     0.163 HD
ENDROOT
BRANCH   6  10
HETATM   10  C   UNL     1      26.944  42.637  49.587  1.00  0.00     0.257 C 
HETATM   11  N   UNL     1      27.337  41.984  50.728  1.00  0.00    -0.306 N 
HETATM   12  H   UNL     1      27.278  40.978  50.769  1.00  0.00     0.170 HD
HETATM   13  O   UNL     1      27.081  43.829  49.329  1.00  0.00    -0.267 OA
BRANCH  11  14
HETATM   14  C   UNL     1      27.634  42.641  51.910  1.00  0.00     0.160 A 
HETATM   15  N   UNL     1      26.745  43.209  52.731  1.00  0.00    -0.110 NA
HETATM   16  O   UNL     1      27.450  43.652  53.828  1.00  0.00    -0.216 OA
HETATM   17  C   UNL     1      28.764  43.346  53.674  1.00  0.00     0.078 A 
HETATM   18  C   UNL     1      29.650  43.695  54.796  1.00  0.00     0.079 C 
HETATM   19  C   UNL     1      28.939  42.736  52.456  1.00  0.00     0.087 A 
ENDBRANCH  11  14
ENDBRANCH   6  10
BRANCH   5  20
HETATM   20  C   UNL     1      27.762  39.711  48.593  1.00  0.00    -0.031 A 
HETATM   21  C   UNL     1      26.804  38.770  49.009  1.00  0.00     0.012 A 
HETATM   22  C   UNL     1      27.182  37.639  49.740  1.00  0.00     0.037 A 
HETATM   23  C   UNL     1      28.522  37.441  50.051  1.00  0.00     0.065 A 
HETATM   24  C   UNL     1      29.490  38.347  49.638  1.00  0.00     0.037 A 
HETATM   25  C   UNL     1      29.113  39.477  48.910  1.00  0.00     0.012 A 
BRANCH  23  26
HETATM   26  O   UNL     1      28.935  36.357  50.769  1.00  0.00    -0.361 OA
HETATM   27  H   UNL     1      29.861  36.491  51.026  1.00  0.00     0.217 HD
ENDBRANCH  23  26
ENDBRANCH   5  20
BRANCH   1  28
HETATM   28  C   UNL     1      23.188  41.150  46.658  1.00  0.00     0.048 A 
HETATM   29  C   UNL     1      22.400  40.069  47.097  1.00  0.00     0.037 A 
HETATM   30  C   UNL     1      21.045  39.979  46.759  1.00  0.00    -0.060 A 
HETATM   31  C   UNL     1      20.228  38.805  47.209  1.00  0.00     0.048 C 
HETATM   32  C   UNL     1      20.462  41.015  46.027  1.00  0.00     0.007 A 
HETATM   33  C   UNL     1      21.236  42.092  45.587  1.00  0.00     0.009 A 
HETATM   34  C   UNL     1      22.610  42.162  45.869  1.00  0.00    -0.035 A 
HETATM   35  C   UNL     1      23.384  43.315  45.293  1.00  0.00     0.050 C 
ENDBRANCH   1  28
TORSDOF 5
ENDMDL
MODEL 8
REMARK VINA RESULT:      -7.4     24.307     25.618
REMARK  5 active torsions:
REMARK  status: ('A' for Active; 'I' for Inactive)
REMARK    1  A    between atoms: C_4  and  N_5 
REMARK    2  A    between atoms: C_9  and  C_10 
REMARK    3  A    between atoms: C_13  and  O_14 
REMARK    4  A    between atoms: C_17  and  C_18 
REMARK       I    between atoms: C_18  and  N_19 
REMARK    5  A    between atoms: N_19  and  C_20 
ROOT
HETATM    1  N   UNL     1      37.734  47.837  67.257  1.00  0.00    -0.292 N 
HETATM    2  C   UNL     1      38.957  47.249  67.651  1.00  0.00     0.179 C 
HETATM    3  S   UNL     1      40.382  48.016  68.112  1.00  0.00    -0.040 SA
HETATM    4  N   UNL     1      38.992  45.888  67.716  1.00  0.00    -0.354 N 
HETATM    5  C   UNL     1      37.990  44.984  67.206  1.00  0.00     0.158 C 
HETATM    6  C   UNL     1      36.691  45.699  67.026  1.00  0.00     0.060 C 
HETATM    7  C   UNL     1      36.578  47.047  67.025  1.00  0.00     0.030 C 
HETATM    8  C   UNL     1      35.256  47.755  66.801  1.00  0.00     0.070 C 
HETATM    9  H   UNL     1      39.883  45.489  67.985  1.00  0.00     0.163 HD
ENDROOT
BRANCH   6  10
HETATM   10  C   UNL     1      35.520  44.775  67.054  1.00  0.00     0.257 C 
HETATM   11  N   UNL     1      34.951  44.608  68.292  1.00  0.00    -0.306 N 
HETATM   12  H   UNL     1      35.274  45.167  69.067  1.00  0.00     0.170 HD
HETATM   13  O   UNL     1      35.152  44.280  65.995  1.00  0.00    -0.267 OA
BRANCH  11  14
HETATM   14  C   UNL     1      34.081  43.573  68.589  1.00  0.00     0.160 A 
HETATM   15  N   UNL     1      33.914  42.462  67.864  1.00  0.00    -0.110 NA
HETATM   16  O   UNL     1      33.042  41.661  68.567  1.00  0.00    -0.216 OA
HETATM   17  C   UNL     1      32.686  42.284  69.720  1.00  0.00     0.078 A 
HETATM   18  C   UNL     1      31.802  41.529  70.623  1.00  0.00     0.079 C 
HETATM   19  C   UNL     1      33.290  43.517  69.764  1.00  0.00     0.087 A 
ENDBRANCH  11  14
ENDBRANCH   6  10
BRANCH   5  20
HETATM   20  C   UNL     1      38.476  44.324  65.922  1.00  0.00    -0.031 A 
HETATM   21  C   UNL     1      38.540  45.071  64.732  1.00  0.00     0.012 A 
HETATM   22  C   UNL     1      38.970  44.480  63.540  1.00  0.00     0.037 A 
HETATM   23  C   UNL     1      39.345  43.141  63.534  1.00  0.00     0.065 A 
HETATM   24  C   UNL     1      39.306  42.387  64.700  1.00  0.00     0.037 A 
HETATM   25  C   UNL     1      38.875  42.975  65.890  1.00  0.00     0.012 A 
BRANCH  23  26
HETATM   26  O   UNL     1      39.761  42.523  62.393  1.00  0.00    -0.361 OA
HETATM   27  H   UNL     1      40.556  42.976  62.068  1.00  0.00     0.217 HD
ENDBRANCH  23  26
ENDBRANCH   5  20
BRANCH   1  28
HETATM   28  C   UNL     1      37.677  49.273  67.191  1.00  0.00     0.048 A 
HETATM   29  C   UNL     1      37.241  49.962  68.339  1.00  0.00     0.037 A 
HETATM   30  C   UNL     1      37.141  51.357  68.349  1.00  0.00    -0.060 A 
HETATM   31  C   UNL     1      36.646  52.073  69.570  1.00  0.00     0.048 C 
HETATM   32  C   UNL     1      37.541  52.070  67.218  1.00  0.00     0.007 A 
HETATM   33  C   UNL     1      37.975  51.396  66.073  1.00  0.00     0.009 A 
HETATM   34  C   UNL     1      38.022  49.993  66.031  1.00  0.00    -0.035 A 
HETATM   35  C   UNL     1      38.427  49.346  64.736  1.00  0.00     0.050 C 
ENDBRANCH   1  28
TORSDOF 5
ENDMDL
MODEL 9
REMARK VINA RESULT:      -7.3      5.300      9.789
REMARK  5 active torsions:
REMARK  status: ('A' for Active; 'I' for Inactive)
REMARK    1  A    between atoms: C_4  and  N_5 
REMARK    2  A    between atoms: C_9  and  C_10 
REMARK    3  A    between atoms: C_13  and  O_14 
REMARK    4  A    between atoms: C_17  and  C_18 
REMARK       I    between atoms: C_18  and  N_19 
REMARK    5  A    between atoms: N_19  and  C_20 
ROOT
HETATM    1  N   UNL     1      17.939  50.383  47.893  1.00  0.00    -0.292 N 
HETATM    2  C   UNL     1      17.268  49.749  46.823  1.00  0.00     0.179 C 
HETATM    3  S   UNL     1      17.767  48.420  45.919  1.00  0.00    -0.040 SA
HETATM    4  N   UNL     1      16.036  50.234  46.498  1.00  0.00    -0.354 N 
HETATM    5  C   UNL     1      15.450  51.462  46.975  1.00  0.00     0.158 C 
HETATM    6  C   UNL     1      16.132  51.910  48.226  1.00  0.00     0.060 C 
HETATM    7  C   UNL     1      17.320  51.416  48.643  1.00  0.00     0.030 C 
HETATM    8  C   UNL     1      18.015  51.912  49.896  1.00  0.00     0.070 C 
HETATM    9  H   UNL     1      15.582  49.774  45.718  1.00  0.00     0.163 HD
ENDROOT
BRANCH   6  10
HETATM   10  C   UNL     1      15.271  52.799  49.060  1.00  0.00     0.257 C 
HETATM   11  N   UNL     1      15.381  54.136  48.773  1.00  0.00    -0.306 N 
HETATM   12  H   UNL     1      15.938  54.432  47.986  1.00  0.00     0.170 HD
HETATM   13  O   UNL     1      14.533  52.275  49.887  1.00  0.00    -0.267 OA
BRANCH  11  14
HETATM   14  C   UNL     1      14.927  55.130  49.623  1.00  0.00     0.160 A 
HETATM   15  N   UNL     1      13.971  56.022  49.341  1.00  0.00    -0.110 NA
HETATM   16  O   UNL     1      13.761  56.750  50.491  1.00  0.00    -0.216 OA
HETATM   17  C   UNL     1      14.583  56.295  51.470  1.00  0.00     0.078 A 
HETATM   18  C   UNL     1      14.437  56.929  52.791  1.00  0.00     0.079 C 
HETATM   19  C   UNL     1      15.370  55.291  50.961  1.00  0.00     0.087 A 
ENDBRANCH  11  14
ENDBRANCH   6  10
BRANCH   5  20
HETATM   20  C   UNL     1      15.481  52.523  45.882  1.00  0.00    -0.031 A 
HETATM   21  C   UNL     1      14.322  53.264  45.592  1.00  0.00     0.012 A 
HETATM   22  C   UNL     1      14.326  54.233  44.583  1.00  0.00     0.037 A 
HETATM   23  C   UNL     1      15.492  54.469  43.864  1.00  0.00     0.065 A 
HETATM   24  C   UNL     1      16.654  53.762  44.143  1.00  0.00     0.037 A 
HETATM   25  C   UNL     1      16.651  52.794  45.148  1.00  0.00     0.012 A 
BRANCH  23  26
HETATM   26  O   UNL     1      15.539  55.397  42.866  1.00  0.00    -0.361 OA
HETATM   27  H   UNL     1      16.416  55.361  42.451  1.00  0.00     0.217 HD
ENDBRANCH  23  26
ENDBRANCH   5  20
BRANCH   1  28
HETATM   28  C   UNL     1      19.237  49.879  48.256  1.00  0.00     0.048 A 
HETATM   29  C   UNL     1      20.364  50.556  47.751  1.00  0.00     0.037 A 
HETATM   30  C   UNL     1      21.660  50.118  48.043  1.00  0.00    -0.060 A 
HETATM   31  C   UNL     1      22.848  50.832  47.472  1.00  0.00     0.048 C 
HETATM   32  C   UNL     1      21.827  49.028  48.900  1.00  0.00     0.007 A 
HETATM   33  C   UNL     1      20.715  48.350  49.406  1.00  0.00     0.009 A 
HETATM   34  C   UNL     1      19.410  48.744  49.071  1.00  0.00    -0.035 A 
HETATM   35  C   UNL     1      18.272  47.913  49.596  1.00  0.00     0.050 C 
ENDBRANCH   1  28
TORSDOF 5
ENDMDL
MODEL 10
REMARK VINA RESULT:      -7.2      4.802      7.310
REMARK  5 active torsions:
REMARK  status: ('A' for Active; 'I' for Inactive)
REMARK    1  A    between atoms: C_4  and  N_5 
REMARK    2  A    between atoms: C_9  and  C_10 
REMARK    3  A    between atoms: C_13  and  O_14 
REMARK    4  A    between atoms: C_17  and  C_18 
REMARK       I    between atoms: C_18  and  N_19 
REMARK    5  A    between atoms: N_19  and  C_20 
ROOT
HETATM    1  N   UNL     1      24.870  46.313  50.295  1.00  0.00    -0.292 N 
HETATM    2  C   UNL     1      25.281  46.142  51.636  1.00  0.00     0.179 C 
HETATM    3  S   UNL     1      25.967  47.280  52.670  1.00  0.00    -0.040 SA
HETATM    4  N   UNL     1      25.059  44.919  52.195  1.00  0.00    -0.354 N 
HETATM    5  C   UNL     1      24.663  43.722  51.496  1.00  0.00     0.158 C 
HETATM    6  C   UNL     1      24.061  44.069  50.174  1.00  0.00     0.060 C 
HETATM    7  C   UNL     1      24.183  45.286  49.598  1.00  0.00     0.030 C 
HETATM    8  C   UNL     1      23.599  45.607  48.236  1.00  0.00     0.070 C 
HETATM    9  H   UNL     1      25.376  44.816  53.152  1.00  0.00     0.163 HD
ENDROOT
BRANCH   6  10
HETATM   10  C   UNL     1      23.150  43.003  49.663  1.00  0.00     0.257 C 
HETATM   11  N   UNL     1      23.446  42.553  48.401  1.00  0.00    -0.306 N 
HETATM   12  H   UNL     1      24.283  42.878  47.941  1.00  0.00     0.170 HD
HETATM   13  O   UNL     1      22.257  42.605  50.403  1.00  0.00    -0.267 OA
BRANCH  11  14
HETATM   14  C   UNL     1      22.557  41.819  47.634  1.00  0.00     0.160 A 
HETATM   15  N   UNL     1      22.097  40.598  47.926  1.00  0.00    -0.110 NA
HETATM   16  O   UNL     1      21.166  40.287  46.960  1.00  0.00    -0.216 OA
HETATM   17  C   UNL     1      21.058  41.322  46.088  1.00  0.00     0.078 A 
HETATM   18  C   UNL     1      20.051  41.175  45.024  1.00  0.00     0.079 C 
HETATM   19  C   UNL     1      21.947  42.304  46.449  1.00  0.00     0.087 A 
ENDBRANCH  11  14
ENDBRANCH   6  10
BRANCH   5  20
HETATM   20  C   UNL     1      25.844  42.768  51.368  1.00  0.00    -0.031 A 
HETATM   21  C   UNL     1      27.092  43.122  51.912  1.00  0.00     0.012 A 
HETATM   22  C   UNL     1      28.192  42.267  51.793  1.00  0.00     0.037 A 
HETATM   23  C   UNL     1      28.047  41.051  51.135  1.00  0.00     0.065 A 
HETATM   24  C   UNL     1      26.822  40.672  50.604  1.00  0.00     0.037 A 
HETATM   25  C   UNL     1      25.723  41.525  50.721  1.00  0.00     0.012 A 
BRANCH  23  26
HETATM   26  O   UNL     1      29.095  40.191  50.988  1.00  0.00    -0.361 OA
HETATM   27  H   UNL     1      28.840  39.328  51.352  1.00  0.00     0.217 HD
ENDBRANCH  23  26
ENDBRANCH   5  20
BRANCH   1  28
HETATM   28  C   UNL     1      25.090  47.601  49.691  1.00  0.00     0.048 A 
HETATM   29  C   UNL     1      23.976  48.449  49.540  1.00  0.00     0.037 A 
HETATM   30  C   UNL     1      24.103  49.709  48.946  1.00  0.00    -0.060 A 
HETATM   31  C   UNL     1      22.900  50.586  48.764  1.00  0.00     0.048 C 
HETATM   32  C   UNL     1      25.370  50.147  48.557  1.00  0.00     0.007 A 
HETATM   33  C   UNL     1      26.482  49.313  48.703  1.00  0.00     0.009 A 
HETATM   34  C   UNL     1      26.356  48.022  49.242  1.00  0.00    -0.035 A 
HETATM   35  C   UNL     1      27.588  47.162  49.293  1.00  0.00     0.050 C 
ENDBRANCH   1  28
TORSDOF 5
ENDMDL
