MODEL 1
REMARK VINA RESULT:      -9.3      0.000      0.000
REMARK  7 active torsions:
REMARK  status: ('A' for Active; 'I' for Inactive)
REMARK    1  A    between atoms: C_2  and  C_3 
REMARK    2  A    between atoms: C_3  and  N_4 
REMARK    3  A    between atoms: C_10  and  N_11 
REMARK       I    between atoms: N_11  and  C_12 
REMARK    4  A    between atoms: C_12  and  C_13 
REMARK    5  A    between atoms: C_13  and  N_14 
REMARK       I    between atoms: N_14  and  C_15 
REMARK       I    between atoms: C_15  and  N_16 
REMARK    6  A    between atoms: N_16  and  C_17 
REMARK    7  A    between atoms: C_17  and  C_18 
ROOT
HETATM    1  N   UNL     1      25.279  46.640  50.714  1.00  0.00    -0.325 N 
HETATM    2  C   UNL     1      25.375  46.542  52.090  1.00  0.00     0.239 C 
HETATM    3  O   UNL     1      25.707  47.456  52.840  1.00  0.00    -0.271 OA
HETATM    4  H   UNL     1      25.141  45.755  50.226  1.00  0.00     0.169 HD
ENDROOT
BRANCH   2   5
HETATM    5  C   UNL     1      25.120  45.131  52.628  1.00  0.00     0.227 C 
BRANCH   5   6
HETATM    6  N   UNL     1      25.515  44.093  51.689  1.00  0.00    -0.334 N 
HETATM    7  C   UNL     1      26.729  43.473  51.753  1.00  0.00     0.316 C 
HETATM    8  N   UNL     1      27.156  43.206  53.019  1.00  0.00    -0.339 N 
HETATM    9  O   UNL     1      27.359  43.232  50.735  1.00  0.00    -0.247 OA
HETATM   10  H   UNL     1      26.467  42.681  53.541  1.00  0.00     0.164 HD
HETATM   11  H   UNL     1      25.277  44.275  50.720  1.00  0.00     0.164 HD
BRANCH   8  12
HETATM   12  C   UNL     1      28.530  42.807  53.253  1.00  0.00     0.162 C 
BRANCH  12  13
HETATM   13  C   UNL     1      29.126  43.706  54.308  1.00  0.00    -0.040 A 
HETATM   14  C   UNL     1      30.333  43.386  54.943  1.00  0.00     0.012 A 
HETATM   15  C   UNL     1      30.848  44.221  55.938  1.00  0.00     0.043 A 
HETATM   16  C   UNL     1      30.159  45.377  56.291  1.00  0.00     0.116 A 
HETATM   17  F   UNL     1      30.650  46.169  57.252  1.00  0.00    -0.206 F 
HETATM   18  C   UNL     1      28.968  45.719  55.666  1.00  0.00     0.043 A 
HETATM   19  C   UNL     1      28.451  44.887  54.674  1.00  0.00     0.012 A 
ENDBRANCH  12  13
ENDBRANCH   8  12
ENDBRANCH   5   6
ENDBRANCH   2   5
BRANCH   1  20
HETATM   20  C   UNL     1      25.512  47.766  49.895  1.00  0.00     0.043 A 
HETATM   21  C   UNL     1      24.570  48.691  49.449  1.00  0.00     0.002 A 
HETATM   22  C   UNL     1      23.089  48.752  49.647  1.00  0.00     0.276 C 
HETATM   23  C   UNL     1      24.958  49.772  48.633  1.00  0.00    -0.022 A 
HETATM   24  N   UNL     1      22.560  49.808  48.665  1.00  0.00    -0.063 N 
HETATM   25  H   UNL     1      21.945  50.437  49.191  1.00  0.00     0.280 HD
HETATM   26  C   UNL     1      23.785  50.611  48.255  1.00  0.00     0.274 C 
HETATM   27  C   UNL     1      26.276  49.971  48.259  1.00  0.00     0.009 A 
HETATM   28  C   UNL     1      27.222  49.044  48.680  1.00  0.00     0.003 A 
HETATM   29  C   UNL     1      26.840  47.951  49.474  1.00  0.00     0.030 A 
BRANCH  24  30
HETATM   30  C   UNL     1      21.809  49.248  47.488  1.00  0.00     0.239 C 
BRANCH  30  31
HETATM   31  C   UNL     1      20.319  49.636  47.487  1.00  0.00     0.003 C 
HETATM   32  C   UNL     1      20.168  51.044  48.069  1.00  0.00     0.011 C 
HETATM   33  C   UNL     1      19.445  48.657  48.272  1.00  0.00     0.011 C 
ENDBRANCH  30  31
ENDBRANCH  24  30
ENDBRANCH   1  20
TORSDOF 7
ENDMDL
MODEL 2
REMARK VINA RESULT:      -9.0      1.883      2.444
REMARK  7 active torsions:
REMARK  status: ('A' for Active; 'I' for Inactive)
REMARK    1  A    between atoms: C_2  and  C_3 
REMARK    2  A    between atoms: C_3  and  N_4 
REMARK    3  A    between atoms: C_10  and  N_11 
REMARK       I    between atoms: N_11  and  C_12 
REMARK    4  A    between atoms: C_12  and  C_13 
REMARK    5  A    between atoms: C_13  and  N_14 
REMARK       I    between atoms: N_14  and  C_15 
REMARK       I    between atoms: C_15  and  N_16 
REMARK    6  A    between atoms: N_16  and  C_17 
REMARK    7  A    between atoms: C_17  and  C_18 
ROOT
HETATM    1  N   UNL     1      26.786  45.149  49.925  1.00  0.00    -0.325 N 
HETATM    2  C   UNL     1      26.892  44.541  51.163  1.00  0.00     0.239 C 
HETATM    3  O   UNL     1      26.776  45.116  52.242  1.00  0.00    -0.271 OA
HETATM    4  H   UNL     1      27.060  44.567  49.133  1.00  0.00     0.169 HD
ENDROOT
BRANCH   2   5
HETATM    5  C   UNL     1      27.276  43.061  51.093  1.00  0.00     0.227 C 
BRANCH   5   6
HETATM    6  N   UNL     1      27.075  42.368  52.356  1.00  0.00    -0.334 N 
HETATM    7  C   UNL     1      28.103  42.089  53.208  1.00  0.00     0.316 C 
HETATM    8  N   UNL     1      29.031  43.082  53.313  1.00  0.00    -0.339 N 
HETATM    9  O   UNL     1      28.163  41.011  53.779  1.00  0.00    -0.247 OA
HETATM   10  H   UNL     1      28.604  43.965  53.557  1.00  0.00     0.164 HD
HETATM   11  H   UNL     1      26.440  41.578  52.318  1.00  0.00     0.164 HD
BRANCH   8  12
HETATM   12  C   UNL     1      30.303  42.821  53.957  1.00  0.00     0.162 C 
BRANCH  12  13
HETATM   13  C   UNL     1      30.398  43.662  55.206  1.00  0.00    -0.040 A 
HETATM   14  C   UNL     1      31.224  43.290  56.276  1.00  0.00     0.012 A 
HETATM   15  C   UNL     1      31.270  44.072  57.433  1.00  0.00     0.043 A 
HETATM   16  C   UNL     1      30.497  45.225  57.517  1.00  0.00     0.116 A 
HETATM   17  F   UNL     1      30.536  45.965  58.632  1.00  0.00    -0.206 F 
HETATM   18  C   UNL     1      29.681  45.618  56.465  1.00  0.00     0.043 A 
HETATM   19  C   UNL     1      29.632  44.839  55.309  1.00  0.00     0.012 A 
ENDBRANCH  12  13
ENDBRANCH   8  12
ENDBRANCH   5   6
ENDBRANCH   2   5
BRANCH   1  20
HETATM   20  C   UNL     1      26.512  46.502  49.632  1.00  0.00     0.043 A 
HETATM   21  C   UNL     1      25.268  47.129  49.636  1.00  0.00     0.002 A 
HETATM   22  C   UNL     1      23.899  46.584  49.894  1.00  0.00     0.276 C 
HETATM   23  C   UNL     1      25.154  48.497  49.322  1.00  0.00    -0.022 A 
HETATM   24  N   UNL     1      22.906  47.670  49.450  1.00  0.00    -0.063 N 
HETATM   25  H   UNL     1      22.229  47.796  50.209  1.00  0.00     0.280 HD
HETATM   26  C   UNL     1      23.732  48.944  49.362  1.00  0.00     0.274 C 
HETATM   27  C   UNL     1      26.260  49.273  49.016  1.00  0.00     0.009 A 
HETATM   28  C   UNL     1      27.503  48.655  48.987  1.00  0.00     0.003 A 
HETATM   29  C   UNL     1      27.623  47.287  49.276  1.00  0.00     0.030 A 
BRANCH  24  30
HETATM   30  C   UNL     1      22.172  47.361  48.174  1.00  0.00     0.239 C 
BRANCH  30  31
HETATM   31  C   UNL     1      21.938  45.854  47.966  1.00  0.00     0.003 C 
HETATM   32  C   UNL     1      22.022  45.537  46.470  1.00  0.00     0.011 C 
HETATM   33  C   UNL     1      20.595  45.375  48.519  1.00  0.00     0.011 C 
ENDBRANCH  30  31
ENDBRANCH  24  30
ENDBRANCH   1  20
TORSDOF 7
ENDMDL
MODEL 3
REMARK VINA RESULT:      -9.0      1.830      3.038
REMARK  7 active torsions:
REMARK  status: ('A' for Active; 'I' for Inactive)
REMARK    1  A    between atoms: C_2  and  C_3 
REMARK    2  A    between atoms: C_3  and  N_4 
REMARK    3  A    between atoms: C_10  and  N_11 
REMARK       I    between atoms: N_11  and  C_12 
REMARK    4  A    between atoms: C_12  and  C_13 
REMARK    5  A    between atoms: C_13  and  N_14 
REMARK       I    between atoms: N_14  and  C_15 
REMARK       I    between atoms: C_15  and  N_16 
REMARK    6  A    between atoms: N_16  and  C_17 
REMARK    7  A    between atoms: C_17  and  C_18 
ROOT
HETATM    1  N   UNL     1      23.927  47.462  50.136  1.00  0.00    -0.325 N 
HETATM    2  C   UNL     1      25.295  47.630  50.019  1.00  0.00     0.239 C 
HETATM    3  O   UNL     1      25.876  47.984  48.996  1.00  0.00    -0.271 OA
HETATM    4  H   UNL     1      23.619  47.017  51.001  1.00  0.00     0.169 HD
ENDROOT
BRANCH   2   5
HETATM    5  C   UNL     1      26.076  47.235  51.275  1.00  0.00     0.227 C 
BRANCH   5   6
HETATM    6  N   UNL     1      25.255  46.531  52.248  1.00  0.00    -0.334 N 
HETATM    7  C   UNL     1      25.597  45.307  52.744  1.00  0.00     0.316 C 
HETATM    8  N   UNL     1      26.928  45.155  52.994  1.00  0.00    -0.339 N 
HETATM    9  O   UNL     1      24.751  44.440  52.898  1.00  0.00    -0.247 OA
HETATM   10  H   UNL     1      27.278  45.887  53.596  1.00  0.00     0.164 HD
HETATM   11  H   UNL     1      24.256  46.560  52.070  1.00  0.00     0.164 HD
BRANCH   8  12
HETATM   12  C   UNL     1      27.471  43.837  53.257  1.00  0.00     0.162 C 
BRANCH  12  13
HETATM   13  C   UNL     1      28.599  43.964  54.250  1.00  0.00    -0.040 A 
HETATM   14  C   UNL     1      28.740  45.105  55.053  1.00  0.00     0.012 A 
HETATM   15  C   UNL     1      29.811  45.210  55.943  1.00  0.00     0.043 A 
HETATM   16  C   UNL     1      30.735  44.175  56.035  1.00  0.00     0.116 A 
HETATM   17  F   UNL     1      31.766  44.285  56.883  1.00  0.00    -0.206 F 
HETATM   18  C   UNL     1      30.608  43.031  55.259  1.00  0.00     0.043 A 
HETATM   19  C   UNL     1      29.540  42.924  54.368  1.00  0.00     0.012 A 
ENDBRANCH  12  13
ENDBRANCH   8  12
ENDBRANCH   5   6
ENDBRANCH   2   5
BRANCH   1  20
HETATM   20  C   UNL     1      22.930  47.668  49.158  1.00  0.00     0.043 A 
HETATM   21  C   UNL     1      22.276  48.862  48.862  1.00  0.00     0.002 A 
HETATM   22  C   UNL     1      22.386  50.217  49.485  1.00  0.00     0.276 C 
HETATM   23  C   UNL     1      21.298  48.912  47.850  1.00  0.00    -0.022 A 
HETATM   24  N   UNL     1      21.202  51.040  48.952  1.00  0.00    -0.063 N 
HETATM   25  H   UNL     1      21.574  51.937  48.625  1.00  0.00     0.280 HD
HETATM   26  C   UNL     1      20.715  50.279  47.729  1.00  0.00     0.274 C 
HETATM   27  C   UNL     1      20.960  47.796  47.103  1.00  0.00     0.009 A 
HETATM   28  C   UNL     1      21.590  46.594  47.402  1.00  0.00     0.003 A 
HETATM   29  C   UNL     1      22.549  46.531  48.425  1.00  0.00     0.030 A 
BRANCH  24  30
HETATM   30  C   UNL     1      20.111  51.289  49.957  1.00  0.00     0.239 C 
BRANCH  30  31
HETATM   31  C   UNL     1      18.882  50.388  49.744  1.00  0.00     0.003 C 
HETATM   32  C   UNL     1      17.614  51.243  49.826  1.00  0.00     0.011 C 
HETATM   33  C   UNL     1      18.797  49.243  50.755  1.00  0.00     0.011 C 
ENDBRANCH  30  31
ENDBRANCH  24  30
ENDBRANCH   1  20
TORSDOF 7
ENDMDL
MODEL 4
REMARK VINA RESULT:      -8.7      3.710      9.931
REMARK  7 active torsions:
REMARK  status: ('A' for Active; 'I' for Inactive)
REMARK    1  A    between atoms: C_2  and  C_3 
REMARK    2  A    between atoms: C_3  and  N_4 
REMARK    3  A    between atoms: C_10  and  N_11 
REMARK       I    between atoms: N_11  and  C_12 
REMARK    4  A    between atoms: C_12  and  C_13 
REMARK    5  A    between atoms: C_13  and  N_14 
REMARK       I    between atoms: N_14  and  C_15 
REMARK       I    between atoms: C_15  and  N_16 
REMARK    6  A    between atoms: N_16  and  C_17 
REMARK    7  A    between atoms: C_17  and  C_18 
ROOT
HETATM    1  N   UNL     1      25.913  45.557  51.631  1.00  0.00    -0.325 N 
HETATM    2  C   UNL     1      24.672  45.087  51.241  1.00  0.00     0.239 C 
HETATM    3  O   UNL     1      24.156  44.047  51.643  1.00  0.00    -0.271 OA
HETATM    4  H   UNL     1      26.263  46.350  51.093  1.00  0.00     0.169 HD
ENDROOT
BRANCH   2   5
HETATM    5  C   UNL     1      24.002  45.936  50.158  1.00  0.00     0.227 C 
BRANCH   5   6
HETATM    6  N   UNL     1      24.068  47.361  50.441  1.00  0.00    -0.334 N 
HETATM    7  C   UNL     1      23.505  48.296  49.622  1.00  0.00     0.316 C 
HETATM    8  N   UNL     1      22.297  47.935  49.105  1.00  0.00    -0.339 N 
HETATM    9  O   UNL     1      24.090  49.339  49.373  1.00  0.00    -0.247 OA
HETATM   10  H   UNL     1      21.647  47.668  49.832  1.00  0.00     0.164 HD
HETATM   11  H   UNL     1      24.969  47.694  50.768  1.00  0.00     0.164 HD
BRANCH   8  12
HETATM   12  C   UNL     1      21.716  48.696  48.017  1.00  0.00     0.162 C 
BRANCH  12  13
HETATM   13  C   UNL     1      20.777  49.727  48.591  1.00  0.00    -0.040 A 
HETATM   14  C   UNL     1      20.709  51.025  48.065  1.00  0.00     0.012 A 
HETATM   15  C   UNL     1      19.851  51.970  48.635  1.00  0.00     0.043 A 
HETATM   16  C   UNL     1      19.060  51.615  49.723  1.00  0.00     0.116 A 
HETATM   17  F   UNL     1      18.248  52.527  50.272  1.00  0.00    -0.206 F 
HETATM   18  C   UNL     1      19.103  50.332  50.251  1.00  0.00     0.043 A 
HETATM   19  C   UNL     1      19.959  49.387  49.685  1.00  0.00     0.012 A 
ENDBRANCH  12  13
ENDBRANCH   8  12
ENDBRANCH   5   6
ENDBRANCH   2   5
BRANCH   1  20
HETATM   20  C   UNL     1      26.819  44.988  52.551  1.00  0.00     0.043 A 
HETATM   21  C   UNL     1      27.719  43.951  52.314  1.00  0.00     0.002 A 
HETATM   22  C   UNL     1      27.961  43.128  51.089  1.00  0.00     0.276 C 
HETATM   23  C   UNL     1      28.566  43.489  53.339  1.00  0.00    -0.022 A 
HETATM   24  N   UNL     1      28.840  41.944  51.525  1.00  0.00    -0.063 N 
HETATM   25  H   UNL     1      29.619  41.880  50.863  1.00  0.00     0.280 HD
HETATM   26  C   UNL     1      29.419  42.360  52.868  1.00  0.00     0.274 C 
HETATM   27  C   UNL     1      28.556  44.049  54.606  1.00  0.00     0.009 A 
HETATM   28  C   UNL     1      27.649  45.070  54.861  1.00  0.00     0.003 A 
HETATM   29  C   UNL     1      26.784  45.520  53.852  1.00  0.00     0.030 A 
BRANCH  24  30
HETATM   30  C   UNL     1      28.125  40.623  51.582  1.00  0.00     0.239 C 
BRANCH  30  31
HETATM   31  C   UNL     1      28.356  39.761  50.328  1.00  0.00     0.003 C 
HETATM   32  C   UNL     1      27.008  39.230  49.831  1.00  0.00     0.011 C 
HETATM   33  C   UNL     1      29.310  38.592  50.572  1.00  0.00     0.011 C 
ENDBRANCH  30  31
ENDBRANCH  24  30
ENDBRANCH   1  20
TORSDOF 7
ENDMDL
MODEL 5
REMARK VINA RESULT:      -8.7      3.407      9.948
REMARK  7 active torsions:
REMARK  status: ('A' for Active; 'I' for Inactive)
REMARK    1  A    between atoms: C_2  and  C_3 
REMARK    2  A    between atoms: C_3  and  N_4 
REMARK    3  A    between atoms: C_10  and  N_11 
REMARK       I    between atoms: N_11  and  C_12 
REMARK    4  A    between atoms: C_12  and  C_13 
REMARK    5  A    between atoms: C_13  and  N_14 
REMARK       I    between atoms: N_14  and  C_15 
REMARK       I    between atoms: C_15  and  N_16 
REMARK    6  A    between atoms: N_16  and  C_17 
REMARK    7  A    between atoms: C_17  and  C_18 
ROOT
HETATM    1  N   UNL     1      25.662  45.432  50.573  1.00  0.00    -0.325 N 
HETATM    2  C   UNL     1      26.218  46.430  49.794  1.00  0.00     0.239 C 
HETATM    3  O   UNL     1      27.324  46.375  49.262  1.00  0.00    -0.271 OA
HETATM    4  H   UNL     1      24.808  45.694  51.066  1.00  0.00     0.169 HD
ENDROOT
BRANCH   2   5
HETATM    5  C   UNL     1      25.365  47.700  49.715  1.00  0.00     0.227 C 
BRANCH   5   6
HETATM    6  N   UNL     1      26.080  48.820  49.124  1.00  0.00    -0.334 N 
HETATM    7  C   UNL     1      25.457  49.760  48.356  1.00  0.00     0.316 C 
HETATM    8  N   UNL     1      24.222  50.122  48.804  1.00  0.00    -0.339 N 
HETATM    9  O   UNL     1      25.986  50.185  47.341  1.00  0.00    -0.247 OA
HETATM   10  H   UNL     1      24.250  50.420  49.770  1.00  0.00     0.164 HD
HETATM   11  H   UNL     1      26.980  48.590  48.717  1.00  0.00     0.164 HD
BRANCH   8  12
HETATM   12  C   UNL     1      23.338  50.895  47.953  1.00  0.00     0.162 C 
BRANCH  12  13
HETATM   13  C   UNL     1      21.912  50.505  48.250  1.00  0.00    -0.040 A 
HETATM   14  C   UNL     1      21.070  51.335  49.004  1.00  0.00     0.012 A 
HETATM   15  C   UNL     1      19.762  50.935  49.289  1.00  0.00     0.043 A 
HETATM   16  C   UNL     1      19.296  49.713  48.817  1.00  0.00     0.116 A 
HETATM   17  F   UNL     1      18.045  49.330  49.103  1.00  0.00    -0.206 F 
HETATM   18  C   UNL     1      20.108  48.881  48.059  1.00  0.00     0.043 A 
HETATM   19  C   UNL     1      21.415  49.276  47.773  1.00  0.00     0.012 A 
ENDBRANCH  12  13
ENDBRANCH   8  12
ENDBRANCH   5   6
ENDBRANCH   2   5
BRANCH   1  20
HETATM   20  C   UNL     1      26.205  44.172  50.905  1.00  0.00     0.043 A 
HETATM   21  C   UNL     1      26.599  43.731  52.167  1.00  0.00     0.002 A 
HETATM   22  C   UNL     1      26.614  44.434  53.487  1.00  0.00     0.276 C 
HETATM   23  C   UNL     1      27.125  42.437  52.342  1.00  0.00    -0.022 A 
HETATM   24  N   UNL     1      27.442  43.556  54.439  1.00  0.00    -0.063 N 
HETATM   25  H   UNL     1      26.901  43.444  55.303  1.00  0.00     0.280 HD
HETATM   26  C   UNL     1      27.504  42.195  53.764  1.00  0.00     0.274 C 
HETATM   27  C   UNL     1      27.254  41.550  51.285  1.00  0.00     0.009 A 
HETATM   28  C   UNL     1      26.884  41.985  50.019  1.00  0.00     0.003 A 
HETATM   29  C   UNL     1      26.382  43.282  49.832  1.00  0.00     0.030 A 
BRANCH  24  30
HETATM   30  C   UNL     1      28.802  44.104  54.772  1.00  0.00     0.239 C 
BRANCH  30  31
HETATM   31  C   UNL     1      29.905  43.031  54.743  1.00  0.00     0.003 C 
HETATM   32  C   UNL     1      30.946  43.355  55.819  1.00  0.00     0.011 C 
HETATM   33  C   UNL     1      30.592  42.914  53.382  1.00  0.00     0.011 C 
ENDBRANCH  30  31
ENDBRANCH  24  30
ENDBRANCH   1  20
TORSDOF 7
ENDMDL
MODEL 6
REMARK VINA RESULT:      -8.7      3.605      9.757
REMARK  7 active torsions:
REMARK  status: ('A' for Active; 'I' for Inactive)
REMARK    1  A    between atoms: C_2  and  C_3 
REMARK    2  A    between atoms: C_3  and  N_4 
REMARK    3  A    between atoms: C_10  and  N_11 
REMARK       I    between atoms: N_11  and  C_12 
REMARK    4  A    between atoms: C_12  and  C_13 
REMARK    5  A    between atoms: C_13  and  N_14 
REMARK       I    between atoms: N_14  and  C_15 
REMARK       I    between atoms: C_15  and  N_16 
REMARK    6  A    between atoms: N_16  and  C_17 
REMARK    7  A    between atoms: C_17  and  C_18 
ROOT
HETATM    1  N   UNL     1      25.596  44.402  50.279  1.00  0.00    -0.325 N 
HETATM    2  C   UNL     1      24.217  44.474  50.356  1.00  0.00     0.239 C 
HETATM    3  O   UNL     1      23.501  43.661  50.934  1.00  0.00    -0.271 OA
HETATM    4  H   UNL     1      26.028  45.066  49.636  1.00  0.00     0.169 HD
ENDROOT
BRANCH   2   5
HETATM    5  C   UNL     1      23.613  45.632  49.557  1.00  0.00     0.227 C 
BRANCH   5   6
HETATM    6  N   UNL     1      23.951  46.933  50.111  1.00  0.00    -0.334 N 
HETATM    7  C   UNL     1      23.608  48.101  49.495  1.00  0.00     0.316 C 
HETATM    8  N   UNL     1      22.369  48.094  48.929  1.00  0.00    -0.339 N 
HETATM    9  O   UNL     1      24.394  49.035  49.449  1.00  0.00    -0.247 OA
HETATM   10  H   UNL     1      21.657  47.828  49.596  1.00  0.00     0.164 HD
HETATM   11  H   UNL     1      24.889  47.010  50.488  1.00  0.00     0.164 HD
BRANCH   8  12
HETATM   12  C   UNL     1      21.982  49.151  48.015  1.00  0.00     0.162 C 
BRANCH  12  13
HETATM   13  C   UNL     1      20.887  49.970  48.653  1.00  0.00    -0.040 A 
HETATM   14  C   UNL     1      20.073  49.440  49.663  1.00  0.00     0.012 A 
HETATM   15  C   UNL     1      19.047  50.210  50.216  1.00  0.00     0.043 A 
HETATM   16  C   UNL     1      18.841  51.509  49.764  1.00  0.00     0.116 A 
HETATM   17  F   UNL     1      17.849  52.240  50.289  1.00  0.00    -0.206 F 
HETATM   18  C   UNL     1      19.643  52.058  48.773  1.00  0.00     0.043 A 
HETATM   19  C   UNL     1      20.667  51.291  48.218  1.00  0.00     0.012 A 
ENDBRANCH  12  13
ENDBRANCH   8  12
ENDBRANCH   5   6
ENDBRANCH   2   5
BRANCH   1  20
HETATM   20  C   UNL     1      26.457  43.434  50.839  1.00  0.00     0.043 A 
HETATM   21  C   UNL     1      26.871  43.342  52.166  1.00  0.00     0.002 A 
HETATM   22  C   UNL     1      26.585  44.221  53.342  1.00  0.00     0.276 C 
HETATM   23  C   UNL     1      27.738  42.311  52.577  1.00  0.00    -0.022 A 
HETATM   24  N   UNL     1      27.562  43.798  54.451  1.00  0.00    -0.063 N 
HETATM   25  H   UNL     1      27.017  43.670  55.309  1.00  0.00     0.280 HD
HETATM   26  C   UNL     1      28.067  42.427  54.026  1.00  0.00     0.274 C 
HETATM   27  C   UNL     1      28.197  41.346  51.696  1.00  0.00     0.009 A 
HETATM   28  C   UNL     1      27.808  41.439  50.365  1.00  0.00     0.003 A 
HETATM   29  C   UNL     1      26.964  42.477  49.943  1.00  0.00     0.030 A 
BRANCH  24  30
HETATM   30  C   UNL     1      28.675  44.775  54.710  1.00  0.00     0.239 C 
BRANCH  30  31
HETATM   31  C   UNL     1      28.294  45.862  55.731  1.00  0.00     0.003 C 
HETATM   32  C   UNL     1      28.195  47.211  55.013  1.00  0.00     0.011 C 
HETATM   33  C   UNL     1      29.286  45.967  56.891  1.00  0.00     0.011 C 
ENDBRANCH  30  31
ENDBRANCH  24  30
ENDBRANCH   1  20
TORSDOF 7
ENDMDL
MODEL 7
REMARK VINA RESULT:      -8.3      2.763      4.487
REMARK  7 active torsions:
REMARK  status: ('A' for Active; 'I' for Inactive)
REMARK    1  A    between atoms: C_2  and  C_3 
REMARK    2  A    between atoms: C_3  and  N_4 
REMARK    3  A    between atoms: C_10  and  N_11 
REMARK       I    between atoms: N_11  and  C_12 
REMARK    4  A    between atoms: C_12  and  C_13 
REMARK    5  A    between atoms: C_13  and  N_14 
REMARK       I    between atoms: N_14  and  C_15 
REMARK       I    between atoms: C_15  and  N_16 
REMARK    6  A    between atoms: N_16  and  C_17 
REMARK    7  A    between atoms: C_17  and  C_18 
ROOT
HETATM    1  N   UNL     1      22.299  47.982  49.318  1.00  0.00    -0.325 N 
HETATM    2  C   UNL     1      22.657  47.012  48.400  1.00  0.00     0.239 C 
HETATM    3  O   UNL     1      22.234  46.943  47.248  1.00  0.00    -0.271 OA
HETATM    4  H   UNL     1      22.616  47.812  50.272  1.00  0.00     0.169 HD
ENDROOT
BRANCH   2   5
HETATM    5  C   UNL     1      23.579  45.932  48.970  1.00  0.00     0.227 C 
BRANCH   5   6
HETATM    6  N   UNL     1      22.861  44.934  49.747  1.00  0.00    -0.334 N 
HETATM    7  C   UNL     1      23.487  44.115  50.641  1.00  0.00     0.316 C 
HETATM    8  N   UNL     1      24.464  44.723  51.371  1.00  0.00    -0.339 N 
HETATM    9  O   UNL     1      23.187  42.934  50.719  1.00  0.00    -0.247 OA
HETATM   10  H   UNL     1      24.119  45.552  51.836  1.00  0.00     0.164 HD
HETATM   11  H   UNL     1      22.165  44.406  49.232  1.00  0.00     0.164 HD
BRANCH   8  12
HETATM   12  C   UNL     1      25.390  43.926  52.152  1.00  0.00     0.162 C 
BRANCH  12  13
HETATM   13  C   UNL     1      26.171  44.840  53.063  1.00  0.00    -0.040 A 
HETATM   14  C   UNL     1      27.241  44.363  53.832  1.00  0.00     0.012 A 
HETATM   15  C   UNL     1      27.929  45.225  54.690  1.00  0.00     0.043 A 
HETATM   16  C   UNL     1      27.552  46.561  54.773  1.00  0.00     0.116 A 
HETATM   17  F   UNL     1      28.207  47.381  55.604  1.00  0.00    -0.206 F 
HETATM   18  C   UNL     1      26.503  47.057  54.011  1.00  0.00     0.043 A 
HETATM   19  C   UNL     1      25.813  46.199  53.155  1.00  0.00     0.012 A 
ENDBRANCH  12  13
ENDBRANCH   8  12
ENDBRANCH   5   6
ENDBRANCH   2   5
BRANCH   1  20
HETATM   20  C   UNL     1      21.422  49.075  49.145  1.00  0.00     0.043 A 
HETATM   21  C   UNL     1      20.043  49.087  49.343  1.00  0.00     0.002 A 
HETATM   22  C   UNL     1      19.102  47.993  49.734  1.00  0.00     0.276 C 
HETATM   23  C   UNL     1      19.299  50.263  49.129  1.00  0.00    -0.022 A 
HETATM   24  N   UNL     1      17.683  48.527  49.485  1.00  0.00    -0.063 N 
HETATM   25  H   UNL     1      17.131  48.341  50.328  1.00  0.00     0.280 HD
HETATM   26  C   UNL     1      17.845  50.035  49.373  1.00  0.00     0.274 C 
HETATM   27  C   UNL     1      19.899  51.449  48.737  1.00  0.00     0.009 A 
HETATM   28  C   UNL     1      21.270  51.445  48.516  1.00  0.00     0.003 A 
HETATM   29  C   UNL     1      22.016  50.271  48.703  1.00  0.00     0.030 A 
BRANCH  24  30
HETATM   30  C   UNL     1      16.989  47.926  48.294  1.00  0.00     0.239 C 
BRANCH  30  31
HETATM   31  C   UNL     1      16.561  48.977  47.254  1.00  0.00     0.003 C 
HETATM   32  C   UNL     1      15.065  48.819  46.969  1.00  0.00     0.011 C 
HETATM   33  C   UNL     1      17.347  48.880  45.946  1.00  0.00     0.011 C 
ENDBRANCH  30  31
ENDBRANCH  24  30
ENDBRANCH   1  20
TORSDOF 7
ENDMDL
MODEL 8
REMARK VINA RESULT:      -8.3      2.343      4.316
REMARK  7 active torsions:
REMARK  status: ('A' for Active; 'I' for Inactive)
REMARK    1  A    between atoms: C_2  and  C_3 
REMARK    2  A    between atoms: C_3  and  N_4 
REMARK    3  A    between atoms: C_10  and  N_11 
REMARK       I    between atoms: N_11  and  C_12 
REMARK    4  A    between atoms: C_12  and  C_13 
REMARK    5  A    between atoms: C_13  and  N_14 
REMARK       I    between atoms: N_14  and  C_15 
REMARK       I    between atoms: C_15  and  N_16 
REMARK    6  A    between atoms: N_16  and  C_17 
REMARK    7  A    between atoms: C_17  and  C_18 
ROOT
HETATM    1  N   UNL     1      22.544  48.083  49.555  1.00  0.00    -0.325 N 
HETATM    2  C   UNL     1      22.897  46.958  48.832  1.00  0.00     0.239 C 
HETATM    3  O   UNL     1      22.454  46.665  47.724  1.00  0.00    -0.271 OA
HETATM    4  H   UNL     1      22.881  48.102  50.518  1.00  0.00     0.169 HD
ENDROOT
BRANCH   2   5
HETATM    5  C   UNL     1      23.843  46.015  49.580  1.00  0.00     0.227 C 
BRANCH   5   6
HETATM    6  N   UNL     1      25.212  46.506  49.615  1.00  0.00    -0.334 N 
HETATM    7  C   UNL     1      25.756  47.072  50.731  1.00  0.00     0.316 C 
HETATM    8  N   UNL     1      25.402  46.465  51.898  1.00  0.00    -0.339 N 
HETATM    9  O   UNL     1      26.467  48.062  50.643  1.00  0.00    -0.247 OA
HETATM   10  H   UNL     1      25.600  45.474  51.876  1.00  0.00     0.164 HD
HETATM   11  H   UNL     1      25.505  47.024  48.793  1.00  0.00     0.164 HD
BRANCH   8  12
HETATM   12  C   UNL     1      25.676  47.113  53.166  1.00  0.00     0.162 C 
BRANCH  12  13
HETATM   13  C   UNL     1      26.812  46.391  53.847  1.00  0.00    -0.040 A 
HETATM   14  C   UNL     1      27.590  47.018  54.830  1.00  0.00     0.012 A 
HETATM   15  C   UNL     1      28.656  46.336  55.423  1.00  0.00     0.043 A 
HETATM   16  C   UNL     1      28.937  45.029  55.039  1.00  0.00     0.116 A 
HETATM   17  F   UNL     1      29.965  44.383  55.603  1.00  0.00    -0.206 F 
HETATM   18  C   UNL     1      28.172  44.386  54.076  1.00  0.00     0.043 A 
HETATM   19  C   UNL     1      27.108  45.064  53.481  1.00  0.00     0.012 A 
ENDBRANCH  12  13
ENDBRANCH   8  12
ENDBRANCH   5   6
ENDBRANCH   2   5
BRANCH   1  20
HETATM   20  C   UNL     1      21.650  49.114  49.194  1.00  0.00     0.043 A 
HETATM   21  C   UNL     1      20.258  49.063  49.203  1.00  0.00     0.002 A 
HETATM   22  C   UNL     1      19.323  47.943  49.535  1.00  0.00     0.276 C 
HETATM   23  C   UNL     1      19.497  50.182  48.815  1.00  0.00    -0.022 A 
HETATM   24  N   UNL     1      17.929  48.384  49.062  1.00  0.00    -0.063 N 
HETATM   25  H   UNL     1      17.275  48.218  49.833  1.00  0.00     0.280 HD
HETATM   26  C   UNL     1      18.035  49.890  48.875  1.00  0.00     0.274 C 
HETATM   27  C   UNL     1      20.090  51.373  48.430  1.00  0.00     0.009 A 
HETATM   28  C   UNL     1      21.477  51.431  48.396  1.00  0.00     0.003 A 
HETATM   29  C   UNL     1      22.243  50.312  48.759  1.00  0.00     0.030 A 
BRANCH  24  30
HETATM   30  C   UNL     1      17.434  47.677  47.830  1.00  0.00     0.239 C 
BRANCH  30  31
HETATM   31  C   UNL     1      17.536  48.541  46.560  1.00  0.00     0.003 C 
HETATM   32  C   UNL     1      16.255  48.375  45.738  1.00  0.00     0.011 C 
HETATM   33  C   UNL     1      18.750  48.196  45.697  1.00  0.00     0.011 C 
ENDBRANCH  30  31
ENDBRANCH  24  30
ENDBRANCH   1  20
TORSDOF 7
ENDMDL
MODEL 9
REMARK VINA RESULT:      -8.1      2.795      3.805
REMARK  7 active torsions:
REMARK  status: ('A' for Active; 'I' for Inactive)
REMARK    1  A    between atoms: C_2  and  C_3 
REMARK    2  A    between atoms: C_3  and  N_4 
REMARK    3  A    between atoms: C_10  and  N_11 
REMARK       I    between atoms: N_11  and  C_12 
REMARK    4  A    between atoms: C_12  and  C_13 
REMARK    5  A    between atoms: C_13  and  N_14 
REMARK       I    between atoms: N_14  and  C_15 
REMARK       I    between atoms: C_15  and  N_16 
REMARK    6  A    between atoms: N_16  and  C_17 
REMARK    7  A    between atoms: C_17  and  C_18 
ROOT
HETATM    1  N   UNL     1      26.104  44.157  51.123  1.00  0.00    -0.325 N 
HETATM    2  C   UNL     1      26.895  43.210  50.499  1.00  0.00     0.239 C 
HETATM    3  O   UNL     1      27.263  43.262  49.328  1.00  0.00    -0.271 OA
HETATM    4  H   UNL     1      25.761  43.893  52.047  1.00  0.00     0.169 HD
ENDROOT
BRANCH   2   5
HETATM    5  C   UNL     1      27.216  41.997  51.376  1.00  0.00     0.227 C 
BRANCH   5   6
HETATM    6  N   UNL     1      28.635  41.878  51.672  1.00  0.00    -0.334 N 
HETATM    7  C   UNL     1      29.235  42.586  52.672  1.00  0.00     0.316 C 
HETATM    8  N   UNL     1      28.486  42.703  53.804  1.00  0.00    -0.339 N 
HETATM    9  O   UNL     1      30.337  43.086  52.506  1.00  0.00    -0.247 OA
HETATM   10  H   UNL     1      28.186  41.800  54.145  1.00  0.00     0.164 HD
HETATM   11  H   UNL     1      29.243  41.852  50.860  1.00  0.00     0.164 HD
BRANCH   8  12
HETATM   12  C   UNL     1      28.870  43.647  54.835  1.00  0.00     0.162 C 
BRANCH  12  13
HETATM   13  C   UNL     1      28.015  44.883  54.707  1.00  0.00    -0.040 A 
HETATM   14  C   UNL     1      28.552  46.165  54.889  1.00  0.00     0.012 A 
HETATM   15  C   UNL     1      27.730  47.291  54.794  1.00  0.00     0.043 A 
HETATM   16  C   UNL     1      26.377  47.135  54.512  1.00  0.00     0.116 A 
HETATM   17  F   UNL     1      25.592  48.217  54.433  1.00  0.00    -0.206 F 
HETATM   18  C   UNL     1      25.827  45.876  54.318  1.00  0.00     0.043 A 
HETATM   19  C   UNL     1      26.644  44.750  54.413  1.00  0.00     0.012 A 
ENDBRANCH  12  13
ENDBRANCH   8  12
ENDBRANCH   5   6
ENDBRANCH   2   5
BRANCH   1  20
HETATM   20  C   UNL     1      25.577  45.353  50.588  1.00  0.00     0.043 A 
HETATM   21  C   UNL     1      24.374  45.510  49.904  1.00  0.00     0.002 A 
HETATM   22  C   UNL     1      23.339  44.507  49.502  1.00  0.00     0.276 C 
HETATM   23  C   UNL     1      23.979  46.775  49.429  1.00  0.00    -0.022 A 
HETATM   24  N   UNL     1      22.407  45.217  48.507  1.00  0.00    -0.063 N 
HETATM   25  H   UNL     1      21.443  45.039  48.808  1.00  0.00     0.280 HD
HETATM   26  C   UNL     1      22.677  46.700  48.706  1.00  0.00     0.274 C 
HETATM   27  C   UNL     1      24.751  47.907  49.634  1.00  0.00     0.009 A 
HETATM   28  C   UNL     1      25.963  47.760  50.296  1.00  0.00     0.003 A 
HETATM   29  C   UNL     1      26.375  46.498  50.752  1.00  0.00     0.030 A 
BRANCH  24  30
HETATM   30  C   UNL     1      22.570  44.781  47.077  1.00  0.00     0.239 C 
BRANCH  30  31
HETATM   31  C   UNL     1      21.233  44.703  46.317  1.00  0.00     0.003 C 
HETATM   32  C   UNL     1      21.139  45.884  45.348  1.00  0.00     0.011 C 
HETATM   33  C   UNL     1      20.017  44.699  47.244  1.00  0.00     0.011 C 
ENDBRANCH  30  31
ENDBRANCH  24  30
ENDBRANCH   1  20
TORSDOF 7
ENDMDL
MODEL 10
REMARK VINA RESULT:      -8.1      2.400      3.582
REMARK  7 active torsions:
REMARK  status: ('A' for Active; 'I' for Inactive)
REMARK    1  A    between atoms: C_2  and  C_3 
REMARK    2  A    between atoms: C_3  and  N_4 
REMARK    3  A    between atoms: C_10  and  N_11 
REMARK       I    between atoms: N_11  and  C_12 
REMARK    4  A    between atoms: C_12  and  C_13 
REMARK    5  A    between atoms: C_13  and  N_14 
REMARK       I    between atoms: N_14  and  C_15 
REMARK       I    between atoms: C_15  and  N_16 
REMARK    6  A    between atoms: N_16  and  C_17 
REMARK    7  A    between atoms: C_17  and  C_18 
ROOT
HETATM    1  N   UNL     1      24.135  45.083  49.872  1.00  0.00    -0.325 N 
HETATM    2  C   UNL     1      24.273  44.137  50.871  1.00  0.00     0.239 C 
HETATM    3  O   UNL     1      23.477  43.229  51.095  1.00  0.00    -0.271 OA
HETATM    4  H   UNL     1      24.798  45.858  49.915  1.00  0.00     0.169 HD
ENDROOT
BRANCH   2   5
HETATM    5  C   UNL     1      25.486  44.368  51.777  1.00  0.00     0.227 C 
BRANCH   5   6
HETATM    6  N   UNL     1      25.925  45.755  51.784  1.00  0.00    -0.334 N 
HETATM    7  C   UNL     1      26.414  46.360  52.905  1.00  0.00     0.316 C 
HETATM    8  N   UNL     1      27.218  45.567  53.667  1.00  0.00    -0.339 N 
HETATM    9  O   UNL     1      26.099  47.508  53.179  1.00  0.00    -0.247 OA
HETATM   10  H   UNL     1      27.974  45.173  53.123  1.00  0.00     0.164 HD
HETATM   11  H   UNL     1      25.324  46.400  51.283  1.00  0.00     0.164 HD
BRANCH   8  12
HETATM   12  C   UNL     1      27.581  45.977  55.009  1.00  0.00     0.162 C 
BRANCH  12  13
HETATM   13  C   UNL     1      28.814  45.218  55.433  1.00  0.00    -0.040 A 
HETATM   14  C   UNL     1      29.246  44.080  54.737  1.00  0.00     0.012 A 
HETATM   15  C   UNL     1      30.375  43.379  55.169  1.00  0.00     0.043 A 
HETATM   16  C   UNL     1      31.072  43.818  56.290  1.00  0.00     0.116 A 
HETATM   17  F   UNL     1      32.146  43.136  56.706  1.00  0.00    -0.206 F 
HETATM   18  C   UNL     1      30.668  44.949  56.986  1.00  0.00     0.043 A 
HETATM   19  C   UNL     1      29.541  45.650  56.558  1.00  0.00     0.012 A 
ENDBRANCH  12  13
ENDBRANCH   8  12
ENDBRANCH   5   6
ENDBRANCH   2   5
BRANCH   1  20
HETATM   20  C   UNL     1      23.107  45.204  48.912  1.00  0.00     0.043 A 
HETATM   21  C   UNL     1      22.552  46.382  48.417  1.00  0.00     0.002 A 
HETATM   22  C   UNL     1      22.824  47.811  48.763  1.00  0.00     0.276 C 
HETATM   23  C   UNL     1      21.525  46.341  47.454  1.00  0.00    -0.022 A 
HETATM   24  N   UNL     1      21.694  48.637  48.127  1.00  0.00    -0.063 N 
HETATM   25  H   UNL     1      22.128  49.414  47.620  1.00  0.00     0.280 HD
HETATM   26  C   UNL     1      21.067  47.714  47.094  1.00  0.00     0.274 C 
HETATM   27  C   UNL     1      21.042  45.145  46.949  1.00  0.00     0.009 A 
HETATM   28  C   UNL     1      21.572  43.963  47.450  1.00  0.00     0.003 A 
HETATM   29  C   UNL     1      22.579  43.994  48.428  1.00  0.00     0.030 A 
BRANCH  24  30
HETATM   30  C   UNL     1      20.691  49.182  49.107  1.00  0.00     0.239 C 
BRANCH  30  31
HETATM   31  C   UNL     1      20.894  50.678  49.404  1.00  0.00     0.003 C 
HETATM   32  C   UNL     1      19.610  51.436  49.053  1.00  0.00     0.011 C 
HETATM   33  C   UNL     1      22.074  51.285  48.643  1.00  0.00     0.011 C 
ENDBRANCH  30  31
ENDBRANCH  24  30
ENDBRANCH   1  20
TORSDOF 7
ENDMDL
