MODEL 1
REMARK VINA RESULT:      -9.7      0.000      0.000
REMARK  6 active torsions:
REMARK  status: ('A' for Active; 'I' for Inactive)
REMARK    1  A    between atoms: C_2  and  C_3 
REMARK    2  A    between atoms: C_2  and  C_9 
REMARK    3  A    between atoms: C_9  and  C_10 
REMARK    4  A    between atoms: C_10  and  C_11 
REMARK       I    between atoms: C_11  and  N_12 
REMARK    5  A    between atoms: N_12  and  C_13 
REMARK    6  A    between atoms: C_20  and  C_21 
REMARK       I    between atoms: C_21  and  N_22 
ROOT
HETATM    1  C   UNL     1      25.075  47.026  50.707  1.00  0.00     0.035 A 
HETATM    2  C   UNL     1      24.070  47.597  49.914  1.00  0.00     0.046 A 
HETATM    3  C   UNL     1      24.405  48.613  48.998  1.00  0.00     0.030 A 
HETATM    4  C   UNL     1      25.739  48.968  48.851  1.00  0.00     0.063 A 
HETATM    5  N   UNL     1      25.747  49.957  47.907  1.00  0.00    -0.277 N 
HETATM    6  H   UNL     1      26.552  50.451  47.541  1.00  0.00     0.189 HD
HETATM    7  N   UNL     1      24.529  50.302  47.454  1.00  0.00    -0.168 NA
HETATM    8  C   UNL     1      23.690  49.476  48.119  1.00  0.00     0.156 A 
HETATM    9  C   UNL     1      26.771  48.364  49.573  1.00  0.00     0.034 A 
HETATM   10  C   UNL     1      26.409  47.386  50.511  1.00  0.00     0.032 A 
ENDROOT
BRANCH   1  11
HETATM   11  N   UNL     1      24.663  46.082  51.659  1.00  0.00    -0.327 N 
HETATM   12  C   UNL     1      25.269  44.968  52.159  1.00  0.00     0.222 C 
HETATM   13  O   UNL     1      24.599  44.227  52.886  1.00  0.00    -0.273 OA
HETATM   14  H   UNL     1      23.799  46.282  52.152  1.00  0.00     0.169 HD
BRANCH  12  15
HETATM   15  C   UNL     1      26.737  44.666  51.918  1.00  0.00     0.104 C 
BRANCH  15  16
HETATM   16  C   UNL     1      27.698  44.904  53.094  1.00  0.00     0.023 C 
BRANCH  16  17
HETATM   17  C   UNL     1      28.559  43.699  53.594  1.00  0.00    -0.020 C 
HETATM   18  C   UNL     1      29.430  43.142  52.444  1.00  0.00     0.020 C 
HETATM   19  C   UNL     1      27.578  42.547  53.954  1.00  0.00     0.020 C 
BRANCH  17  20
HETATM   20  C   UNL     1      29.356  44.071  54.857  1.00  0.00    -0.050 A 
HETATM   21  C   UNL     1      29.082  45.224  55.611  1.00  0.00     0.008 A 
HETATM   22  C   UNL     1      29.833  45.546  56.746  1.00  0.00     0.001 A 
HETATM   23  C   UNL     1      30.876  44.722  57.155  1.00  0.00     0.000 A 
HETATM   24  C   UNL     1      31.163  43.569  56.434  1.00  0.00     0.001 A 
HETATM   25  C   UNL     1      30.411  43.248  55.300  1.00  0.00     0.008 A 
ENDBRANCH  17  20
ENDBRANCH  16  17
ENDBRANCH  15  16
ENDBRANCH  12  15
ENDBRANCH   1  11
BRANCH   8  26
HETATM   26  C   UNL     1      22.234  49.542  47.932  1.00  0.00     0.270 C 
HETATM   27  N   UNL     1      21.679  50.746  48.267  1.00  0.00    -0.365 N 
HETATM   28  H   UNL     1      22.282  51.476  48.627  1.00  0.00     0.159 HD
HETATM   29  H   UNL     1      20.681  50.871  48.208  1.00  0.00     0.159 HD
HETATM   30  O   UNL     1      21.545  48.610  47.527  1.00  0.00    -0.266 OA
ENDBRANCH   8  26
TORSDOF 6
ENDMDL
MODEL 2
REMARK VINA RESULT:      -9.5     11.855     13.633
REMARK  6 active torsions:
REMARK  status: ('A' for Active; 'I' for Inactive)
REMARK    1  A    between atoms: C_2  and  C_3 
REMARK    2  A    between atoms: C_2  and  C_9 
REMARK    3  A    between atoms: C_9  and  C_10 
REMARK    4  A    between atoms: C_10  and  C_11 
REMARK       I    between atoms: C_11  and  N_12 
REMARK    5  A    between atoms: N_12  and  C_13 
REMARK    6  A    between atoms: C_20  and  C_21 
REMARK       I    between atoms: C_21  and  N_22 
ROOT
HETATM    1  C   UNL     1      28.381  51.597  39.538  1.00  0.00     0.035 A 
HETATM    2  C   UNL     1      29.726  51.387  39.202  1.00  0.00     0.046 A 
HETATM    3  C   UNL     1      30.735  51.826  40.080  1.00  0.00     0.030 A 
HETATM    4  C   UNL     1      30.368  52.387  41.296  1.00  0.00     0.063 A 
HETATM    5  N   UNL     1      31.544  52.704  41.917  1.00  0.00    -0.277 N 
HETATM    6  H   UNL     1      31.663  53.125  42.831  1.00  0.00     0.189 HD
HETATM    7  N   UNL     1      32.645  52.430  41.195  1.00  0.00    -0.168 NA
HETATM    8  C   UNL     1      32.159  51.884  40.058  1.00  0.00     0.156 A 
HETATM    9  C   UNL     1      29.037  52.540  41.692  1.00  0.00     0.034 A 
HETATM   10  C   UNL     1      28.049  52.137  40.782  1.00  0.00     0.032 A 
ENDROOT
BRANCH   1  11
HETATM   11  N   UNL     1      27.428  51.216  38.584  1.00  0.00    -0.327 N 
HETATM   12  C   UNL     1      26.947  49.995  38.212  1.00  0.00     0.222 C 
HETATM   13  O   UNL     1      26.213  49.945  37.220  1.00  0.00    -0.273 OA
HETATM   14  H   UNL     1      26.917  51.965  38.128  1.00  0.00     0.169 HD
BRANCH  12  15
HETATM   15  C   UNL     1      27.219  48.738  39.018  1.00  0.00     0.104 C 
BRANCH  15  16
HETATM   16  C   UNL     1      28.458  47.916  38.629  1.00  0.00     0.023 C 
BRANCH  16  17
HETATM   17  C   UNL     1      29.061  46.945  39.695  1.00  0.00    -0.020 C 
HETATM   18  C   UNL     1      29.587  45.658  39.019  1.00  0.00     0.020 C 
HETATM   19  C   UNL     1      27.892  46.475  40.607  1.00  0.00     0.020 C 
BRANCH  17  20
HETATM   20  C   UNL     1      30.103  47.661  40.572  1.00  0.00    -0.050 A 
HETATM   21  C   UNL     1      31.480  47.618  40.297  1.00  0.00     0.008 A 
HETATM   22  C   UNL     1      32.408  48.264  41.121  1.00  0.00     0.001 A 
HETATM   23  C   UNL     1      31.980  48.971  42.239  1.00  0.00     0.000 A 
HETATM   24  C   UNL     1      30.623  49.038  42.531  1.00  0.00     0.001 A 
HETATM   25  C   UNL     1      29.697  48.392  41.706  1.00  0.00     0.008 A 
ENDBRANCH  17  20
ENDBRANCH  16  17
ENDBRANCH  15  16
ENDBRANCH  12  15
ENDBRANCH   1  11
BRANCH   8  26
HETATM   26  C   UNL     1      33.046  51.460  38.965  1.00  0.00     0.270 C 
HETATM   27  N   UNL     1      34.321  51.165  39.360  1.00  0.00    -0.365 N 
HETATM   28  H   UNL     1      34.565  51.274  40.338  1.00  0.00     0.159 HD
HETATM   29  H   UNL     1      35.010  50.902  38.674  1.00  0.00     0.159 HD
HETATM   30  O   UNL     1      32.707  51.382  37.789  1.00  0.00    -0.266 OA
ENDBRANCH   8  26
TORSDOF 6
ENDMDL
MODEL 3
REMARK VINA RESULT:      -9.5      3.912      7.852
REMARK  6 active torsions:
REMARK  status: ('A' for Active; 'I' for Inactive)
REMARK    1  A    between atoms: C_2  and  C_3 
REMARK    2  A    between atoms: C_2  and  C_9 
REMARK    3  A    between atoms: C_9  and  C_10 
REMARK    4  A    between atoms: C_10  and  C_11 
REMARK       I    between atoms: C_11  and  N_12 
REMARK    5  A    between atoms: N_12  and  C_13 
REMARK    6  A    between atoms: C_20  and  C_21 
REMARK       I    between atoms: C_21  and  N_22 
ROOT
HETATM    1  C   UNL     1      27.600  44.462  54.262  1.00  0.00     0.035 A 
HETATM    2  C   UNL     1      26.968  43.551  53.404  1.00  0.00     0.046 A 
HETATM    3  C   UNL     1      27.731  42.547  52.777  1.00  0.00     0.030 A 
HETATM    4  C   UNL     1      29.080  42.439  53.088  1.00  0.00     0.063 A 
HETATM    5  N   UNL     1      29.538  41.390  52.340  1.00  0.00    -0.277 N 
HETATM    6  H   UNL     1      30.481  41.017  52.317  1.00  0.00     0.189 HD
HETATM    7  N   UNL     1      28.613  40.830  51.542  1.00  0.00    -0.168 NA
HETATM    8  C   UNL     1      27.490  41.534  51.804  1.00  0.00     0.156 A 
HETATM    9  C   UNL     1      29.721  43.284  53.996  1.00  0.00     0.034 A 
HETATM   10  C   UNL     1      28.952  44.304  54.574  1.00  0.00     0.032 A 
ENDROOT
BRANCH   1  11
HETATM   11  N   UNL     1      26.803  45.489  54.785  1.00  0.00    -0.327 N 
HETATM   12  C   UNL     1      26.363  46.664  54.251  1.00  0.00     0.222 C 
HETATM   13  O   UNL     1      25.793  47.460  55.004  1.00  0.00    -0.273 OA
HETATM   14  H   UNL     1      26.383  45.321  55.693  1.00  0.00     0.169 HD
BRANCH  12  15
HETATM   15  C   UNL     1      26.481  46.975  52.770  1.00  0.00     0.104 C 
BRANCH  15  16
HETATM   16  C   UNL     1      25.253  46.674  51.896  1.00  0.00     0.023 C 
BRANCH  16  17
HETATM   17  C   UNL     1      25.477  46.439  50.367  1.00  0.00    -0.020 C 
HETATM   18  C   UNL     1      24.260  45.716  49.746  1.00  0.00     0.020 C 
HETATM   19  C   UNL     1      26.659  45.439  50.222  1.00  0.00     0.020 C 
BRANCH  17  20
HETATM   20  C   UNL     1      25.857  47.748  49.653  1.00  0.00    -0.050 A 
HETATM   21  C   UNL     1      27.190  48.162  49.493  1.00  0.00     0.008 A 
HETATM   22  C   UNL     1      27.507  49.365  48.853  1.00  0.00     0.001 A 
HETATM   23  C   UNL     1      26.497  50.181  48.355  1.00  0.00     0.000 A 
HETATM   24  C   UNL     1      25.170  49.792  48.490  1.00  0.00     0.001 A 
HETATM   25  C   UNL     1      24.855  48.590  49.130  1.00  0.00     0.008 A 
ENDBRANCH  17  20
ENDBRANCH  16  17
ENDBRANCH  15  16
ENDBRANCH  12  15
ENDBRANCH   1  11
BRANCH   8  26
HETATM   26  C   UNL     1      26.225  41.256  51.110  1.00  0.00     0.270 C 
HETATM   27  N   UNL     1      25.984  39.927  50.893  1.00  0.00    -0.365 N 
HETATM   28  H   UNL     1      26.677  39.252  51.195  1.00  0.00     0.159 HD
HETATM   29  H   UNL     1      25.159  39.643  50.389  1.00  0.00     0.159 HD
HETATM   30  O   UNL     1      25.439  42.118  50.731  1.00  0.00    -0.266 OA
ENDBRANCH   8  26
TORSDOF 6
ENDMDL
MODEL 4
REMARK VINA RESULT:      -9.4     11.946     14.697
REMARK  6 active torsions:
REMARK  status: ('A' for Active; 'I' for Inactive)
REMARK    1  A    between atoms: C_2  and  C_3 
REMARK    2  A    between atoms: C_2  and  C_9 
REMARK    3  A    between atoms: C_9  and  C_10 
REMARK    4  A    between atoms: C_10  and  C_11 
REMARK       I    between atoms: C_11  and  N_12 
REMARK    5  A    between atoms: N_12  and  C_13 
REMARK    6  A    between atoms: C_20  and  C_21 
REMARK       I    between atoms: C_21  and  N_22 
ROOT
HETATM    1  C   UNL     1      32.128  48.764  41.540  1.00  0.00     0.035 A 
HETATM    2  C   UNL     1      33.443  49.157  41.258  1.00  0.00     0.046 A 
HETATM    3  C   UNL     1      34.000  50.254  41.944  1.00  0.00     0.030 A 
HETATM    4  C   UNL     1      33.254  50.870  42.939  1.00  0.00     0.063 A 
HETATM    5  N   UNL     1      34.048  51.877  43.414  1.00  0.00    -0.277 N 
HETATM    6  H   UNL     1      33.830  52.533  44.155  1.00  0.00     0.189 HD
HETATM    7  N   UNL     1      35.232  51.992  42.788  1.00  0.00    -0.168 NA
HETATM    8  C   UNL     1      35.217  50.993  41.878  1.00  0.00     0.156 A 
HETATM    9  C   UNL     1      31.969  50.452  43.295  1.00  0.00     0.034 A 
HETATM   10  C   UNL     1      31.418  49.387  42.568  1.00  0.00     0.032 A 
ENDROOT
BRANCH   1  11
HETATM   11  N   UNL     1      31.604  47.722  40.762  1.00  0.00    -0.327 N 
HETATM   12  C   UNL     1      30.326  47.398  40.414  1.00  0.00     0.222 C 
HETATM   13  O   UNL     1      30.143  46.321  39.838  1.00  0.00    -0.273 OA
HETATM   14  H   UNL     1      32.274  47.133  40.280  1.00  0.00     0.169 HD
BRANCH  12  15
HETATM   15  C   UNL     1      29.160  48.345  40.637  1.00  0.00     0.104 C 
BRANCH  15  16
HETATM   16  C   UNL     1      28.818  49.310  39.491  1.00  0.00     0.023 C 
BRANCH  16  17
HETATM   17  C   UNL     1      28.940  50.844  39.760  1.00  0.00    -0.020 C 
HETATM   18  C   UNL     1      28.373  51.196  41.154  1.00  0.00     0.020 C 
HETATM   19  C   UNL     1      28.005  51.567  38.748  1.00  0.00     0.020 C 
BRANCH  17  20
HETATM   20  C   UNL     1      30.379  51.337  39.528  1.00  0.00    -0.050 A 
HETATM   21  C   UNL     1      30.950  52.380  40.276  1.00  0.00     0.008 A 
HETATM   22  C   UNL     1      32.256  52.820  40.034  1.00  0.00     0.001 A 
HETATM   23  C   UNL     1      33.023  52.224  39.039  1.00  0.00     0.000 A 
HETATM   24  C   UNL     1      32.488  51.183  38.290  1.00  0.00     0.001 A 
HETATM   25  C   UNL     1      31.183  50.745  38.533  1.00  0.00     0.008 A 
ENDBRANCH  17  20
ENDBRANCH  16  17
ENDBRANCH  15  16
ENDBRANCH  12  15
ENDBRANCH   1  11
BRANCH   8  26
HETATM   26  C   UNL     1      36.335  50.778  40.949  1.00  0.00     0.270 C 
HETATM   27  N   UNL     1      37.543  50.587  41.560  1.00  0.00    -0.365 N 
HETATM   28  H   UNL     1      37.588  50.626  42.572  1.00  0.00     0.159 HD
HETATM   29  H   UNL     1      38.374  50.471  41.002  1.00  0.00     0.159 HD
HETATM   30  O   UNL     1      36.230  50.780  39.727  1.00  0.00    -0.266 OA
ENDBRANCH   8  26
TORSDOF 6
ENDMDL
MODEL 5
REMARK VINA RESULT:      -9.3     11.721     13.621
REMARK  6 active torsions:
REMARK  status: ('A' for Active; 'I' for Inactive)
REMARK    1  A    between atoms: C_2  and  C_3 
REMARK    2  A    between atoms: C_2  and  C_9 
REMARK    3  A    between atoms: C_9  and  C_10 
REMARK    4  A    between atoms: C_10  and  C_11 
REMARK       I    between atoms: C_11  and  N_12 
REMARK    5  A    between atoms: N_12  and  C_13 
REMARK    6  A    between atoms: C_20  and  C_21 
REMARK       I    between atoms: C_21  and  N_22 
ROOT
HETATM    1  C   UNL     1      31.171  49.165  39.324  1.00  0.00     0.035 A 
HETATM    2  C   UNL     1      29.779  49.233  39.174  1.00  0.00     0.046 A 
HETATM    3  C   UNL     1      29.200  50.377  38.592  1.00  0.00     0.030 A 
HETATM    4  C   UNL     1      30.033  51.377  38.109  1.00  0.00     0.063 A 
HETATM    5  N   UNL     1      29.195  52.334  37.608  1.00  0.00    -0.277 N 
HETATM    6  H   UNL     1      29.455  53.208  37.166  1.00  0.00     0.189 HD
HETATM    7  N   UNL     1      27.887  52.060  37.757  1.00  0.00    -0.168 NA
HETATM    8  C   UNL     1      27.876  50.851  38.361  1.00  0.00     0.156 A 
HETATM    9  C   UNL     1      31.427  51.303  38.175  1.00  0.00     0.034 A 
HETATM   10  C   UNL     1      31.979  50.176  38.800  1.00  0.00     0.032 A 
ENDROOT
BRANCH   1  11
HETATM   11  N   UNL     1      31.677  48.040  39.989  1.00  0.00    -0.327 N 
HETATM   12  C   UNL     1      32.631  47.904  40.954  1.00  0.00     0.222 C 
HETATM   13  O   UNL     1      32.988  46.759  41.251  1.00  0.00    -0.273 OA
HETATM   14  H   UNL     1      31.209  47.157  39.810  1.00  0.00     0.169 HD
BRANCH  12  15
HETATM   15  C   UNL     1      33.191  49.093  41.713  1.00  0.00     0.104 C 
BRANCH  15  16
HETATM   16  C   UNL     1      32.218  49.857  42.625  1.00  0.00     0.023 C 
BRANCH  16  17
HETATM   17  C   UNL     1      32.373  51.408  42.731  1.00  0.00    -0.020 C 
HETATM   18  C   UNL     1      33.759  51.850  42.208  1.00  0.00     0.020 C 
HETATM   19  C   UNL     1      32.376  51.771  44.243  1.00  0.00     0.020 C 
BRANCH  17  20
HETATM   20  C   UNL     1      31.192  52.133  42.060  1.00  0.00    -0.050 A 
HETATM   21  C   UNL     1      29.863  51.703  42.204  1.00  0.00     0.008 A 
HETATM   22  C   UNL     1      28.810  52.371  41.569  1.00  0.00     0.001 A 
HETATM   23  C   UNL     1      29.062  53.487  40.778  1.00  0.00     0.000 A 
HETATM   24  C   UNL     1      30.367  53.940  40.626  1.00  0.00     0.001 A 
HETATM   25  C   UNL     1      31.418  53.271  41.261  1.00  0.00     0.008 A 
ENDBRANCH  17  20
ENDBRANCH  16  17
ENDBRANCH  15  16
ENDBRANCH  12  15
ENDBRANCH   1  11
BRANCH   8  26
HETATM   26  C   UNL     1      26.620  50.187  38.734  1.00  0.00     0.270 C 
HETATM   27  N   UNL     1      26.252  50.373  40.038  1.00  0.00    -0.365 N 
HETATM   28  H   UNL     1      26.858  50.918  40.641  1.00  0.00     0.159 HD
HETATM   29  H   UNL     1      25.424  49.922  40.394  1.00  0.00     0.159 HD
HETATM   30  O   UNL     1      25.944  49.504  37.971  1.00  0.00    -0.266 OA
ENDBRANCH   8  26
TORSDOF 6
ENDMDL
MODEL 6
REMARK VINA RESULT:      -9.1     11.944     14.340
REMARK  6 active torsions:
REMARK  status: ('A' for Active; 'I' for Inactive)
REMARK    1  A    between atoms: C_2  and  C_3 
REMARK    2  A    between atoms: C_2  and  C_9 
REMARK    3  A    between atoms: C_9  and  C_10 
REMARK    4  A    between atoms: C_10  and  C_11 
REMARK       I    between atoms: C_11  and  N_12 
REMARK    5  A    between atoms: N_12  and  C_13 
REMARK    6  A    between atoms: C_20  and  C_21 
REMARK       I    between atoms: C_21  and  N_22 
ROOT
HETATM    1  C   UNL     1      30.672  48.275  39.924  1.00  0.00     0.035 A 
HETATM    2  C   UNL     1      31.489  49.363  39.589  1.00  0.00     0.046 A 
HETATM    3  C   UNL     1      31.637  50.425  40.503  1.00  0.00     0.030 A 
HETATM    4  C   UNL     1      31.029  50.327  41.747  1.00  0.00     0.063 A 
HETATM    5  N   UNL     1      31.352  51.486  42.397  1.00  0.00    -0.277 N 
HETATM    6  H   UNL     1      31.086  51.757  43.337  1.00  0.00     0.189 HD
HETATM    7  N   UNL     1      32.087  52.345  41.671  1.00  0.00    -0.168 NA
HETATM    8  C   UNL     1      32.273  51.700  40.497  1.00  0.00     0.156 A 
HETATM    9  C   UNL     1      30.272  49.221  42.138  1.00  0.00     0.034 A 
HETATM   10  C   UNL     1      30.101  48.196  41.196  1.00  0.00     0.032 A 
ENDROOT
BRANCH   1  11
HETATM   11  N   UNL     1      30.498  47.294  38.939  1.00  0.00    -0.327 N 
HETATM   12  C   UNL     1      29.382  46.684  38.448  1.00  0.00     0.222 C 
HETATM   13  O   UNL     1      29.540  45.731  37.678  1.00  0.00    -0.273 OA
HETATM   14  H   UNL     1      31.322  47.030  38.409  1.00  0.00     0.169 HD
BRANCH  12  15
HETATM   15  C   UNL     1      27.983  47.187  38.751  1.00  0.00     0.104 C 
BRANCH  15  16
HETATM   16  C   UNL     1      27.672  48.645  38.376  1.00  0.00     0.023 C 
BRANCH  16  17
HETATM   17  C   UNL     1      26.860  49.509  39.395  1.00  0.00    -0.020 C 
HETATM   18  C   UNL     1      26.494  48.673  40.643  1.00  0.00     0.020 C 
HETATM   19  C   UNL     1      25.499  49.856  38.726  1.00  0.00     0.020 C 
BRANCH  17  20
HETATM   20  C   UNL     1      27.591  50.824  39.717  1.00  0.00    -0.050 A 
HETATM   21  C   UNL     1      27.522  51.438  40.978  1.00  0.00     0.008 A 
HETATM   22  C   UNL     1      28.184  52.642  41.239  1.00  0.00     0.001 A 
HETATM   23  C   UNL     1      28.934  53.260  40.244  1.00  0.00     0.000 A 
HETATM   24  C   UNL     1      29.028  52.671  38.989  1.00  0.00     0.001 A 
HETATM   25  C   UNL     1      28.366  51.467  38.730  1.00  0.00     0.008 A 
ENDBRANCH  17  20
ENDBRANCH  16  17
ENDBRANCH  15  16
ENDBRANCH  12  15
ENDBRANCH   1  11
BRANCH   8  26
HETATM   26  C   UNL     1      33.018  52.314  39.390  1.00  0.00     0.270 C 
HETATM   27  N   UNL     1      33.798  53.376  39.758  1.00  0.00    -0.365 N 
HETATM   28  H   UNL     1      33.794  53.669  40.728  1.00  0.00     0.159 HD
HETATM   29  H   UNL     1      34.316  53.884  39.058  1.00  0.00     0.159 HD
HETATM   30  O   UNL     1      32.956  51.941  38.222  1.00  0.00    -0.266 OA
ENDBRANCH   8  26
TORSDOF 6
ENDMDL
MODEL 7
REMARK VINA RESULT:      -9.1     11.893     13.812
REMARK  6 active torsions:
REMARK  status: ('A' for Active; 'I' for Inactive)
REMARK    1  A    between atoms: C_2  and  C_3 
REMARK    2  A    between atoms: C_2  and  C_9 
REMARK    3  A    between atoms: C_9  and  C_10 
REMARK    4  A    between atoms: C_10  and  C_11 
REMARK       I    between atoms: C_11  and  N_12 
REMARK    5  A    between atoms: N_12  and  C_13 
REMARK    6  A    between atoms: C_20  and  C_21 
REMARK       I    between atoms: C_21  and  N_22 
ROOT
HETATM    1  C   UNL     1      31.387  49.635  39.138  1.00  0.00     0.035 A 
HETATM    2  C   UNL     1      30.113  50.143  38.848  1.00  0.00     0.046 A 
HETATM    3  C   UNL     1      28.976  49.360  39.124  1.00  0.00     0.030 A 
HETATM    4  C   UNL     1      29.144  48.133  39.751  1.00  0.00     0.063 A 
HETATM    5  N   UNL     1      27.884  47.621  39.886  1.00  0.00    -0.277 N 
HETATM    6  H   UNL     1      27.621  46.739  40.309  1.00  0.00     0.189 HD
HETATM    7  N   UNL     1      26.912  48.393  39.368  1.00  0.00    -0.168 NA
HETATM    8  C   UNL     1      27.574  49.473  38.896  1.00  0.00     0.156 A 
HETATM    9  C   UNL     1      30.395  47.634  40.122  1.00  0.00     0.034 A 
HETATM   10  C   UNL     1      31.516  48.411  39.796  1.00  0.00     0.032 A 
ENDROOT
BRANCH   1  11
HETATM   11  N   UNL     1      32.480  50.427  38.760  1.00  0.00    -0.327 N 
HETATM   12  C   UNL     1      33.520  50.946  39.473  1.00  0.00     0.222 C 
HETATM   13  O   UNL     1      34.266  51.747  38.900  1.00  0.00    -0.273 OA
HETATM   14  H   UNL     1      32.602  50.588  37.765  1.00  0.00     0.169 HD
BRANCH  12  15
HETATM   15  C   UNL     1      33.824  50.512  40.895  1.00  0.00     0.104 C 
BRANCH  15  16
HETATM   16  C   UNL     1      33.519  51.523  42.012  1.00  0.00     0.023 C 
BRANCH  16  17
HETATM   17  C   UNL     1      32.169  51.378  42.786  1.00  0.00    -0.020 C 
HETATM   18  C   UNL     1      32.315  51.906  44.232  1.00  0.00     0.020 C 
HETATM   19  C   UNL     1      31.885  49.856  42.938  1.00  0.00     0.020 C 
BRANCH  17  20
HETATM   20  C   UNL     1      31.007  52.013  42.003  1.00  0.00    -0.050 A 
HETATM   21  C   UNL     1      31.192  53.082  41.112  1.00  0.00     0.008 A 
HETATM   22  C   UNL     1      30.115  53.652  40.425  1.00  0.00     0.001 A 
HETATM   23  C   UNL     1      28.826  53.164  40.612  1.00  0.00     0.000 A 
HETATM   24  C   UNL     1      28.614  52.100  41.482  1.00  0.00     0.001 A 
HETATM   25  C   UNL     1      29.692  51.532  42.166  1.00  0.00     0.008 A 
ENDBRANCH  17  20
ENDBRANCH  16  17
ENDBRANCH  15  16
ENDBRANCH  12  15
ENDBRANCH   1  11
BRANCH   8  26
HETATM   26  C   UNL     1      26.873  50.570  38.214  1.00  0.00     0.270 C 
HETATM   27  N   UNL     1      25.539  50.344  38.011  1.00  0.00    -0.365 N 
HETATM   28  H   UNL     1      25.144  49.461  38.315  1.00  0.00     0.159 HD
HETATM   29  H   UNL     1      24.985  51.024  37.516  1.00  0.00     0.159 HD
HETATM   30  O   UNL     1      27.411  51.604  37.832  1.00  0.00    -0.266 OA
ENDBRANCH   8  26
TORSDOF 6
ENDMDL
MODEL 8
REMARK VINA RESULT:      -9.0      1.314      2.216
REMARK  6 active torsions:
REMARK  status: ('A' for Active; 'I' for Inactive)
REMARK    1  A    between atoms: C_2  and  C_3 
REMARK    2  A    between atoms: C_2  and  C_9 
REMARK    3  A    between atoms: C_9  and  C_10 
REMARK    4  A    between atoms: C_10  and  C_11 
REMARK       I    between atoms: C_11  and  N_12 
REMARK    5  A    between atoms: N_12  and  C_13 
REMARK    6  A    between atoms: C_20  and  C_21 
REMARK       I    between atoms: C_21  and  N_22 
ROOT
HETATM    1  C   UNL     1      25.208  46.895  50.381  1.00  0.00     0.035 A 
HETATM    2  C   UNL     1      24.181  47.620  49.762  1.00  0.00     0.046 A 
HETATM    3  C   UNL     1      24.506  48.725  48.952  1.00  0.00     0.030 A 
HETATM    4  C   UNL     1      25.843  49.021  48.728  1.00  0.00     0.063 A 
HETATM    5  N   UNL     1      25.837  50.122  47.917  1.00  0.00    -0.277 N 
HETATM    6  H   UNL     1      26.641  50.613  47.541  1.00  0.00     0.189 HD
HETATM    7  N   UNL     1      24.611  50.591  47.625  1.00  0.00    -0.168 NA
HETATM    8  C   UNL     1      23.778  49.735  48.257  1.00  0.00     0.156 A 
HETATM    9  C   UNL     1      26.889  48.271  49.270  1.00  0.00     0.034 A 
HETATM   10  C   UNL     1      26.543  47.202  50.108  1.00  0.00     0.032 A 
ENDROOT
BRANCH   1  11
HETATM   11  N   UNL     1      24.816  45.861  51.242  1.00  0.00    -0.327 N 
HETATM   12  C   UNL     1      25.158  45.566  52.529  1.00  0.00     0.222 C 
HETATM   13  O   UNL     1      24.771  44.490  52.995  1.00  0.00    -0.273 OA
HETATM   14  H   UNL     1      24.075  45.251  50.912  1.00  0.00     0.169 HD
BRANCH  12  15
HETATM   15  C   UNL     1      25.915  46.543  53.410  1.00  0.00     0.104 C 
BRANCH  15  16
HETATM   16  C   UNL     1      26.335  46.044  54.802  1.00  0.00     0.023 C 
BRANCH  16  17
HETATM   17  C   UNL     1      27.746  46.453  55.334  1.00  0.00    -0.020 C 
HETATM   18  C   UNL     1      27.637  47.043  56.759  1.00  0.00     0.020 C 
HETATM   19  C   UNL     1      28.252  47.627  54.449  1.00  0.00     0.020 C 
BRANCH  17  20
HETATM   20  C   UNL     1      28.746  45.289  55.216  1.00  0.00    -0.050 A 
HETATM   21  C   UNL     1      29.943  45.244  55.948  1.00  0.00     0.008 A 
HETATM   22  C   UNL     1      30.842  44.181  55.809  1.00  0.00     0.001 A 
HETATM   23  C   UNL     1      30.563  43.137  54.934  1.00  0.00     0.000 A 
HETATM   24  C   UNL     1      29.381  43.150  54.203  1.00  0.00     0.001 A 
HETATM   25  C   UNL     1      28.484  44.213  54.344  1.00  0.00     0.008 A 
ENDBRANCH  17  20
ENDBRANCH  16  17
ENDBRANCH  15  16
ENDBRANCH  12  15
ENDBRANCH   1  11
BRANCH   8  26
HETATM   26  C   UNL     1      22.319  49.906  48.215  1.00  0.00     0.270 C 
HETATM   27  N   UNL     1      21.653  48.893  47.583  1.00  0.00    -0.365 N 
HETATM   28  H   UNL     1      22.191  48.132  47.184  1.00  0.00     0.159 HD
HETATM   29  H   UNL     1      20.653  48.943  47.472  1.00  0.00     0.159 HD
HETATM   30  O   UNL     1      21.722  50.870  48.683  1.00  0.00    -0.266 OA
ENDBRANCH   8  26
TORSDOF 6
ENDMDL
MODEL 9
REMARK VINA RESULT:      -9.0      2.239      2.870
REMARK  6 active torsions:
REMARK  status: ('A' for Active; 'I' for Inactive)
REMARK    1  A    between atoms: C_2  and  C_3 
REMARK    2  A    between atoms: C_2  and  C_9 
REMARK    3  A    between atoms: C_9  and  C_10 
REMARK    4  A    between atoms: C_10  and  C_11 
REMARK       I    between atoms: C_11  and  N_12 
REMARK    5  A    between atoms: N_12  and  C_13 
REMARK    6  A    between atoms: C_20  and  C_21 
REMARK       I    between atoms: C_21  and  N_22 
ROOT
HETATM    1  C   UNL     1      25.189  45.512  49.308  1.00  0.00     0.035 A 
HETATM    2  C   UNL     1      23.858  45.582  48.874  1.00  0.00     0.046 A 
HETATM    3  C   UNL     1      23.143  46.786  49.026  1.00  0.00     0.030 A 
HETATM    4  C   UNL     1      23.802  47.897  49.533  1.00  0.00     0.063 A 
HETATM    5  N   UNL     1      22.865  48.892  49.557  1.00  0.00    -0.277 N 
HETATM    6  H   UNL     1      22.994  49.851  49.861  1.00  0.00     0.189 HD
HETATM    7  N   UNL     1      21.643  48.515  49.143  1.00  0.00    -0.168 NA
HETATM    8  C   UNL     1      21.801  47.215  48.809  1.00  0.00     0.156 A 
HETATM    9  C   UNL     1      25.149  47.879  49.904  1.00  0.00     0.034 A 
HETATM   10  C   UNL     1      25.829  46.658  49.786  1.00  0.00     0.032 A 
ENDROOT
BRANCH   1  11
HETATM   11  N   UNL     1      25.817  44.263  49.209  1.00  0.00    -0.327 N 
HETATM   12  C   UNL     1      26.857  43.708  49.895  1.00  0.00     0.222 C 
HETATM   13  O   UNL     1      27.306  42.633  49.486  1.00  0.00    -0.273 OA
HETATM   14  H   UNL     1      25.389  43.588  48.584  1.00  0.00     0.169 HD
BRANCH  12  15
HETATM   15  C   UNL     1      27.407  44.323  51.168  1.00  0.00     0.104 C 
BRANCH  15  16
HETATM   16  C   UNL     1      27.177  43.544  52.473  1.00  0.00     0.023 C 
BRANCH  16  17
HETATM   17  C   UNL     1      27.097  44.353  53.808  1.00  0.00    -0.020 C 
HETATM   18  C   UNL     1      25.895  43.879  54.657  1.00  0.00     0.020 C 
HETATM   19  C   UNL     1      26.773  45.828  53.436  1.00  0.00     0.020 C 
BRANCH  17  20
HETATM   20  C   UNL     1      28.440  44.325  54.558  1.00  0.00    -0.050 A 
HETATM   21  C   UNL     1      29.331  43.242  54.473  1.00  0.00     0.008 A 
HETATM   22  C   UNL     1      30.539  43.236  55.179  1.00  0.00     0.001 A 
HETATM   23  C   UNL     1      30.885  44.314  55.985  1.00  0.00     0.000 A 
HETATM   24  C   UNL     1      30.028  45.404  56.081  1.00  0.00     0.001 A 
HETATM   25  C   UNL     1      28.822  45.409  55.375  1.00  0.00     0.008 A 
ENDBRANCH  17  20
ENDBRANCH  16  17
ENDBRANCH  15  16
ENDBRANCH  12  15
ENDBRANCH   1  11
BRANCH   8  26
HETATM   26  C   UNL     1      20.678  46.401  48.323  1.00  0.00     0.270 C 
HETATM   27  N   UNL     1      20.131  45.578  49.269  1.00  0.00    -0.365 N 
HETATM   28  H   UNL     1      20.535  45.571  50.199  1.00  0.00     0.159 HD
HETATM   29  H   UNL     1      19.381  44.954  49.017  1.00  0.00     0.159 HD
HETATM   30  O   UNL     1      20.255  46.422  47.172  1.00  0.00    -0.266 OA
ENDBRANCH   8  26
TORSDOF 6
ENDMDL
MODEL 10
REMARK VINA RESULT:      -9.0      2.736      3.322
REMARK  6 active torsions:
REMARK  status: ('A' for Active; 'I' for Inactive)
REMARK    1  A    between atoms: C_2  and  C_3 
REMARK    2  A    between atoms: C_2  and  C_9 
REMARK    3  A    between atoms: C_9  and  C_10 
REMARK    4  A    between atoms: C_10  and  C_11 
REMARK       I    between atoms: C_11  and  N_12 
REMARK    5  A    between atoms: N_12  and  C_13 
REMARK    6  A    between atoms: C_20  and  C_21 
REMARK       I    between atoms: C_21  and  N_22 
ROOT
HETATM    1  C   UNL     1      25.439  46.177  51.179  1.00  0.00     0.035 A 
HETATM    2  C   UNL     1      24.191  45.977  50.573  1.00  0.00     0.046 A 
HETATM    3  C   UNL     1      24.080  45.073  49.499  1.00  0.00     0.030 A 
HETATM    4  C   UNL     1      25.199  44.346  49.117  1.00  0.00     0.063 A 
HETATM    5  N   UNL     1      24.785  43.568  48.072  1.00  0.00    -0.277 N 
HETATM    6  H   UNL     1      25.336  42.899  47.547  1.00  0.00     0.189 HD
HETATM    7  N   UNL     1      23.501  43.753  47.717  1.00  0.00    -0.168 NA
HETATM    8  C   UNL     1      23.053  44.680  48.592  1.00  0.00     0.156 A 
HETATM    9  C   UNL     1      26.438  44.468  49.751  1.00  0.00     0.034 A 
HETATM   10  C   UNL     1      26.536  45.406  50.789  1.00  0.00     0.032 A 
ENDROOT
BRANCH   1  11
HETATM   11  N   UNL     1      25.500  47.152  52.184  1.00  0.00    -0.327 N 
HETATM   12  C   UNL     1      25.781  47.072  53.516  1.00  0.00     0.222 C 
HETATM   13  O   UNL     1      25.609  48.085  54.201  1.00  0.00    -0.273 OA
HETATM   14  H   UNL     1      25.413  48.118  51.886  1.00  0.00     0.169 HD
BRANCH  12  15
HETATM   15  C   UNL     1      26.366  45.822  54.147  1.00  0.00     0.104 C 
BRANCH  15  16
HETATM   16  C   UNL     1      27.898  45.697  54.154  1.00  0.00     0.023 C 
BRANCH  16  17
HETATM   17  C   UNL     1      28.519  44.270  54.290  1.00  0.00    -0.020 C 
HETATM   18  C   UNL     1      29.045  43.776  52.922  1.00  0.00     0.020 C 
HETATM   19  C   UNL     1      27.363  43.296  54.655  1.00  0.00     0.020 C 
BRANCH  17  20
HETATM   20  C   UNL     1      29.567  44.224  55.415  1.00  0.00    -0.050 A 
HETATM   21  C   UNL     1      30.481  43.166  55.554  1.00  0.00     0.008 A 
HETATM   22  C   UNL     1      31.413  43.141  56.597  1.00  0.00     0.001 A 
HETATM   23  C   UNL     1      31.455  44.176  57.525  1.00  0.00     0.000 A 
HETATM   24  C   UNL     1      30.569  45.241  57.406  1.00  0.00     0.001 A 
HETATM   25  C   UNL     1      29.639  45.264  56.363  1.00  0.00     0.008 A 
ENDBRANCH  17  20
ENDBRANCH  16  17
ENDBRANCH  15  16
ENDBRANCH  12  15
ENDBRANCH   1  11
BRANCH   8  26
HETATM   26  C   UNL     1      21.678  45.195  48.534  1.00  0.00     0.270 C 
HETATM   27  N   UNL     1      21.582  46.494  48.118  1.00  0.00    -0.365 N 
HETATM   28  H   UNL     1      22.434  47.000  47.906  1.00  0.00     0.159 HD
HETATM   29  H   UNL     1      20.681  46.944  48.084  1.00  0.00     0.159 HD
HETATM   30  O   UNL     1      20.682  44.547  48.841  1.00  0.00    -0.266 OA
ENDBRANCH   8  26
TORSDOF 6
ENDMDL
