MODEL 1
REMARK VINA RESULT:      -9.6      0.000      0.000
REMARK  3 active torsions:
REMARK  status: ('A' for Active; 'I' for Inactive)
REMARK    1  A    between atoms: C_2  and  C_3 
REMARK    2  A    between atoms: C_9  and  N_10 
REMARK    3  A    between atoms: C_12  and  C_13 
ROOT
HETATM    1  C   UNL     1      27.189  44.161  51.440  1.00  0.00    -0.006 A 
HETATM    2  C   UNL     1      27.431  42.860  50.887  1.00  0.00     0.063 A 
HETATM    3  C   UNL     1      28.252  41.994  51.615  1.00  0.00     0.165 A 
HETATM    4  N   UNL     1      28.529  40.761  51.222  1.00  0.00    -0.222 NA
HETATM    5  C   UNL     1      28.000  40.344  50.076  1.00  0.00     0.237 A 
HETATM    6  N   UNL     1      27.224  41.064  49.270  1.00  0.00    -0.229 NA
HETATM    7  C   UNL     1      26.958  42.310  49.675  1.00  0.00     0.117 A 
HETATM    8  N   UNL     1      28.822  42.352  52.762  1.00  0.00    -0.228 NA
HETATM    9  C   UNL     1      28.631  43.585  53.277  1.00  0.00     0.070 A 
HETATM   10  C   UNL     1      27.809  44.503  52.649  1.00  0.00     0.046 A 
ENDROOT
BRANCH   9  11
HETATM   11  C   UNL     1      29.354  43.874  54.532  1.00  0.00    -0.004 A 
HETATM   12  C   UNL     1      29.038  44.992  55.329  1.00  0.00     0.053 A 
HETATM   13  C   UNL     1      29.766  45.217  56.482  1.00  0.00     0.106 A 
HETATM   14  C   UNL     1      30.784  44.384  56.874  1.00  0.00     0.105 A 
HETATM   15  O   UNL     1      29.584  46.256  57.341  1.00  0.00    -0.323 OA
HETATM   16  O   UNL     1      31.371  44.790  58.031  1.00  0.00    -0.323 OA
HETATM   17  C   UNL     1      31.136  43.280  56.135  1.00  0.00     0.040 A 
HETATM   18  C   UNL     1      30.618  45.988  58.312  1.00  0.00     0.352 A 
HETATM   19  C   UNL     1      30.417  43.032  54.958  1.00  0.00     0.017 A 
ENDBRANCH   9  11
BRANCH   1  20
HETATM   20  C   UNL     1      26.313  45.172  50.825  1.00  0.00    -0.025 A 
HETATM   21  C   UNL     1      24.918  45.106  50.974  1.00  0.00     0.014 A 
HETATM   22  C   UNL     1      24.089  46.078  50.406  1.00  0.00     0.024 A 
HETATM   23  C   UNL     1      24.651  47.135  49.695  1.00  0.00     0.034 A 
HETATM   24  C   UNL     1      26.033  47.227  49.545  1.00  0.00     0.024 A 
HETATM   25 CL   UNL     1      23.633  48.334  48.997  1.00  0.00    -0.084 Cl
HETATM   26  C   UNL     1      26.858  46.251  50.109  1.00  0.00     0.014 A 
ENDBRANCH   1  20
BRANCH   7  27
HETATM   27  N   UNL     1      26.134  43.001  48.788  1.00  0.00    -0.286 NA
HETATM   28  H   UNL     1      26.705  43.295  48.000  1.00  0.00     0.125 HD
HETATM   29  H   UNL     1      25.663  43.785  49.225  1.00  0.00     0.125 HD
ENDBRANCH   7  27
TORSDOF 3
ENDMDL
MODEL 2
REMARK VINA RESULT:      -9.6      4.262      7.301
REMARK  3 active torsions:
REMARK  status: ('A' for Active; 'I' for Inactive)
REMARK    1  A    between atoms: C_2  and  C_3 
REMARK    2  A    between atoms: C_9  and  N_10 
REMARK    3  A    between atoms: C_12  and  C_13 
ROOT
HETATM    1  C   UNL     1      27.232  43.806  51.666  1.00  0.00    -0.006 A 
HETATM    2  C   UNL     1      26.603  42.725  50.963  1.00  0.00     0.063 A 
HETATM    3  C   UNL     1      25.757  43.056  49.899  1.00  0.00     0.165 A 
HETATM    4  N   UNL     1      25.141  42.148  49.159  1.00  0.00    -0.222 NA
HETATM    5  C   UNL     1      25.339  40.868  49.457  1.00  0.00     0.237 A 
HETATM    6  N   UNL     1      26.094  40.410  50.451  1.00  0.00    -0.229 NA
HETATM    7  C   UNL     1      26.706  41.337  51.196  1.00  0.00     0.117 A 
HETATM    8  N   UNL     1      25.507  44.316  49.557  1.00  0.00    -0.228 NA
HETATM    9  C   UNL     1      26.064  45.344  50.232  1.00  0.00     0.070 A 
HETATM   10  C   UNL     1      26.940  45.120  51.277  1.00  0.00     0.046 A 
ENDROOT
BRANCH   9  11
HETATM   11  C   UNL     1      25.670  46.694  49.781  1.00  0.00    -0.004 A 
HETATM   12  C   UNL     1      24.319  47.050  49.598  1.00  0.00     0.053 A 
HETATM   13  C   UNL     1      24.018  48.323  49.155  1.00  0.00     0.106 A 
HETATM   14  C   UNL     1      24.994  49.251  48.889  1.00  0.00     0.105 A 
HETATM   15  O   UNL     1      22.767  48.804  48.923  1.00  0.00    -0.323 OA
HETATM   16  O   UNL     1      24.483  50.435  48.460  1.00  0.00    -0.323 OA
HETATM   17  C   UNL     1      26.328  48.958  49.049  1.00  0.00     0.040 A 
HETATM   18  C   UNL     1      23.071  50.139  48.465  1.00  0.00     0.352 A 
HETATM   19  C   UNL     1      26.660  47.671  49.492  1.00  0.00     0.017 A 
ENDBRANCH   9  11
BRANCH   1  20
HETATM   20  C   UNL     1      28.183  43.629  52.775  1.00  0.00    -0.025 A 
HETATM   21  C   UNL     1      29.481  43.143  52.543  1.00  0.00     0.014 A 
HETATM   22  C   UNL     1      30.390  42.995  53.595  1.00  0.00     0.024 A 
HETATM   23  C   UNL     1      30.013  43.345  54.888  1.00  0.00     0.034 A 
HETATM   24  C   UNL     1      28.735  43.840  55.140  1.00  0.00     0.024 A 
HETATM   25 CL   UNL     1      31.130  43.165  56.184  1.00  0.00    -0.084 Cl
HETATM   26  C   UNL     1      27.826  43.981  54.088  1.00  0.00     0.014 A 
ENDBRANCH   1  20
BRANCH   7  27
HETATM   27  N   UNL     1      27.485  40.785  52.212  1.00  0.00    -0.286 NA
HETATM   28  H   UNL     1      26.866  40.268  52.831  1.00  0.00     0.125 HD
HETATM   29  H   UNL     1      28.023  41.482  52.713  1.00  0.00     0.125 HD
ENDBRANCH   7  27
TORSDOF 3
ENDMDL
MODEL 3
REMARK VINA RESULT:      -9.3      2.707      4.578
REMARK  3 active torsions:
REMARK  status: ('A' for Active; 'I' for Inactive)
REMARK    1  A    between atoms: C_2  and  C_3 
REMARK    2  A    between atoms: C_9  and  N_10 
REMARK    3  A    between atoms: C_12  and  C_13 
ROOT
HETATM    1  C   UNL     1      27.274  42.532  50.744  1.00  0.00    -0.006 A 
HETATM    2  C   UNL     1      26.439  43.639  50.378  1.00  0.00     0.063 A 
HETATM    3  C   UNL     1      26.515  44.791  51.168  1.00  0.00     0.165 A 
HETATM    4  N   UNL     1      25.814  45.885  50.918  1.00  0.00    -0.222 NA
HETATM    5  C   UNL     1      24.999  45.872  49.868  1.00  0.00     0.237 A 
HETATM    6  N   UNL     1      24.808  44.843  49.046  1.00  0.00    -0.229 NA
HETATM    7  C   UNL     1      25.516  43.741  49.314  1.00  0.00     0.117 A 
HETATM    8  N   UNL     1      27.300  44.867  52.239  1.00  0.00    -0.228 NA
HETATM    9  C   UNL     1      28.065  43.820  52.615  1.00  0.00     0.070 A 
HETATM   10  C   UNL     1      28.085  42.649  51.880  1.00  0.00     0.046 A 
ENDROOT
BRANCH   9  11
HETATM   11  C   UNL     1      28.858  44.016  53.845  1.00  0.00    -0.004 A 
HETATM   12  C   UNL     1      28.597  45.079  54.734  1.00  0.00     0.053 A 
HETATM   13  C   UNL     1      29.388  45.219  55.858  1.00  0.00     0.106 A 
HETATM   14  C   UNL     1      30.418  44.355  56.136  1.00  0.00     0.105 A 
HETATM   15  O   UNL     1      29.263  46.197  56.795  1.00  0.00    -0.323 OA
HETATM   16  O   UNL     1      31.070  44.677  57.284  1.00  0.00    -0.323 OA
HETATM   17  C   UNL     1      30.718  43.303  55.304  1.00  0.00     0.040 A 
HETATM   18  C   UNL     1      30.345  45.857  57.687  1.00  0.00     0.352 A 
HETATM   19  C   UNL     1      29.934  43.141  54.154  1.00  0.00     0.017 A 
ENDBRANCH   9  11
BRANCH   1  20
HETATM   20  C   UNL     1      27.348  41.268  49.993  1.00  0.00    -0.025 A 
HETATM   21  C   UNL     1      28.249  41.114  48.926  1.00  0.00     0.014 A 
HETATM   22  C   UNL     1      28.332  39.906  48.227  1.00  0.00     0.024 A 
HETATM   23  C   UNL     1      27.523  38.836  48.598  1.00  0.00     0.034 A 
HETATM   24  C   UNL     1      26.631  38.962  49.660  1.00  0.00     0.024 A 
HETATM   25 CL   UNL     1      27.625  37.348  47.741  1.00  0.00    -0.084 Cl
HETATM   26  C   UNL     1      26.546  40.173  50.354  1.00  0.00     0.014 A 
ENDBRANCH   1  20
BRANCH   7  27
HETATM   27  N   UNL     1      25.272  42.709  48.409  1.00  0.00    -0.286 NA
HETATM   28  H   UNL     1      24.971  43.130  47.534  1.00  0.00     0.125 HD
HETATM   29  H   UNL     1      24.596  42.038  48.756  1.00  0.00     0.125 HD
ENDBRANCH   7  27
TORSDOF 3
ENDMDL
MODEL 4
REMARK VINA RESULT:      -9.2      1.428      2.254
REMARK  3 active torsions:
REMARK  status: ('A' for Active; 'I' for Inactive)
REMARK    1  A    between atoms: C_2  and  C_3 
REMARK    2  A    between atoms: C_9  and  N_10 
REMARK    3  A    between atoms: C_12  and  C_13 
ROOT
HETATM    1  C   UNL     1      26.364  45.526  51.224  1.00  0.00    -0.006 A 
HETATM    2  C   UNL     1      26.183  44.165  50.807  1.00  0.00     0.063 A 
HETATM    3  C   UNL     1      26.714  43.166  51.628  1.00  0.00     0.165 A 
HETATM    4  N   UNL     1      26.590  41.874  51.364  1.00  0.00    -0.222 NA
HETATM    5  C   UNL     1      25.934  41.528  50.262  1.00  0.00     0.237 A 
HETATM    6  N   UNL     1      25.400  42.368  49.380  1.00  0.00    -0.229 NA
HETATM    7  C   UNL     1      25.538  43.670  49.653  1.00  0.00     0.117 A 
HETATM    8  N   UNL     1      27.391  43.444  52.738  1.00  0.00    -0.228 NA
HETATM    9  C   UNL     1      27.599  44.720  53.124  1.00  0.00     0.070 A 
HETATM   10  C   UNL     1      27.085  45.779  52.398  1.00  0.00     0.046 A 
ENDROOT
BRANCH   9  11
HETATM   11  C   UNL     1      28.403  44.896  54.350  1.00  0.00    -0.004 A 
HETATM   12  C   UNL     1      29.458  44.020  54.677  1.00  0.00     0.053 A 
HETATM   13  C   UNL     1      30.159  44.227  55.849  1.00  0.00     0.106 A 
HETATM   14  C   UNL     1      29.860  45.258  56.704  1.00  0.00     0.105 A 
HETATM   15  O   UNL     1      31.189  43.461  56.299  1.00  0.00    -0.323 OA
HETATM   16  O   UNL     1      30.666  45.276  57.798  1.00  0.00    -0.323 OA
HETATM   17  C   UNL     1      28.841  46.141  56.437  1.00  0.00     0.040 A 
HETATM   18  C   UNL     1      31.493  44.123  57.545  1.00  0.00     0.352 A 
HETATM   19  C   UNL     1      28.111  45.951  55.256  1.00  0.00     0.017 A 
ENDBRANCH   9  11
BRANCH   1  20
HETATM   20  C   UNL     1      25.828  46.691  50.501  1.00  0.00    -0.025 A 
HETATM   21  C   UNL     1      26.673  47.534  49.761  1.00  0.00     0.014 A 
HETATM   22  C   UNL     1      26.159  48.628  49.058  1.00  0.00     0.024 A 
HETATM   23  C   UNL     1      24.791  48.880  49.078  1.00  0.00     0.034 A 
HETATM   24  C   UNL     1      23.932  48.050  49.795  1.00  0.00     0.024 A 
HETATM   25 CL   UNL     1      24.156  50.224  48.212  1.00  0.00    -0.084 Cl
HETATM   26  C   UNL     1      24.449  46.961  50.501  1.00  0.00     0.014 A 
ENDBRANCH   1  20
BRANCH   7  27
HETATM   27  N   UNL     1      24.947  44.489  48.693  1.00  0.00    -0.286 NA
HETATM   28  H   UNL     1      25.666  45.110  48.331  1.00  0.00     0.125 HD
HETATM   29  H   UNL     1      24.152  45.004  49.055  1.00  0.00     0.125 HD
ENDBRANCH   7  27
TORSDOF 3
ENDMDL
MODEL 5
REMARK VINA RESULT:      -8.8      1.723      1.975
REMARK  3 active torsions:
REMARK  status: ('A' for Active; 'I' for Inactive)
REMARK    1  A    between atoms: C_2  and  C_3 
REMARK    2  A    between atoms: C_9  and  N_10 
REMARK    3  A    between atoms: C_12  and  C_13 
ROOT
HETATM    1  C   UNL     1      26.380  42.579  50.838  1.00  0.00    -0.006 A 
HETATM    2  C   UNL     1      26.958  41.357  50.359  1.00  0.00     0.063 A 
HETATM    3  C   UNL     1      28.064  40.853  51.051  1.00  0.00     0.165 A 
HETATM    4  N   UNL     1      28.668  39.722  50.721  1.00  0.00    -0.222 NA
HETATM    5  C   UNL     1      28.195  39.050  49.677  1.00  0.00     0.237 A 
HETATM    6  N   UNL     1      27.169  39.419  48.914  1.00  0.00    -0.229 NA
HETATM    7  C   UNL     1      26.572  40.567  49.253  1.00  0.00     0.117 A 
HETATM    8  N   UNL     1      28.594  41.482  52.095  1.00  0.00    -0.228 NA
HETATM    9  C   UNL     1      28.083  42.651  52.536  1.00  0.00     0.070 A 
HETATM   10  C   UNL     1      26.969  43.213  51.939  1.00  0.00     0.046 A 
ENDROOT
BRANCH   9  11
HETATM   11  C   UNL     1      28.790  43.270  53.675  1.00  0.00    -0.004 A 
HETATM   12  C   UNL     1      28.231  44.343  54.399  1.00  0.00     0.053 A 
HETATM   13  C   UNL     1      28.952  44.891  55.443  1.00  0.00     0.106 A 
HETATM   14  C   UNL     1      30.194  44.422  55.795  1.00  0.00     0.105 A 
HETATM   15  O   UNL     1      28.550  45.932  56.220  1.00  0.00    -0.323 OA
HETATM   16  O   UNL     1      30.729  45.105  56.841  1.00  0.00    -0.323 OA
HETATM   17  C   UNL     1      30.787  43.380  55.123  1.00  0.00     0.040 A 
HETATM   18  C   UNL     1      29.690  46.073  57.094  1.00  0.00     0.352 A 
HETATM   19  C   UNL     1      30.078  42.809  54.057  1.00  0.00     0.017 A 
ENDBRANCH   9  11
BRANCH   1  20
HETATM   20  C   UNL     1      25.189  43.215  50.254  1.00  0.00    -0.025 A 
HETATM   21  C   UNL     1      23.897  42.816  50.634  1.00  0.00     0.014 A 
HETATM   22  C   UNL     1      22.766  43.436  50.092  1.00  0.00     0.024 A 
HETATM   23  C   UNL     1      22.919  44.472  49.175  1.00  0.00     0.034 A 
HETATM   24  C   UNL     1      24.191  44.893  48.794  1.00  0.00     0.024 A 
HETATM   25 CL   UNL     1      21.530  45.238  48.510  1.00  0.00    -0.084 Cl
HETATM   26  C   UNL     1      25.319  44.268  49.331  1.00  0.00     0.014 A 
ENDBRANCH   1  20
BRANCH   7  27
HETATM   27  N   UNL     1      25.503  40.887  48.417  1.00  0.00    -0.286 NA
HETATM   28  H   UNL     1      25.845  40.875  47.460  1.00  0.00     0.125 HD
HETATM   29  H   UNL     1      25.076  41.775  48.654  1.00  0.00     0.125 HD
ENDBRANCH   7  27
TORSDOF 3
ENDMDL
MODEL 6
REMARK VINA RESULT:      -8.8      3.748      6.368
REMARK  3 active torsions:
REMARK  status: ('A' for Active; 'I' for Inactive)
REMARK    1  A    between atoms: C_2  and  C_3 
REMARK    2  A    between atoms: C_9  and  N_10 
REMARK    3  A    between atoms: C_12  and  C_13 
ROOT
HETATM    1  C   UNL     1      26.219  45.491  50.900  1.00  0.00    -0.006 A 
HETATM    2  C   UNL     1      26.444  45.388  52.313  1.00  0.00     0.063 A 
HETATM    3  C   UNL     1      26.992  44.193  52.791  1.00  0.00     0.165 A 
HETATM    4  N   UNL     1      27.269  43.987  54.069  1.00  0.00    -0.222 NA
HETATM    5  C   UNL     1      27.003  44.967  54.926  1.00  0.00     0.237 A 
HETATM    6  N   UNL     1      26.462  46.143  54.617  1.00  0.00    -0.229 NA
HETATM    7  C   UNL     1      26.180  46.336  53.325  1.00  0.00     0.117 A 
HETATM    8  N   UNL     1      27.269  43.169  51.990  1.00  0.00    -0.228 NA
HETATM    9  C   UNL     1      27.030  43.239  50.663  1.00  0.00     0.070 A 
HETATM   10  C   UNL     1      26.522  44.389  50.089  1.00  0.00     0.046 A 
ENDROOT
BRANCH   9  11
HETATM   11  C   UNL     1      27.341  42.019  49.891  1.00  0.00    -0.004 A 
HETATM   12  C   UNL     1      28.104  40.969  50.440  1.00  0.00     0.053 A 
HETATM   13  C   UNL     1      28.377  39.862  49.659  1.00  0.00     0.106 A 
HETATM   14  C   UNL     1      27.928  39.756  48.366  1.00  0.00     0.105 A 
HETATM   15  O   UNL     1      29.106  38.782  50.046  1.00  0.00    -0.323 OA
HETATM   16  O   UNL     1      28.313  38.593  47.776  1.00  0.00    -0.323 OA
HETATM   17  C   UNL     1      27.182  40.750  47.779  1.00  0.00     0.040 A 
HETATM   18  C   UNL     1      29.076  37.989  48.841  1.00  0.00     0.352 A 
HETATM   19  C   UNL     1      26.895  41.886  48.549  1.00  0.00     0.017 A 
ENDBRANCH   9  11
BRANCH   1  20
HETATM   20  C   UNL     1      25.695  46.693  50.232  1.00  0.00    -0.025 A 
HETATM   21  C   UNL     1      26.561  47.696  49.766  1.00  0.00     0.014 A 
HETATM   22  C   UNL     1      26.062  48.828  49.114  1.00  0.00     0.024 A 
HETATM   23  C   UNL     1      24.692  48.960  48.909  1.00  0.00     0.034 A 
HETATM   24  C   UNL     1      23.816  47.972  49.351  1.00  0.00     0.024 A 
HETATM   25 CL   UNL     1      24.077  50.350  48.104  1.00  0.00    -0.084 Cl
HETATM   26  C   UNL     1      24.316  46.844  50.008  1.00  0.00     0.014 A 
ENDBRANCH   1  20
BRANCH   7  27
HETATM   27  N   UNL     1      25.625  47.590  53.075  1.00  0.00    -0.286 NA
HETATM   28  H   UNL     1      24.661  47.572  53.399  1.00  0.00     0.125 HD
HETATM   29  H   UNL     1      25.689  47.858  52.100  1.00  0.00     0.125 HD
ENDBRANCH   7  27
TORSDOF 3
ENDMDL
MODEL 7
REMARK VINA RESULT:      -8.4      1.945      2.435
REMARK  3 active torsions:
REMARK  status: ('A' for Active; 'I' for Inactive)
REMARK    1  A    between atoms: C_2  and  C_3 
REMARK    2  A    between atoms: C_9  and  N_10 
REMARK    3  A    between atoms: C_12  and  C_13 
ROOT
HETATM    1  C   UNL     1      26.155  42.544  50.524  1.00  0.00    -0.006 A 
HETATM    2  C   UNL     1      26.767  41.356  50.001  1.00  0.00     0.063 A 
HETATM    3  C   UNL     1      27.898  40.871  50.663  1.00  0.00     0.165 A 
HETATM    4  N   UNL     1      28.535  39.771  50.292  1.00  0.00    -0.222 NA
HETATM    5  C   UNL     1      28.070  39.114  49.235  1.00  0.00     0.237 A 
HETATM    6  N   UNL     1      27.022  39.471  48.497  1.00  0.00    -0.229 NA
HETATM    7  C   UNL     1      26.392  40.587  48.878  1.00  0.00     0.117 A 
HETATM    8  N   UNL     1      28.422  41.487  51.718  1.00  0.00    -0.228 NA
HETATM    9  C   UNL     1      27.878  42.624  52.200  1.00  0.00     0.070 A 
HETATM   10  C   UNL     1      26.738  43.166  51.636  1.00  0.00     0.046 A 
ENDROOT
BRANCH   9  11
HETATM   11  C   UNL     1      28.580  43.234  53.348  1.00  0.00    -0.004 A 
HETATM   12  C   UNL     1      27.987  44.250  54.125  1.00  0.00     0.053 A 
HETATM   13  C   UNL     1      28.704  44.792  55.174  1.00  0.00     0.106 A 
HETATM   14  C   UNL     1      29.974  44.372  55.482  1.00  0.00     0.105 A 
HETATM   15  O   UNL     1      28.270  45.782  56.000  1.00  0.00    -0.323 OA
HETATM   16  O   UNL     1      30.499  45.040  56.542  1.00  0.00    -0.323 OA
HETATM   17  C   UNL     1      30.601  43.386  54.757  1.00  0.00     0.040 A 
HETATM   18  C   UNL     1      29.421  45.946  56.854  1.00  0.00     0.352 A 
HETATM   19  C   UNL     1      29.897  42.822  53.685  1.00  0.00     0.017 A 
ENDBRANCH   9  11
BRANCH   1  20
HETATM   20  C   UNL     1      24.934  43.156  49.974  1.00  0.00    -0.025 A 
HETATM   21  C   UNL     1      24.989  43.982  48.839  1.00  0.00     0.014 A 
HETATM   22  C   UNL     1      23.825  44.546  48.307  1.00  0.00     0.024 A 
HETATM   23  C   UNL     1      22.594  44.278  48.898  1.00  0.00     0.034 A 
HETATM   24  C   UNL     1      22.515  43.453  50.017  1.00  0.00     0.024 A 
HETATM   25 CL   UNL     1      21.162  44.970  48.243  1.00  0.00    -0.084 Cl
HETATM   26  C   UNL     1      23.680  42.895  50.551  1.00  0.00     0.014 A 
ENDBRANCH   1  20
BRANCH   7  27
HETATM   27  N   UNL     1      25.301  40.894  48.066  1.00  0.00    -0.286 NA
HETATM   28  H   UNL     1      24.848  41.717  48.455  1.00  0.00     0.125 HD
HETATM   29  H   UNL     1      24.656  40.118  47.970  1.00  0.00     0.125 HD
ENDBRANCH   7  27
TORSDOF 3
ENDMDL
MODEL 8
REMARK VINA RESULT:      -8.2      4.300      7.563
REMARK  3 active torsions:
REMARK  status: ('A' for Active; 'I' for Inactive)
REMARK    1  A    between atoms: C_2  and  C_3 
REMARK    2  A    between atoms: C_9  and  N_10 
REMARK    3  A    between atoms: C_12  and  C_13 
ROOT
HETATM    1  C   UNL     1      26.934  41.898  50.394  1.00  0.00    -0.006 A 
HETATM    2  C   UNL     1      27.470  42.171  51.696  1.00  0.00     0.063 A 
HETATM    3  C   UNL     1      27.051  43.344  52.331  1.00  0.00     0.165 A 
HETATM    4  N   UNL     1      27.455  43.693  53.543  1.00  0.00    -0.222 NA
HETATM    5  C   UNL     1      28.303  42.883  54.169  1.00  0.00     0.237 A 
HETATM    6  N   UNL     1      28.802  41.751  53.679  1.00  0.00    -0.229 NA
HETATM    7  C   UNL     1      28.392  41.414  52.452  1.00  0.00     0.117 A 
HETATM    8  N   UNL     1      26.215  44.203  51.756  1.00  0.00    -0.228 NA
HETATM    9  C   UNL     1      25.730  43.977  50.517  1.00  0.00     0.070 A 
HETATM   10  C   UNL     1      26.057  42.828  49.821  1.00  0.00     0.046 A 
ENDROOT
BRANCH   9  11
HETATM   11  C   UNL     1      24.846  45.028  49.974  1.00  0.00    -0.004 A 
HETATM   12  C   UNL     1      24.974  46.377  50.361  1.00  0.00     0.053 A 
HETATM   13  C   UNL     1      24.102  47.309  49.831  1.00  0.00     0.106 A 
HETATM   14  C   UNL     1      23.118  46.961  48.940  1.00  0.00     0.105 A 
HETATM   15  O   UNL     1      24.097  48.638  50.119  1.00  0.00    -0.323 OA
HETATM   16  O   UNL     1      22.370  48.027  48.549  1.00  0.00    -0.323 OA
HETATM   17  C   UNL     1      22.947  45.661  48.529  1.00  0.00     0.040 A 
HETATM   18  C   UNL     1      22.984  49.084  49.315  1.00  0.00     0.352 A 
HETATM   19  C   UNL     1      23.815  44.694  49.055  1.00  0.00     0.017 A 
ENDBRANCH   9  11
BRANCH   1  20
HETATM   20  C   UNL     1      27.234  40.687  49.613  1.00  0.00    -0.025 A 
HETATM   21  C   UNL     1      26.529  39.493  49.831  1.00  0.00     0.014 A 
HETATM   22  C   UNL     1      26.802  38.350  49.074  1.00  0.00     0.024 A 
HETATM   23  C   UNL     1      27.775  38.396  48.081  1.00  0.00     0.034 A 
HETATM   24  C   UNL     1      28.479  39.573  47.838  1.00  0.00     0.024 A 
HETATM   25 CL   UNL     1      28.112  36.991  47.146  1.00  0.00    -0.084 Cl
HETATM   26  C   UNL     1      28.209  40.713  48.600  1.00  0.00     0.014 A 
ENDBRANCH   1  20
BRANCH   7  27
HETATM   27  N   UNL     1      28.948  40.215  52.008  1.00  0.00    -0.286 NA
HETATM   28  H   UNL     1      28.183  39.592  51.763  1.00  0.00     0.125 HD
HETATM   29  H   UNL     1      29.571  39.798  52.690  1.00  0.00     0.125 HD
ENDBRANCH   7  27
TORSDOF 3
ENDMDL
MODEL 9
REMARK VINA RESULT:      -7.9      6.039      9.907
REMARK  3 active torsions:
REMARK  status: ('A' for Active; 'I' for Inactive)
REMARK    1  A    between atoms: C_2  and  C_3 
REMARK    2  A    between atoms: C_9  and  N_10 
REMARK    3  A    between atoms: C_12  and  C_13 
ROOT
HETATM    1  C   UNL     1      24.770  47.055  49.717  1.00  0.00    -0.006 A 
HETATM    2  C   UNL     1      25.174  48.259  49.051  1.00  0.00     0.063 A 
HETATM    3  C   UNL     1      24.199  48.951  48.325  1.00  0.00     0.165 A 
HETATM    4  N   UNL     1      24.442  50.086  47.689  1.00  0.00    -0.222 NA
HETATM    5  C   UNL     1      25.676  50.575  47.747  1.00  0.00     0.237 A 
HETATM    6  N   UNL     1      26.706  50.015  48.377  1.00  0.00    -0.229 NA
HETATM    7  C   UNL     1      26.449  48.865  49.009  1.00  0.00     0.117 A 
HETATM    8  N   UNL     1      22.949  48.510  48.217  1.00  0.00    -0.228 NA
HETATM    9  C   UNL     1      22.564  47.360  48.809  1.00  0.00     0.070 A 
HETATM   10  C   UNL     1      23.446  46.622  49.577  1.00  0.00     0.046 A 
ENDROOT
BRANCH   9  11
HETATM   11  C   UNL     1      21.162  46.958  48.577  1.00  0.00    -0.004 A 
HETATM   12  C   UNL     1      20.089  47.842  48.811  1.00  0.00     0.053 A 
HETATM   13  C   UNL     1      18.799  47.399  48.592  1.00  0.00     0.106 A 
HETATM   14  C   UNL     1      18.531  46.126  48.154  1.00  0.00     0.105 A 
HETATM   15  O   UNL     1      17.669  48.130  48.784  1.00  0.00    -0.323 OA
HETATM   16  O   UNL     1      17.199  45.895  48.010  1.00  0.00    -0.323 OA
HETATM   17  C   UNL     1      19.538  45.222  47.911  1.00  0.00     0.040 A 
HETATM   18  C   UNL     1      16.657  47.164  48.430  1.00  0.00     0.352 A 
HETATM   19  C   UNL     1      20.856  45.645  48.129  1.00  0.00     0.017 A 
ENDBRANCH   9  11
BRANCH   1  20
HETATM   20  C   UNL     1      25.660  46.237  50.558  1.00  0.00    -0.025 A 
HETATM   21  C   UNL     1      25.710  46.422  51.949  1.00  0.00     0.014 A 
HETATM   22  C   UNL     1      26.540  45.630  52.748  1.00  0.00     0.024 A 
HETATM   23  C   UNL     1      27.318  44.636  52.163  1.00  0.00     0.034 A 
HETATM   24  C   UNL     1      27.275  44.426  50.787  1.00  0.00     0.024 A 
HETATM   25 CL   UNL     1      28.338  43.658  53.145  1.00  0.00    -0.084 Cl
HETATM   26  C   UNL     1      26.449  45.223  49.990  1.00  0.00     0.014 A 
ENDBRANCH   1  20
BRANCH   7  27
HETATM   27  N   UNL     1      27.569  48.341  49.653  1.00  0.00    -0.286 NA
HETATM   28  H   UNL     1      27.435  47.337  49.739  1.00  0.00     0.125 HD
HETATM   29  H   UNL     1      27.742  48.777  50.551  1.00  0.00     0.125 HD
ENDBRANCH   7  27
TORSDOF 3
ENDMDL
MODEL 10
REMARK VINA RESULT:      -7.9     13.029     15.116
REMARK  3 active torsions:
REMARK  status: ('A' for Active; 'I' for Inactive)
REMARK    1  A    between atoms: C_2  and  C_3 
REMARK    2  A    between atoms: C_9  and  N_10 
REMARK    3  A    between atoms: C_12  and  C_13 
ROOT
HETATM    1  C   UNL     1      30.592  50.084  40.647  1.00  0.00    -0.006 A 
HETATM    2  C   UNL     1      29.817  50.938  39.794  1.00  0.00     0.063 A 
HETATM    3  C   UNL     1      28.781  50.348  39.063  1.00  0.00     0.165 A 
HETATM    4  N   UNL     1      27.981  51.035  38.262  1.00  0.00    -0.222 NA
HETATM    5  C   UNL     1      28.189  52.343  38.154  1.00  0.00     0.237 A 
HETATM    6  N   UNL     1      29.147  53.031  38.768  1.00  0.00    -0.229 NA
HETATM    7  C   UNL     1      29.953  52.325  39.568  1.00  0.00     0.117 A 
HETATM    8  N   UNL     1      28.527  49.044  39.117  1.00  0.00    -0.228 NA
HETATM    9  C   UNL     1      29.270  48.223  39.888  1.00  0.00     0.070 A 
HETATM   10  C   UNL     1      30.296  48.715  40.674  1.00  0.00     0.046 A 
ENDROOT
BRANCH   9  11
HETATM   11  C   UNL     1      28.915  46.790  39.826  1.00  0.00    -0.004 A 
HETATM   12  C   UNL     1      29.616  45.888  39.001  1.00  0.00     0.053 A 
HETATM   13  C   UNL     1      29.222  44.564  38.973  1.00  0.00     0.106 A 
HETATM   14  C   UNL     1      28.169  44.102  39.723  1.00  0.00     0.105 A 
HETATM   15  O   UNL     1      29.792  43.585  38.221  1.00  0.00    -0.323 OA
HETATM   16  O   UNL     1      27.946  42.774  39.543  1.00  0.00    -0.323 OA
HETATM   17  C   UNL     1      27.449  44.938  40.544  1.00  0.00     0.040 A 
HETATM   18  C   UNL     1      28.966  42.456  38.574  1.00  0.00     0.352 A 
HETATM   19  C   UNL     1      27.826  46.287  40.587  1.00  0.00     0.017 A 
ENDBRANCH   9  11
BRANCH   1  20
HETATM   20  C   UNL     1      31.683  50.553  41.516  1.00  0.00    -0.025 A 
HETATM   21  C   UNL     1      33.011  50.575  41.059  1.00  0.00     0.014 A 
HETATM   22  C   UNL     1      34.044  51.040  41.879  1.00  0.00     0.024 A 
HETATM   23  C   UNL     1      33.755  51.500  43.160  1.00  0.00     0.034 A 
HETATM   24  C   UNL     1      32.443  51.499  43.630  1.00  0.00     0.024 A 
HETATM   25 CL   UNL     1      35.023  52.075  44.170  1.00  0.00    -0.084 Cl
HETATM   26  C   UNL     1      31.414  51.028  42.810  1.00  0.00     0.014 A 
ENDBRANCH   1  20
BRANCH   7  27
HETATM   27  N   UNL     1      30.926  53.111  40.184  1.00  0.00    -0.286 NA
HETATM   28  H   UNL     1      31.516  52.495  40.738  1.00  0.00     0.125 HD
HETATM   29  H   UNL     1      30.528  53.856  40.744  1.00  0.00     0.125 HD
ENDBRANCH   7  27
TORSDOF 3
ENDMDL
