MODEL 1
REMARK VINA RESULT:      -8.1      0.000      0.000
REMARK  6 active torsions:
REMARK  status: ('A' for Active; 'I' for Inactive)
REMARK    1  A    between atoms: C_2  and  N_3 
REMARK    2  A    between atoms: C_2  and  C_18 
REMARK    3  A    between atoms: N_3  and  C_6 
REMARK    4  A    between atoms: C_6  and  C_7 
REMARK    5  A    between atoms: C_10  and  N_11 
REMARK       I    between atoms: N_11  and  C_12 
REMARK    6  A    between atoms: C_12  and  O_13 
ROOT
HETATM    1  N   UNL     1      28.776  43.422  51.935  1.00  0.00    -0.061 N 
HETATM    2  H   UNL     1      28.518  44.339  52.314  1.00  0.00     0.278 HD
HETATM    3  H   UNL     1      29.481  43.585  51.201  1.00  0.00     0.278 HD
ENDROOT
BRANCH   1   4
HETATM    4  C   UNL     1      29.447  42.560  52.979  1.00  0.00     0.241 C 
HETATM    5  C   UNL     1      28.500  41.403  53.285  1.00  0.00     0.047 C 
BRANCH   4   6
HETATM    6  C   UNL     1      29.735  43.362  54.222  1.00  0.00     0.106 A 
HETATM    7  S   UNL     1      28.806  44.740  54.625  1.00  0.00    -0.070 SA
HETATM    8  C   UNL     1      29.715  44.924  56.077  1.00  0.00     0.035 A 
HETATM    9  C   UNL     1      30.671  43.907  56.149  1.00  0.00     0.075 A 
HETATM   10  C   UNL     1      29.587  45.895  57.082  1.00  0.00     0.021 A 
HETATM   11  N   UNL     1      30.669  43.014  55.083  1.00  0.00    -0.243 NA
HETATM   12  C   UNL     1      31.529  43.860  57.265  1.00  0.00     0.033 A 
HETATM   13  C   UNL     1      31.408  44.822  58.273  1.00  0.00     0.002 A 
HETATM   14  C   UNL     1      30.449  45.826  58.180  1.00  0.00     0.002 A 
ENDBRANCH   4   6
ENDBRANCH   1   4
BRANCH   1  15
HETATM   15  C   UNL     1      27.587  42.811  51.272  1.00  0.00     0.271 C 
BRANCH  15  16
HETATM   16  C   UNL     1      26.565  43.856  50.922  1.00  0.00    -0.033 A 
HETATM   17  C   UNL     1      26.062  44.724  51.902  1.00  0.00     0.011 A 
HETATM   18  C   UNL     1      25.089  45.680  51.582  1.00  0.00     0.030 A 
HETATM   19  C   UNL     1      24.606  45.798  50.278  1.00  0.00     0.036 A 
HETATM   20  C   UNL     1      25.132  44.949  49.297  1.00  0.00     0.030 A 
HETATM   21  C   UNL     1      26.094  43.984  49.612  1.00  0.00     0.011 A 
BRANCH  19  22
HETATM   22  N   UNL     1      23.637  46.723  49.859  1.00  0.00    -0.303 N 
HETATM   23  C   UNL     1      23.713  48.047  49.513  1.00  0.00     0.364 C 
HETATM   24  O   UNL     1      22.706  48.640  49.138  1.00  0.00    -0.238 OA
HETATM   25  H   UNL     1      22.679  46.401  49.801  1.00  0.00     0.171 HD
BRANCH  23  26
HETATM   26  O   UNL     1      24.931  48.623  49.655  1.00  0.00    -0.309 OA
HETATM   27  C   UNL     1      25.263  49.547  48.614  1.00  0.00     0.215 C 
ENDBRANCH  23  26
ENDBRANCH  19  22
ENDBRANCH  15  16
ENDBRANCH   1  15
TORSDOF 6
ENDMDL
MODEL 2
REMARK VINA RESULT:      -8.0      1.591      2.399
REMARK  6 active torsions:
REMARK  status: ('A' for Active; 'I' for Inactive)
REMARK    1  A    between atoms: C_2  and  N_3 
REMARK    2  A    between atoms: C_2  and  C_18 
REMARK    3  A    between atoms: N_3  and  C_6 
REMARK    4  A    between atoms: C_6  and  C_7 
REMARK    5  A    between atoms: C_10  and  N_11 
REMARK       I    between atoms: N_11  and  C_12 
REMARK    6  A    between atoms: C_12  and  O_13 
ROOT
HETATM    1  N   UNL     1      26.432  43.502  53.216  1.00  0.00    -0.061 N 
HETATM    2  H   UNL     1      26.096  42.830  52.517  1.00  0.00     0.278 HD
HETATM    3  H   UNL     1      26.530  42.989  54.105  1.00  0.00     0.278 HD
ENDROOT
BRANCH   1   4
HETATM    4  C   UNL     1      27.811  44.015  52.872  1.00  0.00     0.241 C 
HETATM    5  C   UNL     1      28.420  43.035  51.873  1.00  0.00     0.047 C 
BRANCH   4   6
HETATM    6  C   UNL     1      28.662  44.119  54.110  1.00  0.00     0.106 A 
HETATM    7  S   UNL     1      29.895  42.982  54.439  1.00  0.00    -0.070 SA
HETATM    8  C   UNL     1      30.325  43.862  55.857  1.00  0.00     0.035 A 
HETATM    9  C   UNL     1      29.485  44.973  55.976  1.00  0.00     0.075 A 
HETATM   10  C   UNL     1      31.334  43.590  56.793  1.00  0.00     0.021 A 
HETATM   11  N   UNL     1      28.541  45.114  54.966  1.00  0.00    -0.243 NA
HETATM   12  C   UNL     1      29.662  45.843  57.070  1.00  0.00     0.033 A 
HETATM   13  C   UNL     1      30.668  45.582  58.007  1.00  0.00     0.002 A 
HETATM   14  C   UNL     1      31.491  44.469  57.868  1.00  0.00     0.002 A 
ENDBRANCH   4   6
ENDBRANCH   1   4
BRANCH   1  15
HETATM   15  C   UNL     1      25.395  44.552  53.428  1.00  0.00     0.271 C 
BRANCH  15  16
HETATM   16  C   UNL     1      25.344  45.507  52.269  1.00  0.00    -0.033 A 
HETATM   17  C   UNL     1      24.569  45.220  51.137  1.00  0.00     0.011 A 
HETATM   18  C   UNL     1      24.544  46.096  50.044  1.00  0.00     0.030 A 
HETATM   19  C   UNL     1      25.279  47.282  50.063  1.00  0.00     0.036 A 
HETATM   20  C   UNL     1      26.029  47.579  51.207  1.00  0.00     0.030 A 
HETATM   21  C   UNL     1      26.069  46.702  52.295  1.00  0.00     0.011 A 
BRANCH  19  22
HETATM   22  N   UNL     1      25.316  48.224  49.022  1.00  0.00    -0.303 N 
HETATM   23  C   UNL     1      24.562  49.336  48.757  1.00  0.00     0.364 C 
HETATM   24  O   UNL     1      24.820  50.032  47.779  1.00  0.00    -0.238 OA
HETATM   25  H   UNL     1      26.006  48.087  48.294  1.00  0.00     0.171 HD
BRANCH  23  26
HETATM   26  O   UNL     1      23.531  49.564  49.606  1.00  0.00    -0.309 OA
HETATM   27  C   UNL     1      22.258  49.152  49.100  1.00  0.00     0.215 C 
ENDBRANCH  23  26
ENDBRANCH  19  22
ENDBRANCH  15  16
ENDBRANCH   1  15
TORSDOF 6
ENDMDL
MODEL 3
REMARK VINA RESULT:      -8.0      4.182      9.642
REMARK  6 active torsions:
REMARK  status: ('A' for Active; 'I' for Inactive)
REMARK    1  A    between atoms: C_2  and  N_3 
REMARK    2  A    between atoms: C_2  and  C_18 
REMARK    3  A    between atoms: N_3  and  C_6 
REMARK    4  A    between atoms: C_6  and  C_7 
REMARK    5  A    between atoms: C_10  and  N_11 
REMARK       I    between atoms: N_11  and  C_12 
REMARK    6  A    between atoms: C_12  and  O_13 
ROOT
HETATM    1  N   UNL     1      25.390  47.275  51.445  1.00  0.00    -0.061 N 
HETATM    2  H   UNL     1      26.038  47.928  51.900  1.00  0.00     0.278 HD
HETATM    3  H   UNL     1      24.437  47.550  51.724  1.00  0.00     0.278 HD
ENDROOT
BRANCH   1   4
HETATM    4  C   UNL     1      25.442  47.405  49.940  1.00  0.00     0.241 C 
HETATM    5  C   UNL     1      26.692  48.212  49.601  1.00  0.00     0.047 C 
BRANCH   4   6
HETATM    6  C   UNL     1      24.203  48.091  49.425  1.00  0.00     0.106 A 
HETATM    7  S   UNL     1      22.898  47.197  48.775  1.00  0.00    -0.070 SA
HETATM    8  C   UNL     1      22.012  48.658  48.552  1.00  0.00     0.035 A 
HETATM    9  C   UNL     1      22.787  49.734  48.996  1.00  0.00     0.075 A 
HETATM   10  C   UNL     1      20.724  48.839  48.027  1.00  0.00     0.021 A 
HETATM   11  N   UNL     1      24.038  49.396  49.500  1.00  0.00    -0.243 NA
HETATM   12  C   UNL     1      22.254  51.035  48.912  1.00  0.00     0.033 A 
HETATM   13  C   UNL     1      20.969  51.225  48.392  1.00  0.00     0.002 A 
HETATM   14  C   UNL     1      20.217  50.139  47.956  1.00  0.00     0.002 A 
ENDBRANCH   4   6
ENDBRANCH   1   4
BRANCH   1  15
HETATM   15  C   UNL     1      25.623  45.901  51.975  1.00  0.00     0.271 C 
BRANCH  15  16
HETATM   16  C   UNL     1      26.460  45.936  53.222  1.00  0.00    -0.033 A 
HETATM   17  C   UNL     1      26.890  44.748  53.831  1.00  0.00     0.011 A 
HETATM   18  C   UNL     1      27.647  44.779  55.010  1.00  0.00     0.030 A 
HETATM   19  C   UNL     1      28.003  45.993  55.598  1.00  0.00     0.036 A 
HETATM   20  C   UNL     1      27.597  47.178  54.971  1.00  0.00     0.030 A 
HETATM   21  C   UNL     1      26.829  47.153  53.802  1.00  0.00     0.011 A 
BRANCH  19  22
HETATM   22  N   UNL     1      28.760  46.129  56.772  1.00  0.00    -0.303 N 
HETATM   23  C   UNL     1      30.069  45.849  57.064  1.00  0.00     0.364 C 
HETATM   24  O   UNL     1      30.513  46.095  58.181  1.00  0.00    -0.238 OA
HETATM   25  H   UNL     1      28.286  46.483  57.594  1.00  0.00     0.171 HD
BRANCH  23  26
HETATM   26  O   UNL     1      30.782  45.265  56.070  1.00  0.00    -0.309 OA
HETATM   27  C   UNL     1      31.119  43.899  56.321  1.00  0.00     0.215 C 
ENDBRANCH  23  26
ENDBRANCH  19  22
ENDBRANCH  15  16
ENDBRANCH   1  15
TORSDOF 6
ENDMDL
MODEL 4
REMARK VINA RESULT:      -7.8      3.707      9.051
REMARK  6 active torsions:
REMARK  status: ('A' for Active; 'I' for Inactive)
REMARK    1  A    between atoms: C_2  and  N_3 
REMARK    2  A    between atoms: C_2  and  C_18 
REMARK    3  A    between atoms: N_3  and  C_6 
REMARK    4  A    between atoms: C_6  and  C_7 
REMARK    5  A    between atoms: C_10  and  N_11 
REMARK       I    between atoms: N_11  and  C_12 
REMARK    6  A    between atoms: C_12  and  O_13 
ROOT
HETATM    1  N   UNL     1      24.413  45.494  51.294  1.00  0.00    -0.061 N 
HETATM    2  H   UNL     1      24.324  45.781  52.275  1.00  0.00     0.278 HD
HETATM    3  H   UNL     1      23.459  45.430  50.910  1.00  0.00     0.278 HD
ENDROOT
BRANCH   1   4
HETATM    4  C   UNL     1      25.129  46.542  50.474  1.00  0.00     0.241 C 
HETATM    5  C   UNL     1      26.010  47.339  51.432  1.00  0.00     0.047 C 
BRANCH   4   6
HETATM    6  C   UNL     1      24.138  47.440  49.781  1.00  0.00     0.106 A 
HETATM    7  S   UNL     1      22.910  46.801  48.778  1.00  0.00    -0.070 SA
HETATM    8  C   UNL     1      22.293  48.390  48.525  1.00  0.00     0.035 A 
HETATM    9  C   UNL     1      23.079  49.302  49.234  1.00  0.00     0.075 A 
HETATM   10  C   UNL     1      21.191  48.798  47.758  1.00  0.00     0.021 A 
HETATM   11  N   UNL     1      24.129  48.746  49.956  1.00  0.00    -0.243 NA
HETATM   12  C   UNL     1      22.751  50.671  49.175  1.00  0.00     0.033 A 
HETATM   13  C   UNL     1      21.652  51.087  48.415  1.00  0.00     0.002 A 
HETATM   14  C   UNL     1      20.884  50.161  47.717  1.00  0.00     0.002 A 
ENDBRANCH   4   6
ENDBRANCH   1   4
BRANCH   1  15
HETATM   15  C   UNL     1      25.001  44.125  51.234  1.00  0.00     0.271 C 
BRANCH  15  16
HETATM   16  C   UNL     1      26.154  43.987  52.188  1.00  0.00    -0.033 A 
HETATM   17  C   UNL     1      25.946  44.022  53.574  1.00  0.00     0.011 A 
HETATM   18  C   UNL     1      27.024  43.921  54.465  1.00  0.00     0.030 A 
HETATM   19  C   UNL     1      28.328  43.772  53.992  1.00  0.00     0.036 A 
HETATM   20  C   UNL     1      28.529  43.708  52.608  1.00  0.00     0.030 A 
HETATM   21  C   UNL     1      27.459  43.822  51.714  1.00  0.00     0.011 A 
BRANCH  19  22
HETATM   22  N   UNL     1      29.470  43.659  54.801  1.00  0.00    -0.303 N 
HETATM   23  C   UNL     1      30.098  44.542  55.639  1.00  0.00     0.364 C 
HETATM   24  O   UNL     1      31.084  44.184  56.278  1.00  0.00    -0.238 OA
HETATM   25  H   UNL     1      29.969  42.778  54.781  1.00  0.00     0.171 HD
BRANCH  23  26
HETATM   26  O   UNL     1      29.584  45.795  55.667  1.00  0.00    -0.309 OA
HETATM   27  C   UNL     1      28.898  46.116  56.880  1.00  0.00     0.215 C 
ENDBRANCH  23  26
ENDBRANCH  19  22
ENDBRANCH  15  16
ENDBRANCH   1  15
TORSDOF 6
ENDMDL
MODEL 5
REMARK VINA RESULT:      -7.7      3.673      8.890
REMARK  6 active torsions:
REMARK  status: ('A' for Active; 'I' for Inactive)
REMARK    1  A    between atoms: C_2  and  N_3 
REMARK    2  A    between atoms: C_2  and  C_18 
REMARK    3  A    between atoms: N_3  and  C_6 
REMARK    4  A    between atoms: C_6  and  C_7 
REMARK    5  A    between atoms: C_10  and  N_11 
REMARK       I    between atoms: N_11  and  C_12 
REMARK    6  A    between atoms: C_12  and  O_13 
ROOT
HETATM    1  N   UNL     1      26.484  44.996  51.616  1.00  0.00    -0.061 N 
HETATM    2  H   UNL     1      26.941  44.965  50.697  1.00  0.00     0.278 HD
HETATM    3  H   UNL     1      27.008  45.672  52.191  1.00  0.00     0.278 HD
ENDROOT
BRANCH   1   4
HETATM    4  C   UNL     1      25.075  45.530  51.515  1.00  0.00     0.241 C 
HETATM    5  C   UNL     1      24.209  44.410  50.942  1.00  0.00     0.047 C 
BRANCH   4   6
HETATM    6  C   UNL     1      25.032  46.749  50.630  1.00  0.00     0.106 A 
HETATM    7  S   UNL     1      26.465  47.551  50.154  1.00  0.00    -0.070 SA
HETATM    8  C   UNL     1      25.533  48.645  49.203  1.00  0.00     0.035 A 
HETATM    9  C   UNL     1      24.181  48.312  49.319  1.00  0.00     0.075 A 
HETATM   10  C   UNL     1      25.968  49.717  48.409  1.00  0.00     0.021 A 
HETATM   11  N   UNL     1      23.906  47.220  50.134  1.00  0.00    -0.243 NA
HETATM   12  C   UNL     1      23.230  49.078  48.616  1.00  0.00     0.033 A 
HETATM   13  C   UNL     1      23.655  50.147  47.819  1.00  0.00     0.002 A 
HETATM   14  C   UNL     1      25.007  50.460  47.719  1.00  0.00     0.002 A 
ENDBRANCH   4   6
ENDBRANCH   1   4
BRANCH   1  15
HETATM   15  C   UNL     1      26.617  43.665  52.276  1.00  0.00     0.271 C 
BRANCH  15  16
HETATM   16  C   UNL     1      27.744  43.662  53.270  1.00  0.00    -0.033 A 
HETATM   17  C   UNL     1      28.054  44.814  54.006  1.00  0.00     0.011 A 
HETATM   18  C   UNL     1      29.123  44.820  54.913  1.00  0.00     0.030 A 
HETATM   19  C   UNL     1      29.895  43.676  55.113  1.00  0.00     0.036 A 
HETATM   20  C   UNL     1      29.565  42.519  54.397  1.00  0.00     0.030 A 
HETATM   21  C   UNL     1      28.508  42.510  53.481  1.00  0.00     0.011 A 
BRANCH  19  22
HETATM   22  N   UNL     1      30.980  43.581  55.999  1.00  0.00    -0.303 N 
HETATM   23  C   UNL     1      31.185  44.066  57.263  1.00  0.00     0.364 C 
HETATM   24  O   UNL     1      32.230  43.811  57.855  1.00  0.00    -0.238 OA
HETATM   25  H   UNL     1      31.800  43.080  55.678  1.00  0.00     0.171 HD
BRANCH  23  26
HETATM   26  O   UNL     1      30.197  44.847  57.761  1.00  0.00    -0.309 OA
HETATM   27  C   UNL     1      30.635  46.142  58.182  1.00  0.00     0.215 C 
ENDBRANCH  23  26
ENDBRANCH  19  22
ENDBRANCH  15  16
ENDBRANCH   1  15
TORSDOF 6
ENDMDL
MODEL 6
REMARK VINA RESULT:      -7.6      4.164      6.068
REMARK  6 active torsions:
REMARK  status: ('A' for Active; 'I' for Inactive)
REMARK    1  A    between atoms: C_2  and  N_3 
REMARK    2  A    between atoms: C_2  and  C_18 
REMARK    3  A    between atoms: N_3  and  C_6 
REMARK    4  A    between atoms: C_6  and  C_7 
REMARK    5  A    between atoms: C_10  and  N_11 
REMARK       I    between atoms: N_11  and  C_12 
REMARK    6  A    between atoms: C_12  and  O_13 
ROOT
HETATM    1  N   UNL     1      25.340  43.758  52.624  1.00  0.00    -0.061 N 
HETATM    2  H   UNL     1      25.889  43.006  53.057  1.00  0.00     0.278 HD
HETATM    3  H   UNL     1      24.386  43.697  53.010  1.00  0.00     0.278 HD
ENDROOT
BRANCH   1   4
HETATM    4  C   UNL     1      25.866  45.120  53.012  1.00  0.00     0.241 C 
HETATM    5  C   UNL     1      26.119  45.890  51.719  1.00  0.00     0.047 C 
BRANCH   4   6
HETATM    6  C   UNL     1      27.133  44.989  53.817  1.00  0.00     0.106 A 
HETATM    7  S   UNL     1      27.622  46.210  54.910  1.00  0.00    -0.070 SA
HETATM    8  C   UNL     1      28.979  45.252  55.368  1.00  0.00     0.035 A 
HETATM    9  C   UNL     1      28.958  44.056  54.644  1.00  0.00     0.075 A 
HETATM   10  C   UNL     1      29.986  45.536  56.303  1.00  0.00     0.021 A 
HETATM   11  N   UNL     1      27.892  43.914  53.764  1.00  0.00    -0.243 NA
HETATM   12  C   UNL     1      29.980  43.112  54.864  1.00  0.00     0.033 A 
HETATM   13  C   UNL     1      30.987  43.386  55.797  1.00  0.00     0.002 A 
HETATM   14  C   UNL     1      30.988  44.583  56.505  1.00  0.00     0.002 A 
ENDBRANCH   4   6
ENDBRANCH   1   4
BRANCH   1  15
HETATM   15  C   UNL     1      25.236  43.509  51.158  1.00  0.00     0.271 C 
BRANCH  15  16
HETATM   16  C   UNL     1      26.262  42.509  50.703  1.00  0.00    -0.033 A 
HETATM   17  C   UNL     1      27.048  41.814  51.633  1.00  0.00     0.011 A 
HETATM   18  C   UNL     1      28.024  40.903  51.208  1.00  0.00     0.030 A 
HETATM   19  C   UNL     1      28.227  40.656  49.850  1.00  0.00     0.036 A 
HETATM   20  C   UNL     1      27.421  41.330  48.925  1.00  0.00     0.030 A 
HETATM   21  C   UNL     1      26.454  42.251  49.342  1.00  0.00     0.011 A 
BRANCH  19  22
HETATM   22  N   UNL     1      29.175  39.762  49.327  1.00  0.00    -0.303 N 
HETATM   23  C   UNL     1      29.217  38.394  49.265  1.00  0.00     0.364 C 
HETATM   24  O   UNL     1      30.160  37.835  48.712  1.00  0.00    -0.238 OA
HETATM   25  H   UNL     1      30.014  40.157  48.921  1.00  0.00     0.171 HD
BRANCH  23  26
HETATM   26  O   UNL     1      28.196  37.745  49.875  1.00  0.00    -0.309 OA
HETATM   27  C   UNL     1      27.226  37.207  48.972  1.00  0.00     0.215 C 
ENDBRANCH  23  26
ENDBRANCH  19  22
ENDBRANCH  15  16
ENDBRANCH   1  15
TORSDOF 6
ENDMDL
MODEL 7
REMARK VINA RESULT:      -7.6      7.214     10.638
REMARK  6 active torsions:
REMARK  status: ('A' for Active; 'I' for Inactive)
REMARK    1  A    between atoms: C_2  and  N_3 
REMARK    2  A    between atoms: C_2  and  C_18 
REMARK    3  A    between atoms: N_3  and  C_6 
REMARK    4  A    between atoms: C_6  and  C_7 
REMARK    5  A    between atoms: C_10  and  N_11 
REMARK       I    between atoms: N_11  and  C_12 
REMARK    6  A    between atoms: C_12  and  O_13 
ROOT
HETATM    1  N   UNL     1      20.649  49.511  49.956  1.00  0.00    -0.061 N 
HETATM    2  H   UNL     1      21.206  49.145  50.737  1.00  0.00     0.278 HD
HETATM    3  H   UNL     1      20.715  50.538  49.994  1.00  0.00     0.278 HD
ENDROOT
BRANCH   1   4
HETATM    4  C   UNL     1      21.229  49.099  48.623  1.00  0.00     0.241 C 
HETATM    5  C   UNL     1      20.701  47.700  48.315  1.00  0.00     0.047 C 
BRANCH   4   6
HETATM    6  C   UNL     1      22.734  49.106  48.675  1.00  0.00     0.106 A 
HETATM    7  S   UNL     1      23.645  50.313  47.877  1.00  0.00    -0.070 SA
HETATM    8  C   UNL     1      25.097  49.624  48.497  1.00  0.00     0.035 A 
HETATM    9  C   UNL     1      24.776  48.509  49.278  1.00  0.00     0.075 A 
HETATM   10  C   UNL     1      26.424  50.041  48.310  1.00  0.00     0.021 A 
HETATM   11  N   UNL     1      23.418  48.227  49.378  1.00  0.00    -0.243 NA
HETATM   12  C   UNL     1      25.818  47.788  49.893  1.00  0.00     0.033 A 
HETATM   13  C   UNL     1      27.144  48.198  49.714  1.00  0.00     0.002 A 
HETATM   14  C   UNL     1      27.440  49.310  48.933  1.00  0.00     0.002 A 
ENDBRANCH   4   6
ENDBRANCH   1   4
BRANCH   1  15
HETATM   15  C   UNL     1      19.216  49.155  50.166  1.00  0.00     0.271 C 
BRANCH  15  16
HETATM   16  C   UNL     1      18.309  50.253  49.686  1.00  0.00    -0.033 A 
HETATM   17  C   UNL     1      18.608  51.597  49.948  1.00  0.00     0.011 A 
HETATM   18  C   UNL     1      17.748  52.619  49.525  1.00  0.00     0.030 A 
HETATM   19  C   UNL     1      16.581  52.323  48.821  1.00  0.00     0.036 A 
HETATM   20  C   UNL     1      16.299  50.982  48.536  1.00  0.00     0.030 A 
HETATM   21  C   UNL     1      17.147  49.956  48.968  1.00  0.00     0.011 A 
BRANCH  19  22
HETATM   22  N   UNL     1      15.660  53.274  48.352  1.00  0.00    -0.303 N 
HETATM   23  C   UNL     1      14.503  53.779  48.884  1.00  0.00     0.364 C 
HETATM   24  O   UNL     1      13.881  54.649  48.281  1.00  0.00    -0.238 OA
HETATM   25  H   UNL     1      15.834  53.682  47.442  1.00  0.00     0.171 HD
BRANCH  23  26
HETATM   26  O   UNL     1      14.105  53.230  50.056  1.00  0.00    -0.309 OA
HETATM   27  C   UNL     1      14.160  54.127  51.168  1.00  0.00     0.215 C 
ENDBRANCH  23  26
ENDBRANCH  19  22
ENDBRANCH  15  16
ENDBRANCH   1  15
TORSDOF 6
ENDMDL
MODEL 8
REMARK VINA RESULT:      -7.6      1.785      2.645
REMARK  6 active torsions:
REMARK  status: ('A' for Active; 'I' for Inactive)
REMARK    1  A    between atoms: C_2  and  N_3 
REMARK    2  A    between atoms: C_2  and  C_18 
REMARK    3  A    between atoms: N_3  and  C_6 
REMARK    4  A    between atoms: C_6  and  C_7 
REMARK    5  A    between atoms: C_10  and  N_11 
REMARK       I    between atoms: N_11  and  C_12 
REMARK    6  A    between atoms: C_12  and  O_13 
ROOT
HETATM    1  N   UNL     1      25.718  43.932  51.958  1.00  0.00    -0.061 N 
HETATM    2  H   UNL     1      25.273  43.480  52.765  1.00  0.00     0.278 HD
HETATM    3  H   UNL     1      25.855  44.924  52.205  1.00  0.00     0.278 HD
ENDROOT
BRANCH   1   4
HETATM    4  C   UNL     1      27.095  43.368  51.697  1.00  0.00     0.241 C 
HETATM    5  C   UNL     1      26.925  41.876  51.420  1.00  0.00     0.047 C 
BRANCH   4   6
HETATM    6  C   UNL     1      27.994  43.595  52.884  1.00  0.00     0.106 A 
HETATM    7  S   UNL     1      29.235  42.489  53.284  1.00  0.00    -0.070 SA
HETATM    8  C   UNL     1      29.723  43.510  54.583  1.00  0.00     0.035 A 
HETATM    9  C   UNL     1      28.893  44.635  54.616  1.00  0.00     0.075 A 
HETATM   10  C   UNL     1      30.767  43.331  55.503  1.00  0.00     0.021 A 
HETATM   11  N   UNL     1      27.910  44.676  53.634  1.00  0.00    -0.243 NA
HETATM   12  C   UNL     1      29.116  45.614  55.604  1.00  0.00     0.033 A 
HETATM   13  C   UNL     1      30.156  45.445  56.524  1.00  0.00     0.002 A 
HETATM   14  C   UNL     1      30.969  44.318  56.472  1.00  0.00     0.002 A 
ENDBRANCH   4   6
ENDBRANCH   1   4
BRANCH   1  15
HETATM   15  C   UNL     1      24.782  43.895  50.797  1.00  0.00     0.271 C 
BRANCH  15  16
HETATM   16  C   UNL     1      24.468  45.281  50.309  1.00  0.00    -0.033 A 
HETATM   17  C   UNL     1      25.105  46.399  50.866  1.00  0.00     0.011 A 
HETATM   18  C   UNL     1      24.792  47.694  50.430  1.00  0.00     0.030 A 
HETATM   19  C   UNL     1      23.849  47.900  49.423  1.00  0.00     0.036 A 
HETATM   20  C   UNL     1      23.236  46.780  48.849  1.00  0.00     0.030 A 
HETATM   21  C   UNL     1      23.534  45.486  49.289  1.00  0.00     0.011 A 
BRANCH  19  22
HETATM   22  N   UNL     1      23.471  49.154  48.917  1.00  0.00    -0.303 N 
HETATM   23  C   UNL     1      24.046  49.989  47.997  1.00  0.00     0.364 C 
HETATM   24  O   UNL     1      23.490  51.040  47.691  1.00  0.00    -0.238 OA
HETATM   25  H   UNL     1      22.624  49.569  49.286  1.00  0.00     0.171 HD
BRANCH  23  26
HETATM   26  O   UNL     1      25.246  49.591  47.509  1.00  0.00    -0.309 OA
HETATM   27  C   UNL     1      26.368  50.127  48.216  1.00  0.00     0.215 C 
ENDBRANCH  23  26
ENDBRANCH  19  22
ENDBRANCH  15  16
ENDBRANCH   1  15
TORSDOF 6
ENDMDL
MODEL 9
REMARK VINA RESULT:      -7.5      4.986      8.283
REMARK  6 active torsions:
REMARK  status: ('A' for Active; 'I' for Inactive)
REMARK    1  A    between atoms: C_2  and  N_3 
REMARK    2  A    between atoms: C_2  and  C_18 
REMARK    3  A    between atoms: N_3  and  C_6 
REMARK    4  A    between atoms: C_6  and  C_7 
REMARK    5  A    between atoms: C_10  and  N_11 
REMARK       I    between atoms: N_11  and  C_12 
REMARK    6  A    between atoms: C_12  and  O_13 
ROOT
HETATM    1  N   UNL     1      22.309  48.460  49.570  1.00  0.00    -0.061 N 
HETATM    2  H   UNL     1      21.380  48.035  49.471  1.00  0.00     0.278 HD
HETATM    3  H   UNL     1      22.519  48.495  50.578  1.00  0.00     0.278 HD
ENDROOT
BRANCH   1   4
HETATM    4  C   UNL     1      23.381  47.598  48.945  1.00  0.00     0.241 C 
HETATM    5  C   UNL     1      22.674  46.534  48.110  1.00  0.00     0.047 C 
BRANCH   4   6
HETATM    6  C   UNL     1      24.238  46.964  50.010  1.00  0.00     0.106 A 
HETATM    7  S   UNL     1      24.776  45.347  49.872  1.00  0.00    -0.070 SA
HETATM    8  C   UNL     1      25.653  45.516  51.346  1.00  0.00     0.035 A 
HETATM    9  C   UNL     1      25.469  46.810  51.840  1.00  0.00     0.075 A 
HETATM   10  C   UNL     1      26.449  44.573  52.013  1.00  0.00     0.021 A 
HETATM   11  N   UNL     1      24.662  47.634  51.063  1.00  0.00    -0.243 NA
HETATM   12  C   UNL     1      26.104  47.174  53.044  1.00  0.00     0.033 A 
HETATM   13  C   UNL     1      26.902  46.241  53.715  1.00  0.00     0.002 A 
HETATM   14  C   UNL     1      27.070  44.958  53.204  1.00  0.00     0.002 A 
ENDBRANCH   4   6
ENDBRANCH   1   4
BRANCH   1  15
HETATM   15  C   UNL     1      22.259  49.869  49.084  1.00  0.00     0.271 C 
BRANCH  15  16
HETATM   16  C   UNL     1      20.887  50.456  49.262  1.00  0.00    -0.033 A 
HETATM   17  C   UNL     1      20.526  51.645  48.612  1.00  0.00     0.011 A 
HETATM   18  C   UNL     1      19.256  52.207  48.799  1.00  0.00     0.030 A 
HETATM   19  C   UNL     1      18.318  51.591  49.627  1.00  0.00     0.036 A 
HETATM   20  C   UNL     1      18.672  50.389  50.252  1.00  0.00     0.030 A 
HETATM   21  C   UNL     1      19.942  49.829  50.079  1.00  0.00     0.011 A 
BRANCH  19  22
HETATM   22  N   UNL     1      17.022  52.073  49.876  1.00  0.00    -0.303 N 
HETATM   23  C   UNL     1      15.844  51.948  49.189  1.00  0.00     0.364 C 
HETATM   24  O   UNL     1      14.816  52.444  49.641  1.00  0.00    -0.238 OA
HETATM   25  H   UNL     1      16.887  52.641  50.703  1.00  0.00     0.171 HD
BRANCH  23  26
HETATM   26  O   UNL     1      15.920  51.298  48.003  1.00  0.00    -0.309 OA
HETATM   27  C   UNL     1      15.556  49.917  48.072  1.00  0.00     0.215 C 
ENDBRANCH  23  26
ENDBRANCH  19  22
ENDBRANCH  15  16
ENDBRANCH   1  15
TORSDOF 6
ENDMDL
MODEL 10
REMARK VINA RESULT:      -7.4      2.377      3.882
REMARK  6 active torsions:
REMARK  status: ('A' for Active; 'I' for Inactive)
REMARK    1  A    between atoms: C_2  and  N_3 
REMARK    2  A    between atoms: C_2  and  C_18 
REMARK    3  A    between atoms: N_3  and  C_6 
REMARK    4  A    between atoms: C_6  and  C_7 
REMARK    5  A    between atoms: C_10  and  N_11 
REMARK       I    between atoms: N_11  and  C_12 
REMARK    6  A    between atoms: C_12  and  O_13 
ROOT
HETATM    1  N   UNL     1      25.606  45.534  51.789  1.00  0.00    -0.061 N 
HETATM    2  H   UNL     1      26.017  44.617  51.580  1.00  0.00     0.278 HD
HETATM    3  H   UNL     1      24.599  45.469  51.580  1.00  0.00     0.278 HD
ENDROOT
BRANCH   1   4
HETATM    4  C   UNL     1      25.710  45.864  53.260  1.00  0.00     0.241 C 
HETATM    5  C   UNL     1      25.751  47.385  53.379  1.00  0.00     0.047 C 
BRANCH   4   6
HETATM    6  C   UNL     1      26.949  45.245  53.855  1.00  0.00     0.106 A 
HETATM    7  S   UNL     1      27.535  43.734  53.313  1.00  0.00    -0.070 SA
HETATM    8  C   UNL     1      28.873  43.869  54.391  1.00  0.00     0.035 A 
HETATM    9  C   UNL     1      28.772  45.073  55.094  1.00  0.00     0.075 A 
HETATM   10  C   UNL     1      29.935  42.976  54.597  1.00  0.00     0.021 A 
HETATM   11  N   UNL     1      27.669  45.857  54.773  1.00  0.00    -0.243 NA
HETATM   12  C   UNL     1      29.770  45.396  56.034  1.00  0.00     0.033 A 
HETATM   13  C   UNL     1      30.835  44.513  56.244  1.00  0.00     0.002 A 
HETATM   14  C   UNL     1      30.914  43.320  55.534  1.00  0.00     0.002 A 
ENDBRANCH   4   6
ENDBRANCH   1   4
BRANCH   1  15
HETATM   15  C   UNL     1      26.182  46.553  50.865  1.00  0.00     0.271 C 
BRANCH  15  16
HETATM   16  C   UNL     1      25.113  47.178  50.014  1.00  0.00    -0.033 A 
HETATM   17  C   UNL     1      25.272  48.472  49.497  1.00  0.00     0.011 A 
HETATM   18  C   UNL     1      24.264  49.067  48.727  1.00  0.00     0.030 A 
HETATM   19  C   UNL     1      23.082  48.380  48.446  1.00  0.00     0.036 A 
HETATM   20  C   UNL     1      22.938  47.077  48.939  1.00  0.00     0.030 A 
HETATM   21  C   UNL     1      23.936  46.483  49.719  1.00  0.00     0.011 A 
BRANCH  19  22
HETATM   22  N   UNL     1      22.018  48.886  47.682  1.00  0.00    -0.303 N 
HETATM   23  C   UNL     1      20.839  49.492  48.029  1.00  0.00     0.364 C 
HETATM   24  O   UNL     1      20.073  49.886  47.155  1.00  0.00    -0.238 OA
HETATM   25  H   UNL     1      22.082  48.794  46.676  1.00  0.00     0.171 HD
BRANCH  23  26
HETATM   26  O   UNL     1      20.589  49.574  49.358  1.00  0.00    -0.309 OA
HETATM   27  C   UNL     1      19.538  48.715  49.807  1.00  0.00     0.215 C 
ENDBRANCH  23  26
ENDBRANCH  19  22
ENDBRANCH  15  16
ENDBRANCH   1  15
TORSDOF 6
ENDMDL
