MODEL 1
REMARK VINA RESULT:      -9.7      0.000      0.000
REMARK  10 active torsions:
REMARK  status: ('A' for Active; 'I' for Inactive)
REMARK    1  A    between atoms: C_4  and  C_5 
REMARK    2  A    between atoms: C_6  and  O_7 
REMARK    3  A    between atoms: C_14  and  C_15 
REMARK    4  A    between atoms: C_18  and  C_19 
REMARK    5  A    between atoms: C_19  and  N_20 
REMARK    6  A    between atoms: N_20  and  C_21 
REMARK    7  A    between atoms: C_21  and  N_22 
REMARK    8  A    between atoms: N_22  and  C_23 
REMARK    9  A    between atoms: C_25  and  C_26 
REMARK   10  A    between atoms: C_26  and  O_27 
ROOT
HETATM    1  C   UNL     1      25.837  42.769  51.078  1.00  0.00     0.067 C 
HETATM    2  C   UNL     1      26.256  43.169  49.634  1.00  0.00     0.001 C 
HETATM    3  C   UNL     1      26.472  44.697  49.532  1.00  0.00     0.040 C 
HETATM    4  C   UNL     1      25.152  45.444  49.776  1.00  0.00     0.206 C 
HETATM    5  N   UNL     1      24.132  44.426  50.294  1.00  0.00    -0.065 N 
HETATM    6  H   UNL     1      23.283  44.932  50.584  1.00  0.00     0.280 HD
HETATM    7  C   UNL     1      24.633  43.643  51.498  1.00  0.00     0.246 C 
HETATM    8  C   UNL     1      25.082  42.805  48.695  1.00  0.00     0.033 C 
HETATM    9  C   UNL     1      23.783  43.462  49.174  1.00  0.00     0.236 C 
ENDROOT
BRANCH   4  10
HETATM   10  C   UNL     1      25.241  46.701  50.664  1.00  0.00     0.155 C 
BRANCH  10  11
HETATM   11  N   UNL     1      24.259  47.740  50.372  1.00  0.00    -0.365 N 
HETATM   12  H   UNL     1      23.800  48.171  51.169  1.00  0.00     0.161 HD
BRANCH  11  13
HETATM   13  C   UNL     1      24.274  48.546  49.267  1.00  0.00     0.172 C 
HETATM   14  S   UNL     1      25.652  49.281  48.681  1.00  0.00    -0.041 SA
BRANCH  13  15
HETATM   15  N   UNL     1      23.106  48.636  48.558  1.00  0.00    -0.333 N 
HETATM   16  H   UNL     1      23.111  48.112  47.685  1.00  0.00     0.168 HD
BRANCH  15  17
HETATM   17  C   UNL     1      21.966  49.442  48.777  1.00  0.00     0.035 A 
HETATM   18  C   UNL     1      20.847  49.005  49.487  1.00  0.00     0.047 A 
HETATM   19  C   UNL     1      19.716  49.819  49.639  1.00  0.00     0.041 A 
HETATM   20  C   UNL     1      19.730  51.119  49.131  1.00  0.00     0.018 A 
HETATM   21  C   UNL     1      20.871  51.589  48.477  1.00  0.00     0.003 A 
HETATM   22  C   UNL     1      21.982  50.755  48.301  1.00  0.00     0.029 A 
BRANCH  19  23
HETATM   23  C   UNL     1      18.539  49.214  50.309  1.00  0.00     0.293 C 
HETATM   24  O   UNL     1      18.521  48.967  51.508  1.00  0.00    -0.259 OA
BRANCH  23  25
HETATM   25  O   UNL     1      17.539  48.990  49.426  1.00  0.00    -0.323 OA
HETATM   26  C   UNL     1      17.371  47.616  49.072  1.00  0.00     0.213 C 
ENDBRANCH  23  25
ENDBRANCH  19  23
ENDBRANCH  15  17
ENDBRANCH  13  15
ENDBRANCH  11  13
ENDBRANCH  10  11
ENDBRANCH   4  10
BRANCH   1  27
HETATM   27  C   UNL     1      26.954  42.792  52.085  1.00  0.00     0.038 C 
HETATM   28  N   UNL     1      27.979  41.869  52.114  1.00  0.00    -0.277 N 
HETATM   29  C   UNL     1      28.245  40.780  51.201  1.00  0.00     0.179 C 
HETATM   30  N   UNL     1      28.827  42.043  53.133  1.00  0.00    -0.172 NA
HETATM   31  C   UNL     1      28.491  43.224  53.660  1.00  0.00     0.092 C 
HETATM   32  C   UNL     1      27.295  43.706  53.071  1.00  0.00     0.061 C 
BRANCH  31  33
HETATM   33  C   UNL     1      29.287  43.852  54.703  1.00  0.00     0.028 A 
HETATM   34  C   UNL     1      29.031  45.170  55.121  1.00  0.00     0.080 A 
HETATM   35  C   UNL     1      29.813  45.740  56.131  1.00  0.00     0.037 A 
HETATM   36  C   UNL     1      30.860  45.015  56.705  1.00  0.00     0.003 A 
HETATM   37  C   UNL     1      31.123  43.713  56.282  1.00  0.00     0.001 A 
HETATM   38  C   UNL     1      30.337  43.131  55.287  1.00  0.00     0.017 A 
BRANCH  34  39
HETATM   39  O   UNL     1      27.959  45.829  54.567  1.00  0.00    -0.355 OA
HETATM   40  C   UNL     1      27.625  47.052  55.220  1.00  0.00     0.210 C 
ENDBRANCH  34  39
ENDBRANCH  31  33
ENDBRANCH   1  27
TORSDOF 10
ENDMDL
MODEL 2
REMARK VINA RESULT:      -9.2      2.378      9.914
REMARK  10 active torsions:
REMARK  status: ('A' for Active; 'I' for Inactive)
REMARK    1  A    between atoms: C_4  and  C_5 
REMARK    2  A    between atoms: C_6  and  O_7 
REMARK    3  A    between atoms: C_14  and  C_15 
REMARK    4  A    between atoms: C_18  and  C_19 
REMARK    5  A    between atoms: C_19  and  N_20 
REMARK    6  A    between atoms: N_20  and  C_21 
REMARK    7  A    between atoms: C_21  and  N_22 
REMARK    8  A    between atoms: N_22  and  C_23 
REMARK    9  A    between atoms: C_25  and  C_26 
REMARK   10  A    between atoms: C_26  and  O_27 
ROOT
HETATM    1  C   UNL     1      22.331  44.005  48.057  1.00  0.00     0.067 C 
HETATM    2  C   UNL     1      22.517  43.347  49.454  1.00  0.00     0.001 C 
HETATM    3  C   UNL     1      23.610  44.083  50.263  1.00  0.00     0.040 C 
HETATM    4  C   UNL     1      24.977  43.936  49.578  1.00  0.00     0.206 C 
HETATM    5  N   UNL     1      24.738  43.331  48.191  1.00  0.00    -0.065 N 
HETATM    6  H   UNL     1      25.626  43.345  47.671  1.00  0.00     0.280 HD
HETATM    7  C   UNL     1      23.714  44.103  47.374  1.00  0.00     0.246 C 
HETATM    8  C   UNL     1      23.011  41.900  49.221  1.00  0.00     0.033 C 
HETATM    9  C   UNL     1      24.274  41.894  48.353  1.00  0.00     0.236 C 
ENDROOT
BRANCH   4  10
HETATM   10  C   UNL     1      25.849  45.207  49.529  1.00  0.00     0.155 C 
BRANCH  10  11
HETATM   11  N   UNL     1      26.834  45.327  50.599  1.00  0.00    -0.365 N 
HETATM   12  H   UNL     1      27.738  45.713  50.346  1.00  0.00     0.161 HD
BRANCH  11  13
HETATM   13  C   UNL     1      26.536  45.494  51.924  1.00  0.00     0.172 C 
HETATM   14  S   UNL     1      25.722  46.819  52.526  1.00  0.00    -0.041 SA
BRANCH  13  15
HETATM   15  N   UNL     1      26.828  44.445  52.754  1.00  0.00    -0.333 N 
HETATM   16  H   UNL     1      26.007  43.956  53.105  1.00  0.00     0.168 HD
BRANCH  15  17
HETATM   17  C   UNL     1      28.064  44.031  53.301  1.00  0.00     0.035 A 
HETATM   18  C   UNL     1      28.558  44.505  54.517  1.00  0.00     0.047 A 
HETATM   19  C   UNL     1      29.812  44.107  54.999  1.00  0.00     0.041 A 
HETATM   20  C   UNL     1      30.557  43.166  54.287  1.00  0.00     0.018 A 
HETATM   21  C   UNL     1      30.041  42.635  53.102  1.00  0.00     0.003 A 
HETATM   22  C   UNL     1      28.802  43.065  52.612  1.00  0.00     0.029 A 
BRANCH  19  23
HETATM   23  C   UNL     1      30.292  44.761  56.242  1.00  0.00     0.293 C 
HETATM   24  O   UNL     1      31.190  44.289  56.926  1.00  0.00    -0.259 OA
BRANCH  23  25
HETATM   25  O   UNL     1      29.610  45.904  56.484  1.00  0.00    -0.323 OA
HETATM   26  C   UNL     1      29.237  46.081  57.852  1.00  0.00     0.213 C 
ENDBRANCH  23  25
ENDBRANCH  19  23
ENDBRANCH  15  17
ENDBRANCH  13  15
ENDBRANCH  11  13
ENDBRANCH  10  11
ENDBRANCH   4  10
BRANCH   1  27
HETATM   27  C   UNL     1      21.594  45.316  48.073  1.00  0.00     0.038 C 
HETATM   28  N   UNL     1      20.344  45.501  47.518  1.00  0.00    -0.277 N 
HETATM   29  C   UNL     1      19.476  44.525  46.897  1.00  0.00     0.179 C 
HETATM   30  N   UNL     1      19.907  46.761  47.591  1.00  0.00    -0.172 NA
HETATM   31  C   UNL     1      20.775  47.379  48.398  1.00  0.00     0.092 C 
HETATM   32  C   UNL     1      21.873  46.529  48.684  1.00  0.00     0.061 C 
BRANCH  31  33
HETATM   33  C   UNL     1      20.557  48.740  48.860  1.00  0.00     0.028 A 
HETATM   34  C   UNL     1      21.411  49.787  48.470  1.00  0.00     0.080 A 
HETATM   35  C   UNL     1      21.166  51.086  48.928  1.00  0.00     0.037 A 
HETATM   36  C   UNL     1      20.096  51.339  49.790  1.00  0.00     0.003 A 
HETATM   37  C   UNL     1      19.257  50.300  50.188  1.00  0.00     0.001 A 
HETATM   38  C   UNL     1      19.483  49.005  49.722  1.00  0.00     0.017 A 
BRANCH  34  39
HETATM   39  O   UNL     1      22.419  49.504  47.580  1.00  0.00    -0.355 OA
HETATM   40  C   UNL     1      23.554  50.359  47.693  1.00  0.00     0.210 C 
ENDBRANCH  34  39
ENDBRANCH  31  33
ENDBRANCH   1  27
TORSDOF 10
ENDMDL
MODEL 3
REMARK VINA RESULT:      -9.2      1.626      2.264
REMARK  10 active torsions:
REMARK  status: ('A' for Active; 'I' for Inactive)
REMARK    1  A    between atoms: C_4  and  C_5 
REMARK    2  A    between atoms: C_6  and  O_7 
REMARK    3  A    between atoms: C_14  and  C_15 
REMARK    4  A    between atoms: C_18  and  C_19 
REMARK    5  A    between atoms: C_19  and  N_20 
REMARK    6  A    between atoms: N_20  and  C_21 
REMARK    7  A    between atoms: C_21  and  N_22 
REMARK    8  A    between atoms: N_22  and  C_23 
REMARK    9  A    between atoms: C_25  and  C_26 
REMARK   10  A    between atoms: C_26  and  O_27 
ROOT
HETATM    1  C   UNL     1      26.320  43.583  51.863  1.00  0.00     0.067 C 
HETATM    2  C   UNL     1      26.937  43.560  50.436  1.00  0.00     0.001 C 
HETATM    3  C   UNL     1      26.987  44.986  49.839  1.00  0.00     0.040 C 
HETATM    4  C   UNL     1      25.566  45.536  49.641  1.00  0.00     0.206 C 
HETATM    5  N   UNL     1      24.598  44.582  50.346  1.00  0.00    -0.065 N 
HETATM    6  H   UNL     1      23.657  45.002  50.333  1.00  0.00     0.280 HD
HETATM    7  C   UNL     1      24.967  44.327  51.799  1.00  0.00     0.246 C 
HETATM    8  C   UNL     1      26.000  42.718  49.540  1.00  0.00     0.033 C 
HETATM    9  C   UNL     1      24.568  43.262  49.594  1.00  0.00     0.236 C 
ENDROOT
BRANCH   4  10
HETATM   10  C   UNL     1      25.348  47.009  50.043  1.00  0.00     0.155 C 
BRANCH  10  11
HETATM   11  N   UNL     1      24.016  47.538  49.768  1.00  0.00    -0.365 N 
HETATM   12  H   UNL     1      23.354  47.527  50.537  1.00  0.00     0.161 HD
BRANCH  11  13
HETATM   13  C   UNL     1      23.730  48.494  48.832  1.00  0.00     0.172 C 
HETATM   14  S   UNL     1      24.714  49.804  48.522  1.00  0.00    -0.041 SA
BRANCH  13  15
HETATM   15  N   UNL     1      22.634  48.269  48.043  1.00  0.00    -0.333 N 
HETATM   16  H   UNL     1      22.814  48.371  47.047  1.00  0.00     0.168 HD
BRANCH  15  17
HETATM   17  C   UNL     1      21.282  48.060  48.398  1.00  0.00     0.035 A 
HETATM   18  C   UNL     1      20.630  48.796  49.389  1.00  0.00     0.047 A 
HETATM   19  C   UNL     1      19.303  48.523  49.746  1.00  0.00     0.041 A 
HETATM   20  C   UNL     1      18.591  47.541  49.054  1.00  0.00     0.018 A 
HETATM   21  C   UNL     1      19.215  46.843  48.016  1.00  0.00     0.003 A 
HETATM   22  C   UNL     1      20.552  47.102  47.690  1.00  0.00     0.029 A 
BRANCH  19  23
HETATM   23  C   UNL     1      18.744  49.285  50.890  1.00  0.00     0.293 C 
HETATM   24  O   UNL     1      18.447  48.752  51.950  1.00  0.00    -0.259 OA
BRANCH  23  25
HETATM   25  O   UNL     1      18.622  50.597  50.586  1.00  0.00    -0.323 OA
HETATM   26  C   UNL     1      17.590  50.882  49.639  1.00  0.00     0.213 C 
ENDBRANCH  23  25
ENDBRANCH  19  23
ENDBRANCH  15  17
ENDBRANCH  13  15
ENDBRANCH  11  13
ENDBRANCH  10  11
ENDBRANCH   4  10
BRANCH   1  27
HETATM   27  C   UNL     1      27.231  44.121  52.933  1.00  0.00     0.038 C 
HETATM   28  N   UNL     1      27.097  45.375  53.494  1.00  0.00    -0.277 N 
HETATM   29  C   UNL     1      26.075  46.370  53.256  1.00  0.00     0.179 C 
HETATM   30  N   UNL     1      28.053  45.670  54.380  1.00  0.00    -0.172 NA
HETATM   31  C   UNL     1      28.705  44.519  54.575  1.00  0.00     0.092 C 
HETATM   32  C   UNL     1      28.259  43.537  53.656  1.00  0.00     0.061 C 
BRANCH  31  33
HETATM   33  C   UNL     1      29.728  44.383  55.600  1.00  0.00     0.028 A 
HETATM   34  C   UNL     1      29.807  45.287  56.674  1.00  0.00     0.080 A 
HETATM   35  C   UNL     1      30.800  45.122  57.646  1.00  0.00     0.037 A 
HETATM   36  C   UNL     1      31.726  44.081  57.537  1.00  0.00     0.003 A 
HETATM   37  C   UNL     1      31.656  43.192  56.466  1.00  0.00     0.001 A 
HETATM   38  C   UNL     1      30.658  43.339  55.502  1.00  0.00     0.017 A 
BRANCH  34  39
HETATM   39  O   UNL     1      28.846  46.264  56.771  1.00  0.00    -0.355 OA
HETATM   40  C   UNL     1      28.408  46.522  58.103  1.00  0.00     0.210 C 
ENDBRANCH  34  39
ENDBRANCH  31  33
ENDBRANCH   1  27
TORSDOF 10
ENDMDL
MODEL 4
REMARK VINA RESULT:      -9.1      3.487      9.636
REMARK  10 active torsions:
REMARK  status: ('A' for Active; 'I' for Inactive)
REMARK    1  A    between atoms: C_4  and  C_5 
REMARK    2  A    between atoms: C_6  and  O_7 
REMARK    3  A    between atoms: C_14  and  C_15 
REMARK    4  A    between atoms: C_18  and  C_19 
REMARK    5  A    between atoms: C_19  and  N_20 
REMARK    6  A    between atoms: N_20  and  C_21 
REMARK    7  A    between atoms: C_21  and  N_22 
REMARK    8  A    between atoms: N_22  and  C_23 
REMARK    9  A    between atoms: C_25  and  C_26 
REMARK   10  A    between atoms: C_26  and  O_27 
ROOT
HETATM    1  C   UNL     1      26.085  46.084  50.935  1.00  0.00     0.067 C 
HETATM    2  C   UNL     1      26.725  45.067  49.947  1.00  0.00     0.001 C 
HETATM    3  C   UNL     1      25.640  44.172  49.305  1.00  0.00     0.040 C 
HETATM    4  C   UNL     1      24.958  43.303  50.373  1.00  0.00     0.206 C 
HETATM    5  N   UNL     1      25.411  43.813  51.744  1.00  0.00    -0.065 N 
HETATM    6  H   UNL     1      24.866  43.326  52.470  1.00  0.00     0.280 HD
HETATM    7  C   UNL     1      25.189  45.306  51.925  1.00  0.00     0.246 C 
HETATM    8  C   UNL     1      27.655  44.146  50.771  1.00  0.00     0.033 C 
HETATM    9  C   UNL     1      26.885  43.496  51.927  1.00  0.00     0.236 C 
ENDROOT
BRANCH   4  10
HETATM   10  C   UNL     1      23.426  43.174  50.263  1.00  0.00     0.155 C 
BRANCH  10  11
HETATM   11  N   UNL     1      22.950  41.987  49.561  1.00  0.00    -0.365 N 
HETATM   12  H   UNL     1      22.079  41.581  49.889  1.00  0.00     0.161 HD
BRANCH  11  13
HETATM   13  C   UNL     1      23.215  41.690  48.252  1.00  0.00     0.172 C 
HETATM   14  S   UNL     1      22.728  42.646  46.973  1.00  0.00    -0.041 SA
BRANCH  13  15
HETATM   15  N   UNL     1      24.028  40.614  48.019  1.00  0.00    -0.333 N 
HETATM   16  H   UNL     1      23.534  39.726  47.971  1.00  0.00     0.168 HD
BRANCH  15  17
HETATM   17  C   UNL     1      25.439  40.529  47.977  1.00  0.00     0.035 A 
HETATM   18  C   UNL     1      26.208  40.063  49.045  1.00  0.00     0.047 A 
HETATM   19  C   UNL     1      27.607  40.043  48.980  1.00  0.00     0.041 A 
HETATM   20  C   UNL     1      28.249  40.430  47.802  1.00  0.00     0.018 A 
HETATM   21  C   UNL     1      27.485  40.835  46.705  1.00  0.00     0.003 A 
HETATM   22  C   UNL     1      26.088  40.883  46.792  1.00  0.00     0.029 A 
BRANCH  19  23
HETATM   23  C   UNL     1      28.331  39.641  50.212  1.00  0.00     0.293 C 
HETATM   24  O   UNL     1      28.464  40.392  51.169  1.00  0.00    -0.259 OA
BRANCH  23  25
HETATM   25  O   UNL     1      28.796  38.374  50.110  1.00  0.00    -0.323 OA
HETATM   26  C   UNL     1      29.907  38.092  50.964  1.00  0.00     0.213 C 
ENDBRANCH  23  25
ENDBRANCH  19  23
ENDBRANCH  15  17
ENDBRANCH  13  15
ENDBRANCH  11  13
ENDBRANCH  10  11
ENDBRANCH   4  10
BRANCH   1  27
HETATM   27  C   UNL     1      25.368  47.232  50.277  1.00  0.00     0.038 C 
HETATM   28  N   UNL     1      26.004  48.220  49.554  1.00  0.00    -0.277 N 
HETATM   29  C   UNL     1      27.406  48.336  49.216  1.00  0.00     0.179 C 
HETATM   30  N   UNL     1      25.180  49.175  49.113  1.00  0.00    -0.172 NA
HETATM   31  C   UNL     1      23.952  48.706  49.356  1.00  0.00     0.092 C 
HETATM   32  C   UNL     1      24.020  47.519  50.127  1.00  0.00     0.061 C 
BRANCH  31  33
HETATM   33  C   UNL     1      22.762  49.389  48.873  1.00  0.00     0.028 A 
HETATM   34  C   UNL     1      22.005  48.869  47.809  1.00  0.00     0.080 A 
HETATM   35  C   UNL     1      20.862  49.550  47.375  1.00  0.00     0.037 A 
HETATM   36  C   UNL     1      20.489  50.754  47.977  1.00  0.00     0.003 A 
HETATM   37  C   UNL     1      21.246  51.278  49.023  1.00  0.00     0.001 A 
HETATM   38  C   UNL     1      22.378  50.596  49.473  1.00  0.00     0.017 A 
BRANCH  34  39
HETATM   39  O   UNL     1      22.377  47.656  47.281  1.00  0.00    -0.355 OA
HETATM   40  C   UNL     1      21.479  46.589  47.577  1.00  0.00     0.210 C 
ENDBRANCH  34  39
ENDBRANCH  31  33
ENDBRANCH   1  27
TORSDOF 10
ENDMDL
MODEL 5
REMARK VINA RESULT:      -9.0      3.141      8.909
REMARK  10 active torsions:
REMARK  status: ('A' for Active; 'I' for Inactive)
REMARK    1  A    between atoms: C_4  and  C_5 
REMARK    2  A    between atoms: C_6  and  O_7 
REMARK    3  A    between atoms: C_14  and  C_15 
REMARK    4  A    between atoms: C_18  and  C_19 
REMARK    5  A    between atoms: C_19  and  N_20 
REMARK    6  A    between atoms: N_20  and  C_21 
REMARK    7  A    between atoms: C_21  and  N_22 
REMARK    8  A    between atoms: N_22  and  C_23 
REMARK    9  A    between atoms: C_25  and  C_26 
REMARK   10  A    between atoms: C_26  and  O_27 
ROOT
HETATM    1  C   UNL     1      19.437  49.099  48.794  1.00  0.00     0.067 C 
HETATM    2  C   UNL     1      19.668  49.928  47.499  1.00  0.00     0.001 C 
HETATM    3  C   UNL     1      21.166  50.276  47.333  1.00  0.00     0.040 C 
HETATM    4  C   UNL     1      21.635  51.193  48.472  1.00  0.00     0.206 C 
HETATM    5  N   UNL     1      20.521  51.235  49.522  1.00  0.00    -0.065 N 
HETATM    6  H   UNL     1      20.870  51.740  50.349  1.00  0.00     0.280 HD
HETATM    7  C   UNL     1      20.083  49.852  49.979  1.00  0.00     0.246 C 
HETATM    8  C   UNL     1      18.901  51.261  47.661  1.00  0.00     0.033 C 
HETATM    9  C   UNL     1      19.327  51.977  48.947  1.00  0.00     0.236 C 
ENDROOT
BRANCH   4  10
HETATM   10  C   UNL     1      23.014  50.865  49.080  1.00  0.00     0.155 C 
BRANCH  10  11
HETATM   11  N   UNL     1      23.788  49.860  48.360  1.00  0.00    -0.365 N 
HETATM   12  H   UNL     1      23.915  50.009  47.364  1.00  0.00     0.161 HD
BRANCH  11  13
HETATM   13  C   UNL     1      24.771  49.084  48.911  1.00  0.00     0.172 C 
HETATM   14  S   UNL     1      26.400  49.385  48.719  1.00  0.00    -0.041 SA
BRANCH  13  15
HETATM   15  N   UNL     1      24.363  48.089  49.759  1.00  0.00    -0.333 N 
HETATM   16  H   UNL     1      23.404  48.190  50.084  1.00  0.00     0.168 HD
BRANCH  15  17
HETATM   17  C   UNL     1      25.100  47.038  50.352  1.00  0.00     0.035 A 
HETATM   18  C   UNL     1      25.344  46.957  51.724  1.00  0.00     0.047 A 
HETATM   19  C   UNL     1      26.122  45.925  52.266  1.00  0.00     0.041 A 
HETATM   20  C   UNL     1      26.608  44.917  51.431  1.00  0.00     0.018 A 
HETATM   21  C   UNL     1      26.312  44.954  50.066  1.00  0.00     0.003 A 
HETATM   22  C   UNL     1      25.562  46.008  49.530  1.00  0.00     0.029 A 
BRANCH  19  23
HETATM   23  C   UNL     1      26.419  45.999  53.718  1.00  0.00     0.293 C 
HETATM   24  O   UNL     1      25.686  46.579  54.508  1.00  0.00    -0.259 OA
BRANCH  23  25
HETATM   25  O   UNL     1      27.572  45.357  54.012  1.00  0.00    -0.323 OA
HETATM   26  C   UNL     1      27.978  45.482  55.376  1.00  0.00     0.213 C 
ENDBRANCH  23  25
ENDBRANCH  19  23
ENDBRANCH  15  17
ENDBRANCH  13  15
ENDBRANCH  11  13
ENDBRANCH  10  11
ENDBRANCH   4  10
BRANCH   1  27
HETATM   27  C   UNL     1      19.877  47.662  48.707  1.00  0.00     0.038 C 
HETATM   28  N   UNL     1      19.030  46.620  48.391  1.00  0.00    -0.277 N 
HETATM   29  C   UNL     1      17.633  46.667  48.020  1.00  0.00     0.179 C 
HETATM   30  N   UNL     1      19.619  45.420  48.433  1.00  0.00    -0.172 NA
HETATM   31  C   UNL     1      20.923  45.684  48.563  1.00  0.00     0.092 C 
HETATM   32  C   UNL     1      21.127  47.068  48.789  1.00  0.00     0.061 C 
BRANCH  31  33
HETATM   33  C   UNL     1      21.928  44.635  48.488  1.00  0.00     0.028 A 
HETATM   34  C   UNL     1      22.489  44.252  47.256  1.00  0.00     0.080 A 
HETATM   35  C   UNL     1      23.458  43.243  47.222  1.00  0.00     0.037 A 
HETATM   36  C   UNL     1      23.848  42.601  48.399  1.00  0.00     0.003 A 
HETATM   37  C   UNL     1      23.283  42.970  49.618  1.00  0.00     0.001 A 
HETATM   38  C   UNL     1      22.328  43.987  49.664  1.00  0.00     0.017 A 
BRANCH  34  39
HETATM   39  O   UNL     1      22.116  44.946  46.130  1.00  0.00    -0.355 OA
HETATM   40  C   UNL     1      22.857  44.603  44.961  1.00  0.00     0.210 C 
ENDBRANCH  34  39
ENDBRANCH  31  33
ENDBRANCH   1  27
TORSDOF 10
ENDMDL
MODEL 6
REMARK VINA RESULT:      -9.0      3.977      7.373
REMARK  10 active torsions:
REMARK  status: ('A' for Active; 'I' for Inactive)
REMARK    1  A    between atoms: C_4  and  C_5 
REMARK    2  A    between atoms: C_6  and  O_7 
REMARK    3  A    between atoms: C_14  and  C_15 
REMARK    4  A    between atoms: C_18  and  C_19 
REMARK    5  A    between atoms: C_19  and  N_20 
REMARK    6  A    between atoms: N_20  and  C_21 
REMARK    7  A    between atoms: C_21  and  N_22 
REMARK    8  A    between atoms: N_22  and  C_23 
REMARK    9  A    between atoms: C_25  and  C_26 
REMARK   10  A    between atoms: C_26  and  O_27 
ROOT
HETATM    1  C   UNL     1      22.017  49.520  48.110  1.00  0.00     0.067 C 
HETATM    2  C   UNL     1      21.456  50.588  49.091  1.00  0.00     0.001 C 
HETATM    3  C   UNL     1      20.519  49.934  50.133  1.00  0.00     0.040 C 
HETATM    4  C   UNL     1      19.277  49.346  49.446  1.00  0.00     0.206 C 
HETATM    5  N   UNL     1      19.523  49.383  47.934  1.00  0.00    -0.065 N 
HETATM    6  H   UNL     1      18.758  48.876  47.466  1.00  0.00     0.280 HD
HETATM    7  C   UNL     1      20.829  48.718  47.529  1.00  0.00     0.246 C 
HETATM    8  C   UNL     1      20.604  51.577  48.261  1.00  0.00     0.033 C 
HETATM    9  C   UNL     1      19.527  50.828  47.468  1.00  0.00     0.236 C 
ENDROOT
BRANCH   4  10
HETATM   10  C   UNL     1      18.823  47.959  49.941  1.00  0.00     0.155 C 
BRANCH  10  11
HETATM   11  N   UNL     1      17.405  47.667  49.760  1.00  0.00    -0.365 N 
HETATM   12  H   UNL     1      16.750  48.239  50.285  1.00  0.00     0.161 HD
BRANCH  11  13
HETATM   13  C   UNL     1      16.853  47.129  48.629  1.00  0.00     0.172 C 
HETATM   14  S   UNL     1      16.030  48.026  47.488  1.00  0.00    -0.041 SA
BRANCH  13  15
HETATM   15  N   UNL     1      17.111  45.806  48.391  1.00  0.00    -0.333 N 
HETATM   16  H   UNL     1      16.622  45.170  49.017  1.00  0.00     0.168 HD
BRANCH  15  17
HETATM   17  C   UNL     1      18.043  45.203  47.516  1.00  0.00     0.035 A 
HETATM   18  C   UNL     1      19.392  45.036  47.834  1.00  0.00     0.047 A 
HETATM   19  C   UNL     1      20.294  44.478  46.918  1.00  0.00     0.041 A 
HETATM   20  C   UNL     1      19.827  44.016  45.686  1.00  0.00     0.018 A 
HETATM   21  C   UNL     1      18.467  44.118  45.385  1.00  0.00     0.003 A 
HETATM   22  C   UNL     1      17.581  44.707  46.294  1.00  0.00     0.029 A 
BRANCH  19  23
HETATM   23  C   UNL     1      21.724  44.455  47.313  1.00  0.00     0.293 C 
HETATM   24  O   UNL     1      22.552  45.210  46.821  1.00  0.00    -0.259 OA
BRANCH  23  25
HETATM   25  O   UNL     1      21.953  43.512  48.255  1.00  0.00    -0.323 OA
HETATM   26  C   UNL     1      22.673  42.374  47.777  1.00  0.00     0.213 C 
ENDBRANCH  23  25
ENDBRANCH  19  23
ENDBRANCH  15  17
ENDBRANCH  13  15
ENDBRANCH  11  13
ENDBRANCH  10  11
ENDBRANCH   4  10
BRANCH   1  27
HETATM   27  C   UNL     1      23.089  48.638  48.688  1.00  0.00     0.038 C 
HETATM   28  N   UNL     1      24.426  48.978  48.721  1.00  0.00    -0.277 N 
HETATM   29  C   UNL     1      25.059  50.210  48.305  1.00  0.00     0.179 C 
HETATM   30  N   UNL     1      25.211  48.018  49.221  1.00  0.00    -0.172 NA
HETATM   31  C   UNL     1      24.365  47.116  49.730  1.00  0.00     0.092 C 
HETATM   32  C   UNL     1      23.031  47.436  49.376  1.00  0.00     0.061 C 
BRANCH  31  33
HETATM   33  C   UNL     1      24.834  45.984  50.512  1.00  0.00     0.028 A 
HETATM   34  C   UNL     1      25.293  46.150  51.831  1.00  0.00     0.080 A 
HETATM   35  C   UNL     1      25.731  45.037  52.557  1.00  0.00     0.037 A 
HETATM   36  C   UNL     1      25.738  43.771  51.968  1.00  0.00     0.003 A 
HETATM   37  C   UNL     1      25.296  43.606  50.657  1.00  0.00     0.001 A 
HETATM   38  C   UNL     1      24.841  44.708  49.932  1.00  0.00     0.017 A 
BRANCH  34  39
HETATM   39  O   UNL     1      25.220  47.404  52.390  1.00  0.00    -0.355 OA
HETATM   40  C   UNL     1      25.774  47.493  53.700  1.00  0.00     0.210 C 
ENDBRANCH  34  39
ENDBRANCH  31  33
ENDBRANCH   1  27
TORSDOF 10
ENDMDL
MODEL 7
REMARK VINA RESULT:      -8.8      3.819      7.147
REMARK  10 active torsions:
REMARK  status: ('A' for Active; 'I' for Inactive)
REMARK    1  A    between atoms: C_4  and  C_5 
REMARK    2  A    between atoms: C_6  and  O_7 
REMARK    3  A    between atoms: C_14  and  C_15 
REMARK    4  A    between atoms: C_18  and  C_19 
REMARK    5  A    between atoms: C_19  and  N_20 
REMARK    6  A    between atoms: N_20  and  C_21 
REMARK    7  A    between atoms: C_21  and  N_22 
REMARK    8  A    between atoms: N_22  and  C_23 
REMARK    9  A    between atoms: C_25  and  C_26 
REMARK   10  A    between atoms: C_26  and  O_27 
ROOT
HETATM    1  C   UNL     1      22.051  49.717  48.071  1.00  0.00     0.067 C 
HETATM    2  C   UNL     1      21.318  50.727  48.999  1.00  0.00     0.001 C 
HETATM    3  C   UNL     1      20.415  49.984  50.011  1.00  0.00     0.040 C 
HETATM    4  C   UNL     1      19.288  49.238  49.279  1.00  0.00     0.206 C 
HETATM    5  N   UNL     1      19.604  49.276  47.781  1.00  0.00    -0.065 N 
HETATM    6  H   UNL     1      18.929  48.672  47.290  1.00  0.00     0.280 HD
HETATM    7  C   UNL     1      20.999  48.767  47.455  1.00  0.00     0.246 C 
HETATM    8  C   UNL     1      20.397  51.590  48.106  1.00  0.00     0.033 C 
HETATM    9  C   UNL     1      19.457  50.702  47.281  1.00  0.00     0.236 C 
ENDROOT
BRANCH   4  10
HETATM   10  C   UNL     1      18.979  47.815  49.786  1.00  0.00     0.155 C 
BRANCH  10  11
HETATM   11  N   UNL     1      17.624  47.341  49.524  1.00  0.00    -0.365 N 
HETATM   12  H   UNL     1      16.933  47.515  50.246  1.00  0.00     0.161 HD
BRANCH  11  13
HETATM   13  C   UNL     1      17.071  47.197  48.281  1.00  0.00     0.172 C 
HETATM   14  S   UNL     1      17.576  46.058  47.173  1.00  0.00    -0.041 SA
BRANCH  13  15
HETATM   15  N   UNL     1      15.967  47.961  48.009  1.00  0.00    -0.333 N 
HETATM   16  H   UNL     1      15.122  47.420  47.840  1.00  0.00     0.168 HD
BRANCH  15  17
HETATM   17  C   UNL     1      15.853  49.354  47.793  1.00  0.00     0.035 A 
HETATM   18  C   UNL     1      15.887  50.292  48.826  1.00  0.00     0.047 A 
HETATM   19  C   UNL     1      15.720  51.660  48.574  1.00  0.00     0.041 A 
HETATM   20  C   UNL     1      15.585  52.107  47.258  1.00  0.00     0.018 A 
HETATM   21  C   UNL     1      15.616  51.181  46.212  1.00  0.00     0.003 A 
HETATM   22  C   UNL     1      15.750  49.813  46.478  1.00  0.00     0.029 A 
BRANCH  19  23
HETATM   23  C   UNL     1      15.655  52.557  49.754  1.00  0.00     0.293 C 
HETATM   24  O   UNL     1      16.615  53.216  50.131  1.00  0.00    -0.259 OA
BRANCH  23  25
HETATM   25  O   UNL     1      14.426  52.530  50.318  1.00  0.00    -0.323 OA
HETATM   26  C   UNL     1      13.685  53.741  50.159  1.00  0.00     0.213 C 
ENDBRANCH  23  25
ENDBRANCH  19  23
ENDBRANCH  15  17
ENDBRANCH  13  15
ENDBRANCH  11  13
ENDBRANCH  10  11
ENDBRANCH   4  10
BRANCH   1  27
HETATM   27  C   UNL     1      23.191  48.981  48.720  1.00  0.00     0.038 C 
HETATM   28  N   UNL     1      24.509  49.380  48.634  1.00  0.00    -0.277 N 
HETATM   29  C   UNL     1      25.059  50.561  48.005  1.00  0.00     0.179 C 
HETATM   30  N   UNL     1      25.363  48.544  49.233  1.00  0.00    -0.172 NA
HETATM   31  C   UNL     1      24.587  47.694  49.914  1.00  0.00     0.092 C 
HETATM   32  C   UNL     1      23.224  47.897  49.585  1.00  0.00     0.061 C 
BRANCH  31  33
HETATM   33  C   UNL     1      25.147  46.717  50.834  1.00  0.00     0.028 A 
HETATM   34  C   UNL     1      25.464  45.414  50.408  1.00  0.00     0.080 A 
HETATM   35  C   UNL     1      26.007  44.502  51.319  1.00  0.00     0.037 A 
HETATM   36  C   UNL     1      26.209  44.872  52.651  1.00  0.00     0.003 A 
HETATM   37  C   UNL     1      25.884  46.158  53.077  1.00  0.00     0.001 A 
HETATM   38  C   UNL     1      25.357  47.080  52.171  1.00  0.00     0.017 A 
BRANCH  34  39
HETATM   39  O   UNL     1      25.298  45.108  49.079  1.00  0.00    -0.355 OA
HETATM   40  C   UNL     1      24.300  44.122  48.827  1.00  0.00     0.210 C 
ENDBRANCH  34  39
ENDBRANCH  31  33
ENDBRANCH   1  27
TORSDOF 10
ENDMDL
MODEL 8
REMARK VINA RESULT:      -8.7     18.353     20.675
REMARK  10 active torsions:
REMARK  status: ('A' for Active; 'I' for Inactive)
REMARK    1  A    between atoms: C_4  and  C_5 
REMARK    2  A    between atoms: C_6  and  O_7 
REMARK    3  A    between atoms: C_14  and  C_15 
REMARK    4  A    between atoms: C_18  and  C_19 
REMARK    5  A    between atoms: C_19  and  N_20 
REMARK    6  A    between atoms: N_20  and  C_21 
REMARK    7  A    between atoms: C_21  and  N_22 
REMARK    8  A    between atoms: N_22  and  C_23 
REMARK    9  A    between atoms: C_25  and  C_26 
REMARK   10  A    between atoms: C_26  and  O_27 
ROOT
HETATM    1  C   UNL     1      37.382  41.884  64.487  1.00  0.00     0.067 C 
HETATM    2  C   UNL     1      38.638  41.321  65.210  1.00  0.00     0.001 C 
HETATM    3  C   UNL     1      39.815  42.320  65.118  1.00  0.00     0.040 C 
HETATM    4  C   UNL     1      40.255  42.501  63.657  1.00  0.00     0.206 C 
HETATM    5  N   UNL     1      39.203  41.827  62.771  1.00  0.00    -0.065 N 
HETATM    6  H   UNL     1      39.414  42.049  61.787  1.00  0.00     0.280 HD
HETATM    7  C   UNL     1      37.789  42.307  63.057  1.00  0.00     0.246 C 
HETATM    8  C   UNL     1      39.064  40.036  64.462  1.00  0.00     0.033 C 
HETATM    9  C   UNL     1      39.277  40.324  62.972  1.00  0.00     0.236 C 
ENDROOT
BRANCH   4  10
HETATM   10  C   UNL     1      40.565  43.946  63.219  1.00  0.00     0.155 C 
BRANCH  10  11
HETATM   11  N   UNL     1      41.890  44.435  63.583  1.00  0.00    -0.365 N 
HETATM   12  H   UNL     1      42.664  44.136  62.998  1.00  0.00     0.161 HD
BRANCH  11  13
HETATM   13  C   UNL     1      42.140  45.612  64.235  1.00  0.00     0.172 C 
HETATM   14  S   UNL     1      43.672  46.134  64.641  1.00  0.00    -0.041 SA
BRANCH  13  15
HETATM   15  N   UNL     1      41.068  46.438  64.441  1.00  0.00    -0.333 N 
HETATM   16  H   UNL     1      40.708  46.868  63.592  1.00  0.00     0.168 HD
BRANCH  15  17
HETATM   17  C   UNL     1      40.483  46.889  65.647  1.00  0.00     0.035 A 
HETATM   18  C   UNL     1      40.121  48.219  65.869  1.00  0.00     0.047 A 
HETATM   19  C   UNL     1      39.589  48.633  67.097  1.00  0.00     0.041 A 
HETATM   20  C   UNL     1      39.352  47.690  68.099  1.00  0.00     0.018 A 
HETATM   21  C   UNL     1      39.650  46.346  67.862  1.00  0.00     0.003 A 
HETATM   22  C   UNL     1      40.211  45.948  66.643  1.00  0.00     0.029 A 
BRANCH  19  23
HETATM   23  C   UNL     1      39.349  50.087  67.269  1.00  0.00     0.293 C 
HETATM   24  O   UNL     1      39.492  50.654  68.344  1.00  0.00    -0.259 OA
BRANCH  23  25
HETATM   25  O   UNL     1      38.963  50.656  66.103  1.00  0.00    -0.323 OA
HETATM   26  C   UNL     1      37.840  51.532  66.226  1.00  0.00     0.213 C 
ENDBRANCH  23  25
ENDBRANCH  19  23
ENDBRANCH  15  17
ENDBRANCH  13  15
ENDBRANCH  11  13
ENDBRANCH  10  11
ENDBRANCH   4  10
BRANCH   1  27
HETATM   27  C   UNL     1      36.662  42.974  65.234  1.00  0.00     0.038 C 
HETATM   28  N   UNL     1      35.361  42.867  65.682  1.00  0.00    -0.277 N 
HETATM   29  C   UNL     1      34.468  41.732  65.608  1.00  0.00     0.179 C 
HETATM   30  N   UNL     1      34.902  43.979  66.265  1.00  0.00    -0.172 NA
HETATM   31  C   UNL     1      35.978  44.760  66.405  1.00  0.00     0.092 C 
HETATM   32  C   UNL     1      37.090  44.196  65.731  1.00  0.00     0.061 C 
BRANCH  31  33
HETATM   33  C   UNL     1      35.925  46.009  67.148  1.00  0.00     0.028 A 
HETATM   34  C   UNL     1      35.951  47.251  66.489  1.00  0.00     0.080 A 
HETATM   35  C   UNL     1      35.892  48.432  67.236  1.00  0.00     0.037 A 
HETATM   36  C   UNL     1      35.834  48.381  68.631  1.00  0.00     0.003 A 
HETATM   37  C   UNL     1      35.821  47.152  69.286  1.00  0.00     0.001 A 
HETATM   38  C   UNL     1      35.863  45.968  68.548  1.00  0.00     0.017 A 
BRANCH  34  39
HETATM   39  O   UNL     1      35.956  47.255  65.114  1.00  0.00    -0.355 OA
HETATM   40  C   UNL     1      36.845  48.206  64.536  1.00  0.00     0.210 C 
ENDBRANCH  34  39
ENDBRANCH  31  33
ENDBRANCH   1  27
TORSDOF 10
ENDMDL
MODEL 9
REMARK VINA RESULT:      -8.6      2.797      5.266
REMARK  10 active torsions:
REMARK  status: ('A' for Active; 'I' for Inactive)
REMARK    1  A    between atoms: C_4  and  C_5 
REMARK    2  A    between atoms: C_6  and  O_7 
REMARK    3  A    between atoms: C_14  and  C_15 
REMARK    4  A    between atoms: C_18  and  C_19 
REMARK    5  A    between atoms: C_19  and  N_20 
REMARK    6  A    between atoms: N_20  and  C_21 
REMARK    7  A    between atoms: C_21  and  N_22 
REMARK    8  A    between atoms: N_22  and  C_23 
REMARK    9  A    between atoms: C_25  and  C_26 
REMARK   10  A    between atoms: C_26  and  O_27 
ROOT
HETATM    1  C   UNL     1      27.232  44.274  51.266  1.00  0.00     0.067 C 
HETATM    2  C   UNL     1      26.108  44.419  52.331  1.00  0.00     0.001 C 
HETATM    3  C   UNL     1      24.718  44.192  51.692  1.00  0.00     0.040 C 
HETATM    4  C   UNL     1      24.417  45.286  50.657  1.00  0.00     0.206 C 
HETATM    5  N   UNL     1      25.709  46.076  50.428  1.00  0.00    -0.065 N 
HETATM    6  H   UNL     1      25.560  46.728  49.645  1.00  0.00     0.280 HD
HETATM    7  C   UNL     1      26.891  45.189  50.068  1.00  0.00     0.246 C 
HETATM    8  C   UNL     1      26.146  45.875  52.848  1.00  0.00     0.033 C 
HETATM    9  C   UNL     1      26.035  46.866  51.683  1.00  0.00     0.236 C 
ENDROOT
BRANCH   4  10
HETATM   10  C   UNL     1      23.769  44.812  49.340  1.00  0.00     0.155 C 
BRANCH  10  11
HETATM   11  N   UNL     1      22.478  45.418  49.029  1.00  0.00    -0.365 N 
HETATM   12  H   UNL     1      21.814  45.494  49.793  1.00  0.00     0.161 HD
BRANCH  11  13
HETATM   13  C   UNL     1      22.262  46.340  48.042  1.00  0.00     0.172 C 
HETATM   14  S   UNL     1      21.372  46.026  46.666  1.00  0.00    -0.041 SA
BRANCH  13  15
HETATM   15  N   UNL     1      22.709  47.611  48.282  1.00  0.00    -0.333 N 
HETATM   16  H   UNL     1      23.722  47.690  48.336  1.00  0.00     0.168 HD
BRANCH  15  17
HETATM   17  C   UNL     1      21.989  48.786  48.601  1.00  0.00     0.035 A 
HETATM   18  C   UNL     1      20.816  48.779  49.358  1.00  0.00     0.047 A 
HETATM   19  C   UNL     1      20.105  49.960  49.610  1.00  0.00     0.041 A 
HETATM   20  C   UNL     1      20.611  51.180  49.155  1.00  0.00     0.018 A 
HETATM   21  C   UNL     1      21.819  51.204  48.453  1.00  0.00     0.003 A 
HETATM   22  C   UNL     1      22.504  50.013  48.178  1.00  0.00     0.029 A 
BRANCH  19  23
HETATM   23  C   UNL     1      18.811  49.826  50.324  1.00  0.00     0.293 C 
HETATM   24  O   UNL     1      18.713  49.254  51.401  1.00  0.00    -0.259 OA
BRANCH  23  25
HETATM   25  O   UNL     1      17.809  50.408  49.626  1.00  0.00    -0.323 OA
HETATM   26  C   UNL     1      17.218  49.560  48.639  1.00  0.00     0.213 C 
ENDBRANCH  23  25
ENDBRANCH  19  23
ENDBRANCH  15  17
ENDBRANCH  13  15
ENDBRANCH  11  13
ENDBRANCH  10  11
ENDBRANCH   4  10
BRANCH   1  27
HETATM   27  C   UNL     1      27.528  42.858  50.852  1.00  0.00     0.038 C 
HETATM   28  N   UNL     1      28.290  41.984  51.601  1.00  0.00    -0.277 N 
HETATM   29  C   UNL     1      28.880  42.185  52.906  1.00  0.00     0.179 C 
HETATM   30  N   UNL     1      28.477  40.799  51.013  1.00  0.00    -0.172 NA
HETATM   31  C   UNL     1      27.650  40.803  49.963  1.00  0.00     0.092 C 
HETATM   32  C   UNL     1      27.074  42.087  49.794  1.00  0.00     0.061 C 
BRANCH  31  33
HETATM   33  C   UNL     1      27.439  39.617  49.149  1.00  0.00     0.028 A 
HETATM   34  C   UNL     1      27.837  39.578  47.801  1.00  0.00     0.080 A 
HETATM   35  C   UNL     1      27.625  38.417  47.050  1.00  0.00     0.037 A 
HETATM   36  C   UNL     1      26.997  37.310  47.626  1.00  0.00     0.003 A 
HETATM   37  C   UNL     1      26.591  37.351  48.959  1.00  0.00     0.001 A 
HETATM   38  C   UNL     1      26.814  38.499  49.720  1.00  0.00     0.017 A 
BRANCH  34  39
HETATM   39  O   UNL     1      28.498  40.670  47.288  1.00  0.00    -0.355 OA
HETATM   40  C   UNL     1      28.118  41.009  45.957  1.00  0.00     0.210 C 
ENDBRANCH  34  39
ENDBRANCH  31  33
ENDBRANCH   1  27
TORSDOF 10
ENDMDL
MODEL 10
REMARK VINA RESULT:      -8.6      3.922      7.179
REMARK  10 active torsions:
REMARK  status: ('A' for Active; 'I' for Inactive)
REMARK    1  A    between atoms: C_4  and  C_5 
REMARK    2  A    between atoms: C_6  and  O_7 
REMARK    3  A    between atoms: C_14  and  C_15 
REMARK    4  A    between atoms: C_18  and  C_19 
REMARK    5  A    between atoms: C_19  and  N_20 
REMARK    6  A    between atoms: N_20  and  C_21 
REMARK    7  A    between atoms: C_21  and  N_22 
REMARK    8  A    between atoms: N_22  and  C_23 
REMARK    9  A    between atoms: C_25  and  C_26 
REMARK   10  A    between atoms: C_26  and  O_27 
ROOT
HETATM    1  C   UNL     1      22.171  49.555  48.235  1.00  0.00     0.067 C 
HETATM    2  C   UNL     1      21.618  50.632  49.211  1.00  0.00     0.001 C 
HETATM    3  C   UNL     1      20.673  49.990  50.253  1.00  0.00     0.040 C 
HETATM    4  C   UNL     1      19.427  49.412  49.565  1.00  0.00     0.206 C 
HETATM    5  N   UNL     1      19.677  49.440  48.055  1.00  0.00    -0.065 N 
HETATM    6  H   UNL     1      18.908  48.940  47.586  1.00  0.00     0.280 HD
HETATM    7  C   UNL     1      20.978  48.762  47.655  1.00  0.00     0.246 C 
HETATM    8  C   UNL     1      20.778  51.625  48.376  1.00  0.00     0.033 C 
HETATM    9  C   UNL     1      19.695  50.884  47.583  1.00  0.00     0.236 C 
ENDROOT
BRANCH   4  10
HETATM   10  C   UNL     1      18.959  48.030  50.064  1.00  0.00     0.155 C 
BRANCH  10  11
HETATM   11  N   UNL     1      17.659  47.596  49.563  1.00  0.00    -0.365 N 
HETATM   12  H   UNL     1      16.861  48.177  49.800  1.00  0.00     0.161 HD
BRANCH  11  13
HETATM   13  C   UNL     1      17.463  46.860  48.427  1.00  0.00     0.172 C 
HETATM   14  S   UNL     1      16.588  47.405  47.115  1.00  0.00    -0.041 SA
BRANCH  13  15
HETATM   15  N   UNL     1      18.134  45.669  48.343  1.00  0.00    -0.333 N 
HETATM   16  H   UNL     1      17.651  44.891  48.787  1.00  0.00     0.168 HD
BRANCH  15  17
HETATM   17  C   UNL     1      19.436  45.388  47.868  1.00  0.00     0.035 A 
HETATM   18  C   UNL     1      19.829  45.603  46.546  1.00  0.00     0.047 A 
HETATM   19  C   UNL     1      21.114  45.264  46.104  1.00  0.00     0.041 A 
HETATM   20  C   UNL     1      22.047  44.764  47.014  1.00  0.00     0.018 A 
HETATM   21  C   UNL     1      21.683  44.607  48.354  1.00  0.00     0.003 A 
HETATM   22  C   UNL     1      20.386  44.918  48.778  1.00  0.00     0.029 A 
BRANCH  19  23
HETATM   23  C   UNL     1      21.390  45.424  44.654  1.00  0.00     0.293 C 
HETATM   24  O   UNL     1      22.522  45.569  44.214  1.00  0.00    -0.259 OA
BRANCH  23  25
HETATM   25  O   UNL     1      20.244  45.388  43.936  1.00  0.00    -0.323 OA
HETATM   26  C   UNL     1      20.233  46.271  42.812  1.00  0.00     0.213 C 
ENDBRANCH  23  25
ENDBRANCH  19  23
ENDBRANCH  15  17
ENDBRANCH  13  15
ENDBRANCH  11  13
ENDBRANCH  10  11
ENDBRANCH   4  10
BRANCH   1  27
HETATM   27  C   UNL     1      23.234  48.664  48.819  1.00  0.00     0.038 C 
HETATM   28  N   UNL     1      24.578  48.978  48.826  1.00  0.00    -0.277 N 
HETATM   29  C   UNL     1      25.229  50.188  48.373  1.00  0.00     0.179 C 
HETATM   30  N   UNL     1      25.350  48.014  49.337  1.00  0.00    -0.172 NA
HETATM   31  C   UNL     1      24.494  47.141  49.878  1.00  0.00     0.092 C 
HETATM   32  C   UNL     1      23.161  47.480  49.535  1.00  0.00     0.061 C 
BRANCH  31  33
HETATM   33  C   UNL     1      24.951  46.018  50.680  1.00  0.00     0.028 A 
HETATM   34  C   UNL     1      25.355  46.193  52.016  1.00  0.00     0.080 A 
HETATM   35  C   UNL     1      25.783  45.088  52.760  1.00  0.00     0.037 A 
HETATM   36  C   UNL     1      25.835  43.821  52.173  1.00  0.00     0.003 A 
HETATM   37  C   UNL     1      25.448  43.648  50.846  1.00  0.00     0.001 A 
HETATM   38  C   UNL     1      25.003  44.742  50.102  1.00  0.00     0.017 A 
BRANCH  34  39
HETATM   39  O   UNL     1      25.238  47.446  52.569  1.00  0.00    -0.355 OA
HETATM   40  C   UNL     1      25.855  47.579  53.847  1.00  0.00     0.210 C 
ENDBRANCH  34  39
ENDBRANCH  31  33
ENDBRANCH   1  27
TORSDOF 10
ENDMDL
