MODEL 1
REMARK VINA RESULT:      -8.9      0.000      0.000
REMARK  7 active torsions:
REMARK  status: ('A' for Active; 'I' for Inactive)
REMARK    1  A    between atoms: C_2  and  O_3 
REMARK    2  A    between atoms: O_3  and  C_4 
REMARK    3  A    between atoms: C_4  and  C_5 
REMARK    4  A    between atoms: C_6  and  C_7 
REMARK    5  A    between atoms: C_18  and  S_19 
REMARK    6  A    between atoms: S_19  and  C_20 
REMARK    7  A    between atoms: C_20  and  C_21 
ROOT
HETATM    1  C   UNL     1      24.134  44.240  49.654  1.00  0.00     0.070 C 
HETATM    2  C   UNL     1      24.408  45.304  50.721  1.00  0.00     0.203 C 
HETATM    3  N   UNL     1      25.347  44.806  51.728  1.00  0.00    -0.082 N 
HETATM    4  C   UNL     1      26.132  43.700  51.556  1.00  0.00     0.726 A 
HETATM    5  N   UNL     1      26.022  42.993  50.414  1.00  0.00    -0.192 N 
HETATM    6  N   UNL     1      25.489  45.324  52.960  1.00  0.00    -0.128 NA
HETATM    7  C   UNL     1      26.426  44.513  53.467  1.00  0.00     0.226 A 
HETATM    8  N   UNL     1      26.856  43.512  52.629  1.00  0.00    -0.035 NA
HETATM    9  C   UNL     1      24.972  43.179  49.510  1.00  0.00     0.037 C 
HETATM   10  C   UNL     1      24.882  42.145  48.415  1.00  0.00     0.070 C 
HETATM   11  H   UNL     1      26.540  42.120  50.343  1.00  0.00     0.184 HD
ENDROOT
BRANCH   7  12
HETATM   12  S   UNL     1      26.990  44.732  55.097  1.00  0.00    -0.083 SA
BRANCH  12  13
HETATM   13  C   UNL     1      28.603  45.500  54.790  1.00  0.00     0.123 C 
BRANCH  13  14
HETATM   14  C   UNL     1      29.644  44.987  55.759  1.00  0.00    -0.027 A 
HETATM   15  C   UNL     1      30.435  43.856  55.501  1.00  0.00     0.041 A 
HETATM   16 CL   UNL     1      30.310  42.964  54.026  1.00  0.00    -0.084 Cl
HETATM   17  C   UNL     1      31.362  43.404  56.448  1.00  0.00     0.024 A 
HETATM   18  C   UNL     1      31.506  44.069  57.665  1.00  0.00     0.002 A 
HETATM   19  C   UNL     1      30.724  45.186  57.939  1.00  0.00     0.001 A 
HETATM   20  C   UNL     1      29.801  45.641  56.997  1.00  0.00     0.009 A 
ENDBRANCH  13  14
ENDBRANCH  12  13
ENDBRANCH   7  12
BRANCH   2  21
HETATM   21  C   UNL     1      24.946  46.608  50.126  1.00  0.00    -0.026 A 
HETATM   22  C   UNL     1      24.051  47.624  49.749  1.00  0.00     0.033 A 
HETATM   23  C   UNL     1      24.524  48.809  49.186  1.00  0.00     0.034 A 
HETATM   24 CL   UNL     1      23.413  50.038  48.722  1.00  0.00    -0.084 Cl
HETATM   25  C   UNL     1      25.889  49.005  48.992  1.00  0.00     0.024 A 
HETATM   26  C   UNL     1      26.791  48.010  49.365  1.00  0.00     0.002 A 
HETATM   27  C   UNL     1      26.324  46.820  49.928  1.00  0.00     0.010 A 
ENDBRANCH   2  21
BRANCH   1  28
HETATM   28  C   UNL     1      22.873  44.498  48.909  1.00  0.00     0.293 C 
HETATM   29  O   UNL     1      21.777  44.158  49.327  1.00  0.00    -0.259 OA
BRANCH  28  30
HETATM   30  O   UNL     1      23.104  45.034  47.688  1.00  0.00    -0.318 OA
BRANCH  30  31
HETATM   31  C   UNL     1      22.286  44.535  46.618  1.00  0.00     0.174 C 
HETATM   32  C   UNL     1      21.495  45.660  45.976  1.00  0.00     0.034 C 
ENDBRANCH  30  31
ENDBRANCH  28  30
ENDBRANCH   1  28
TORSDOF 7
ENDMDL
MODEL 2
REMARK VINA RESULT:      -8.6      4.125      8.926
REMARK  7 active torsions:
REMARK  status: ('A' for Active; 'I' for Inactive)
REMARK    1  A    between atoms: C_2  and  O_3 
REMARK    2  A    between atoms: O_3  and  C_4 
REMARK    3  A    between atoms: C_4  and  C_5 
REMARK    4  A    between atoms: C_6  and  C_7 
REMARK    5  A    between atoms: C_18  and  S_19 
REMARK    6  A    between atoms: S_19  and  C_20 
REMARK    7  A    between atoms: C_20  and  C_21 
ROOT
HETATM    1  C   UNL     1      25.475  45.325  52.589  1.00  0.00     0.070 C 
HETATM    2  C   UNL     1      24.598  45.074  51.360  1.00  0.00     0.203 C 
HETATM    3  N   UNL     1      24.408  46.307  50.592  1.00  0.00    -0.082 N 
HETATM    4  C   UNL     1      25.178  47.425  50.745  1.00  0.00     0.726 A 
HETATM    5  N   UNL     1      26.150  47.426  51.678  1.00  0.00    -0.192 N 
HETATM    6  N   UNL     1      23.413  46.509  49.711  1.00  0.00    -0.128 NA
HETATM    7  C   UNL     1      23.675  47.763  49.321  1.00  0.00     0.226 A 
HETATM    8  N   UNL     1      24.760  48.354  49.924  1.00  0.00    -0.035 NA
HETATM    9  C   UNL     1      26.245  46.443  52.668  1.00  0.00     0.037 C 
HETATM   10  C   UNL     1      27.246  46.732  53.760  1.00  0.00     0.070 C 
HETATM   11  H   UNL     1      26.647  48.297  51.847  1.00  0.00     0.184 HD
ENDROOT
BRANCH   7  12
HETATM   12  S   UNL     1      22.651  48.557  48.161  1.00  0.00    -0.083 SA
BRANCH  12  13
HETATM   13  C   UNL     1      21.026  48.298  48.920  1.00  0.00     0.123 C 
BRANCH  13  14
HETATM   14  C   UNL     1      20.292  49.608  49.097  1.00  0.00    -0.027 A 
HETATM   15  C   UNL     1      19.218  49.767  49.988  1.00  0.00     0.041 A 
HETATM   16 CL   UNL     1      18.660  48.478  50.995  1.00  0.00    -0.084 Cl
HETATM   17  C   UNL     1      18.553  50.994  50.088  1.00  0.00     0.024 A 
HETATM   18  C   UNL     1      18.943  52.074  49.296  1.00  0.00     0.002 A 
HETATM   19  C   UNL     1      20.000  51.929  48.403  1.00  0.00     0.001 A 
HETATM   20  C   UNL     1      20.667  50.708  48.302  1.00  0.00     0.009 A 
ENDBRANCH  13  14
ENDBRANCH  12  13
ENDBRANCH   7  12
BRANCH   2  21
HETATM   21  C   UNL     1      25.167  43.988  50.444  1.00  0.00    -0.026 A 
HETATM   22  C   UNL     1      24.298  43.076  49.820  1.00  0.00     0.033 A 
HETATM   23  C   UNL     1      24.802  42.068  48.999  1.00  0.00     0.034 A 
HETATM   24 CL   UNL     1      23.724  40.954  48.252  1.00  0.00    -0.084 Cl
HETATM   25  C   UNL     1      26.173  41.950  48.783  1.00  0.00     0.024 A 
HETATM   26  C   UNL     1      27.048  42.849  49.389  1.00  0.00     0.002 A 
HETATM   27  C   UNL     1      26.551  43.861  50.214  1.00  0.00     0.010 A 
ENDBRANCH   2  21
BRANCH   1  28
HETATM   28  C   UNL     1      25.310  44.272  53.626  1.00  0.00     0.293 C 
HETATM   29  O   UNL     1      24.490  44.354  54.528  1.00  0.00    -0.259 OA
BRANCH  28  30
HETATM   30  O   UNL     1      26.242  43.297  53.514  1.00  0.00    -0.318 OA
BRANCH  30  31
HETATM   31  C   UNL     1      27.214  43.232  54.569  1.00  0.00     0.174 C 
HETATM   32  C   UNL     1      28.622  43.217  54.004  1.00  0.00     0.034 C 
ENDBRANCH  30  31
ENDBRANCH  28  30
ENDBRANCH   1  28
TORSDOF 7
ENDMDL
MODEL 3
REMARK VINA RESULT:      -8.5      1.704      2.238
REMARK  7 active torsions:
REMARK  status: ('A' for Active; 'I' for Inactive)
REMARK    1  A    between atoms: C_2  and  O_3 
REMARK    2  A    between atoms: O_3  and  C_4 
REMARK    3  A    between atoms: C_4  and  C_5 
REMARK    4  A    between atoms: C_6  and  C_7 
REMARK    5  A    between atoms: C_18  and  S_19 
REMARK    6  A    between atoms: S_19  and  C_20 
REMARK    7  A    between atoms: C_20  and  C_21 
ROOT
HETATM    1  C   UNL     1      23.187  45.922  48.753  1.00  0.00     0.070 C 
HETATM    2  C   UNL     1      23.696  46.924  49.793  1.00  0.00     0.203 C 
HETATM    3  N   UNL     1      24.622  46.282  50.729  1.00  0.00    -0.082 N 
HETATM    4  C   UNL     1      25.215  45.072  50.503  1.00  0.00     0.726 A 
HETATM    5  N   UNL     1      24.915  44.398  49.375  1.00  0.00    -0.192 N 
HETATM    6  N   UNL     1      24.932  46.763  51.945  1.00  0.00    -0.128 NA
HETATM    7  C   UNL     1      25.770  45.816  52.384  1.00  0.00     0.226 A 
HETATM    8  N   UNL     1      25.981  44.768  51.520  1.00  0.00    -0.035 NA
HETATM    9  C   UNL     1      23.842  44.748  48.551  1.00  0.00     0.037 C 
HETATM   10  C   UNL     1      23.515  43.748  47.469  1.00  0.00     0.070 C 
HETATM   11  H   UNL     1      25.289  43.458  49.269  1.00  0.00     0.184 HD
ENDROOT
BRANCH   7  12
HETATM   12  S   UNL     1      26.480  45.933  53.967  1.00  0.00    -0.083 SA
BRANCH  12  13
HETATM   13  C   UNL     1      27.086  44.239  54.186  1.00  0.00     0.123 C 
BRANCH  13  14
HETATM   14  C   UNL     1      28.478  44.230  54.775  1.00  0.00    -0.027 A 
HETATM   15  C   UNL     1      29.363  43.150  54.626  1.00  0.00     0.041 A 
HETATM   16 CL   UNL     1      28.947  41.738  53.720  1.00  0.00    -0.084 Cl
HETATM   17  C   UNL     1      30.630  43.180  55.221  1.00  0.00     0.024 A 
HETATM   18  C   UNL     1      31.027  44.283  55.977  1.00  0.00     0.002 A 
HETATM   19  C   UNL     1      30.159  45.358  56.140  1.00  0.00     0.001 A 
HETATM   20  C   UNL     1      28.896  45.332  55.547  1.00  0.00     0.009 A 
ENDBRANCH  13  14
ENDBRANCH  12  13
ENDBRANCH   7  12
BRANCH   2  21
HETATM   21  C   UNL     1      24.380  48.136  49.156  1.00  0.00    -0.026 A 
HETATM   22  C   UNL     1      25.765  48.317  49.312  1.00  0.00     0.033 A 
HETATM   23  C   UNL     1      26.400  49.428  48.755  1.00  0.00     0.034 A 
HETATM   24 CL   UNL     1      28.095  49.638  48.965  1.00  0.00    -0.084 Cl
HETATM   25  C   UNL     1      25.672  50.373  48.036  1.00  0.00     0.024 A 
HETATM   26  C   UNL     1      24.299  50.206  47.868  1.00  0.00     0.002 A 
HETATM   27  C   UNL     1      23.656  49.097  48.423  1.00  0.00     0.010 A 
ENDBRANCH   2  21
BRANCH   1  28
HETATM   28  C   UNL     1      21.928  46.373  48.104  1.00  0.00     0.293 C 
HETATM   29  O   UNL     1      20.851  46.381  48.682  1.00  0.00    -0.259 OA
BRANCH  28  30
HETATM   30  O   UNL     1      22.103  46.651  46.791  1.00  0.00    -0.318 OA
BRANCH  30  31
HETATM   31  C   UNL     1      20.984  46.375  45.935  1.00  0.00     0.174 C 
HETATM   32  C   UNL     1      21.405  45.509  44.761  1.00  0.00     0.034 C 
ENDBRANCH  30  31
ENDBRANCH  28  30
ENDBRANCH   1  28
TORSDOF 7
ENDMDL
MODEL 4
REMARK VINA RESULT:      -8.4      6.222     10.207
REMARK  7 active torsions:
REMARK  status: ('A' for Active; 'I' for Inactive)
REMARK    1  A    between atoms: C_2  and  O_3 
REMARK    2  A    between atoms: O_3  and  C_4 
REMARK    3  A    between atoms: C_4  and  C_5 
REMARK    4  A    between atoms: C_6  and  C_7 
REMARK    5  A    between atoms: C_18  and  S_19 
REMARK    6  A    between atoms: S_19  and  C_20 
REMARK    7  A    between atoms: C_20  and  C_21 
ROOT
HETATM    1  C   UNL     1      23.245  48.463  48.628  1.00  0.00     0.070 C 
HETATM    2  C   UNL     1      21.991  48.613  47.763  1.00  0.00     0.203 C 
HETATM    3  N   UNL     1      21.462  47.302  47.376  1.00  0.00    -0.082 N 
HETATM    4  C   UNL     1      21.818  46.130  47.980  1.00  0.00     0.726 A 
HETATM    5  N   UNL     1      22.735  46.156  48.967  1.00  0.00    -0.192 N 
HETATM    6  N   UNL     1      20.634  47.091  46.339  1.00  0.00    -0.128 NA
HETATM    7  C   UNL     1      20.481  45.763  46.406  1.00  0.00     0.226 A 
HETATM    8  N   UNL     1      21.181  45.138  47.411  1.00  0.00    -0.035 NA
HETATM    9  C   UNL     1      23.527  47.277  49.231  1.00  0.00     0.037 C 
HETATM   10  C   UNL     1      24.654  47.048  50.208  1.00  0.00     0.070 C 
HETATM   11  H   UNL     1      23.061  45.266  49.339  1.00  0.00     0.184 HD
ENDROOT
BRANCH   7  12
HETATM   12  S   UNL     1      19.486  44.931  45.248  1.00  0.00    -0.083 SA
BRANCH  12  13
HETATM   13  C   UNL     1      18.038  44.546  46.268  1.00  0.00     0.123 C 
BRANCH  13  14
HETATM   14  C   UNL     1      17.418  45.805  46.830  1.00  0.00    -0.027 A 
HETATM   15  C   UNL     1      16.811  46.781  46.022  1.00  0.00     0.041 A 
HETATM   16 CL   UNL     1      16.689  46.611  44.307  1.00  0.00    -0.084 Cl
HETATM   17  C   UNL     1      16.280  47.945  46.591  1.00  0.00     0.024 A 
HETATM   18  C   UNL     1      16.355  48.154  47.968  1.00  0.00     0.002 A 
HETATM   19  C   UNL     1      16.960  47.199  48.780  1.00  0.00     0.001 A 
HETATM   20  C   UNL     1      17.488  46.037  48.217  1.00  0.00     0.009 A 
ENDBRANCH  13  14
ENDBRANCH  12  13
ENDBRANCH   7  12
BRANCH   2  21
HETATM   21  C   UNL     1      20.890  49.418  48.457  1.00  0.00    -0.026 A 
HETATM   22  C   UNL     1      20.263  48.898  49.602  1.00  0.00     0.033 A 
HETATM   23  C   UNL     1      19.243  49.611  50.234  1.00  0.00     0.034 A 
HETATM   24 CL   UNL     1      18.480  48.954  51.630  1.00  0.00    -0.084 Cl
HETATM   25  C   UNL     1      18.833  50.847  49.743  1.00  0.00     0.024 A 
HETATM   26  C   UNL     1      19.449  51.380  48.612  1.00  0.00     0.002 A 
HETATM   27  C   UNL     1      20.470  50.672  47.972  1.00  0.00     0.010 A 
ENDBRANCH   2  21
BRANCH   1  28
HETATM   28  C   UNL     1      24.071  49.699  48.645  1.00  0.00     0.293 C 
HETATM   29  O   UNL     1      23.857  50.627  49.410  1.00  0.00    -0.259 OA
BRANCH  28  30
HETATM   30  O   UNL     1      24.987  49.713  47.649  1.00  0.00    -0.318 OA
BRANCH  30  31
HETATM   31  C   UNL     1      26.283  50.226  47.995  1.00  0.00     0.174 C 
HETATM   32  C   UNL     1      27.083  49.192  48.766  1.00  0.00     0.034 C 
ENDBRANCH  30  31
ENDBRANCH  28  30
ENDBRANCH   1  28
TORSDOF 7
ENDMDL
MODEL 5
REMARK VINA RESULT:      -8.4      3.560      8.567
REMARK  7 active torsions:
REMARK  status: ('A' for Active; 'I' for Inactive)
REMARK    1  A    between atoms: C_2  and  O_3 
REMARK    2  A    between atoms: O_3  and  C_4 
REMARK    3  A    between atoms: C_4  and  C_5 
REMARK    4  A    between atoms: C_6  and  C_7 
REMARK    5  A    between atoms: C_18  and  S_19 
REMARK    6  A    between atoms: S_19  and  C_20 
REMARK    7  A    between atoms: C_20  and  C_21 
ROOT
HETATM    1  C   UNL     1      25.596  43.005  49.496  1.00  0.00     0.070 C 
HETATM    2  C   UNL     1      25.946  44.381  50.069  1.00  0.00     0.203 C 
HETATM    3  N   UNL     1      24.919  45.367  49.725  1.00  0.00    -0.082 N 
HETATM    4  C   UNL     1      23.673  45.041  49.269  1.00  0.00     0.726 A 
HETATM    5  N   UNL     1      23.364  43.743  49.086  1.00  0.00    -0.192 N 
HETATM    6  N   UNL     1      25.107  46.698  49.738  1.00  0.00    -0.128 NA
HETATM    7  C   UNL     1      23.905  47.125  49.332  1.00  0.00     0.226 A 
HETATM    8  N   UNL     1      22.992  46.137  49.048  1.00  0.00    -0.035 NA
HETATM    9  C   UNL     1      24.328  42.731  49.090  1.00  0.00     0.037 C 
HETATM   10  C   UNL     1      23.836  41.378  48.636  1.00  0.00     0.070 C 
HETATM   11  H   UNL     1      22.469  43.522  48.654  1.00  0.00     0.184 HD
ENDROOT
BRANCH   7  12
HETATM   12  S   UNL     1      23.590  48.825  49.150  1.00  0.00    -0.083 SA
BRANCH  12  13
HETATM   13  C   UNL     1      22.215  48.784  47.969  1.00  0.00     0.123 C 
BRANCH  13  14
HETATM   14  C   UNL     1      21.068  49.649  48.437  1.00  0.00    -0.027 A 
HETATM   15  C   UNL     1      19.886  49.120  48.981  1.00  0.00     0.041 A 
HETATM   16 CL   UNL     1      19.652  47.421  49.195  1.00  0.00    -0.084 Cl
HETATM   17  C   UNL     1      18.840  49.966  49.370  1.00  0.00     0.024 A 
HETATM   18  C   UNL     1      18.956  51.347  49.214  1.00  0.00     0.002 A 
HETATM   19  C   UNL     1      20.118  51.886  48.669  1.00  0.00     0.001 A 
HETATM   20  C   UNL     1      21.163  51.046  48.283  1.00  0.00     0.009 A 
ENDBRANCH  13  14
ENDBRANCH  12  13
ENDBRANCH   7  12
BRANCH   2  21
HETATM   21  C   UNL     1      26.134  44.354  51.588  1.00  0.00    -0.026 A 
HETATM   22  C   UNL     1      27.430  44.297  52.129  1.00  0.00     0.033 A 
HETATM   23  C   UNL     1      27.617  44.250  53.511  1.00  0.00     0.034 A 
HETATM   24 CL   UNL     1      29.211  44.171  54.155  1.00  0.00    -0.084 Cl
HETATM   25  C   UNL     1      26.525  44.262  54.375  1.00  0.00     0.024 A 
HETATM   26  C   UNL     1      25.233  44.324  53.855  1.00  0.00     0.002 A 
HETATM   27  C   UNL     1      25.037  44.370  52.472  1.00  0.00     0.010 A 
ENDBRANCH   2  21
BRANCH   1  28
HETATM   28  C   UNL     1      26.784  42.115  49.399  1.00  0.00     0.293 C 
HETATM   29  O   UNL     1      27.530  42.110  48.431  1.00  0.00    -0.259 OA
BRANCH  28  30
HETATM   30  O   UNL     1      26.860  41.252  50.438  1.00  0.00    -0.318 OA
BRANCH  30  31
HETATM   31  C   UNL     1      28.161  40.712  50.714  1.00  0.00     0.174 C 
HETATM   32  C   UNL     1      28.530  40.913  52.172  1.00  0.00     0.034 C 
ENDBRANCH  30  31
ENDBRANCH  28  30
ENDBRANCH   1  28
TORSDOF 7
ENDMDL
MODEL 6
REMARK VINA RESULT:      -8.3      4.026      6.503
REMARK  7 active torsions:
REMARK  status: ('A' for Active; 'I' for Inactive)
REMARK    1  A    between atoms: C_2  and  O_3 
REMARK    2  A    between atoms: O_3  and  C_4 
REMARK    3  A    between atoms: C_4  and  C_5 
REMARK    4  A    between atoms: C_6  and  C_7 
REMARK    5  A    between atoms: C_18  and  S_19 
REMARK    6  A    between atoms: S_19  and  C_20 
REMARK    7  A    between atoms: C_20  and  C_21 
ROOT
HETATM    1  C   UNL     1      26.217  45.384  52.852  1.00  0.00     0.070 C 
HETATM    2  C   UNL     1      26.654  45.451  51.386  1.00  0.00     0.203 C 
HETATM    3  N   UNL     1      26.468  44.157  50.724  1.00  0.00    -0.082 N 
HETATM    4  C   UNL     1      25.698  43.148  51.230  1.00  0.00     0.726 A 
HETATM    5  N   UNL     1      25.095  43.321  52.423  1.00  0.00    -0.192 N 
HETATM    6  N   UNL     1      27.091  43.783  49.594  1.00  0.00    -0.128 NA
HETATM    7  C   UNL     1      26.605  42.545  49.437  1.00  0.00     0.226 A 
HETATM    8  N   UNL     1      25.734  42.125  50.414  1.00  0.00    -0.035 NA
HETATM    9  C   UNL     1      25.421  44.371  53.286  1.00  0.00     0.037 C 
HETATM   10  C   UNL     1      24.820  44.271  54.667  1.00  0.00     0.070 C 
HETATM   11  H   UNL     1      24.607  42.526  52.829  1.00  0.00     0.184 HD
ENDROOT
BRANCH   7  12
HETATM   12  S   UNL     1      27.111  41.565  48.093  1.00  0.00    -0.083 SA
BRANCH  12  13
HETATM   13  C   UNL     1      26.757  39.908  48.739  1.00  0.00     0.123 C 
BRANCH  13  14
HETATM   14  C   UNL     1      27.995  39.282  49.339  1.00  0.00    -0.027 A 
HETATM   15  C   UNL     1      28.814  38.385  48.633  1.00  0.00     0.041 A 
HETATM   16 CL   UNL     1      28.495  37.943  46.994  1.00  0.00    -0.084 Cl
HETATM   17  C   UNL     1      29.932  37.808  49.248  1.00  0.00     0.024 A 
HETATM   18  C   UNL     1      30.242  38.111  50.573  1.00  0.00     0.002 A 
HETATM   19  C   UNL     1      29.435  38.992  51.288  1.00  0.00     0.001 A 
HETATM   20  C   UNL     1      28.322  39.571  50.678  1.00  0.00     0.009 A 
ENDBRANCH  13  14
ENDBRANCH  12  13
ENDBRANCH   7  12
BRANCH   2  21
HETATM   21  C   UNL     1      25.911  46.533  50.599  1.00  0.00    -0.026 A 
HETATM   22  C   UNL     1      26.633  47.578  49.998  1.00  0.00     0.033 A 
HETATM   23  C   UNL     1      25.968  48.584  49.296  1.00  0.00     0.034 A 
HETATM   24 CL   UNL     1      26.869  49.861  48.574  1.00  0.00    -0.084 Cl
HETATM   25  C   UNL     1      24.581  48.568  49.178  1.00  0.00     0.024 A 
HETATM   26  C   UNL     1      23.850  47.536  49.764  1.00  0.00     0.002 A 
HETATM   27  C   UNL     1      24.508  46.526  50.470  1.00  0.00     0.010 A 
ENDBRANCH   2  21
BRANCH   1  28
HETATM   28  C   UNL     1      26.809  46.476  53.668  1.00  0.00     0.293 C 
HETATM   29  O   UNL     1      26.274  47.566  53.803  1.00  0.00    -0.259 OA
BRANCH  28  30
HETATM   30  O   UNL     1      28.041  46.156  54.129  1.00  0.00    -0.318 OA
BRANCH  30  31
HETATM   31  C   UNL     1      28.118  45.793  55.516  1.00  0.00     0.174 C 
HETATM   32  C   UNL     1      29.561  45.586  55.939  1.00  0.00     0.034 C 
ENDBRANCH  30  31
ENDBRANCH  28  30
ENDBRANCH   1  28
TORSDOF 7
ENDMDL
MODEL 7
REMARK VINA RESULT:      -8.3     12.946     15.298
REMARK  7 active torsions:
REMARK  status: ('A' for Active; 'I' for Inactive)
REMARK    1  A    between atoms: C_2  and  O_3 
REMARK    2  A    between atoms: O_3  and  C_4 
REMARK    3  A    between atoms: C_4  and  C_5 
REMARK    4  A    between atoms: C_6  and  C_7 
REMARK    5  A    between atoms: C_18  and  S_19 
REMARK    6  A    between atoms: S_19  and  C_20 
REMARK    7  A    between atoms: C_20  and  C_21 
ROOT
HETATM    1  C   UNL     1      33.644  50.941  40.288  1.00  0.00     0.070 C 
HETATM    2  C   UNL     1      32.340  50.616  39.554  1.00  0.00     0.203 C 
HETATM    3  N   UNL     1      31.882  49.262  39.874  1.00  0.00    -0.082 N 
HETATM    4  C   UNL     1      32.348  48.531  40.931  1.00  0.00     0.726 A 
HETATM    5  N   UNL     1      33.310  49.056  41.715  1.00  0.00    -0.192 N 
HETATM    6  N   UNL     1      31.019  48.553  39.127  1.00  0.00    -0.128 NA
HETATM    7  C   UNL     1      30.960  47.412  39.825  1.00  0.00     0.226 A 
HETATM    8  N   UNL     1      31.752  47.366  40.948  1.00  0.00    -0.035 NA
HETATM    9  C   UNL     1      34.036  50.196  41.356  1.00  0.00     0.037 C 
HETATM   10  C   UNL     1      35.224  50.499  42.236  1.00  0.00     0.070 C 
HETATM   11  H   UNL     1      33.714  48.463  42.436  1.00  0.00     0.184 HD
ENDROOT
BRANCH   7  12
HETATM   12  S   UNL     1      29.967  46.094  39.277  1.00  0.00    -0.083 SA
BRANCH  12  13
HETATM   13  C   UNL     1      28.400  46.496  40.095  1.00  0.00     0.123 C 
BRANCH  13  14
HETATM   14  C   UNL     1      27.881  47.843  39.645  1.00  0.00    -0.027 A 
HETATM   15  C   UNL     1      27.902  48.982  40.467  1.00  0.00     0.041 A 
HETATM   16 CL   UNL     1      28.560  48.951  42.064  1.00  0.00    -0.084 Cl
HETATM   17  C   UNL     1      27.378  50.198  40.011  1.00  0.00     0.024 A 
HETATM   18  C   UNL     1      26.820  50.291  38.737  1.00  0.00     0.002 A 
HETATM   19  C   UNL     1      26.785  49.169  37.914  1.00  0.00     0.001 A 
HETATM   20  C   UNL     1      27.308  47.956  38.363  1.00  0.00     0.009 A 
ENDBRANCH  13  14
ENDBRANCH  12  13
ENDBRANCH   7  12
BRANCH   2  21
HETATM   21  C   UNL     1      31.224  51.615  39.869  1.00  0.00    -0.026 A 
HETATM   22  C   UNL     1      30.414  52.105  38.830  1.00  0.00     0.033 A 
HETATM   23  C   UNL     1      29.406  53.032  39.097  1.00  0.00     0.034 A 
HETATM   24 CL   UNL     1      28.430  53.628  37.810  1.00  0.00    -0.084 Cl
HETATM   25  C   UNL     1      29.186  53.485  40.395  1.00  0.00     0.024 A 
HETATM   26  C   UNL     1      29.977  53.006  41.437  1.00  0.00     0.002 A 
HETATM   27  C   UNL     1      30.988  52.078  41.178  1.00  0.00     0.010 A 
ENDBRANCH   2  21
BRANCH   1  28
HETATM   28  C   UNL     1      34.383  52.065  39.656  1.00  0.00     0.293 C 
HETATM   29  O   UNL     1      34.158  53.237  39.920  1.00  0.00    -0.259 OA
BRANCH  28  30
HETATM   30  O   UNL     1      35.228  51.639  38.688  1.00  0.00    -0.318 OA
BRANCH  30  31
HETATM   31  C   UNL     1      36.621  51.911  38.906  1.00  0.00     0.174 C 
HETATM   32  C   UNL     1      37.467  50.698  38.566  1.00  0.00     0.034 C 
ENDBRANCH  30  31
ENDBRANCH  28  30
ENDBRANCH   1  28
TORSDOF 7
ENDMDL
MODEL 8
REMARK VINA RESULT:      -8.2      1.923      2.565
REMARK  7 active torsions:
REMARK  status: ('A' for Active; 'I' for Inactive)
REMARK    1  A    between atoms: C_2  and  O_3 
REMARK    2  A    between atoms: O_3  and  C_4 
REMARK    3  A    between atoms: C_4  and  C_5 
REMARK    4  A    between atoms: C_6  and  C_7 
REMARK    5  A    between atoms: C_18  and  S_19 
REMARK    6  A    between atoms: S_19  and  C_20 
REMARK    7  A    between atoms: C_20  and  C_21 
ROOT
HETATM    1  C   UNL     1      23.215  45.731  48.943  1.00  0.00     0.070 C 
HETATM    2  C   UNL     1      23.478  46.864  49.939  1.00  0.00     0.203 C 
HETATM    3  N   UNL     1      24.672  46.587  50.742  1.00  0.00    -0.082 N 
HETATM    4  C   UNL     1      25.606  45.644  50.417  1.00  0.00     0.726 A 
HETATM    5  N   UNL     1      25.417  44.890  49.316  1.00  0.00    -0.192 N 
HETATM    6  N   UNL     1      24.946  47.165  51.924  1.00  0.00    -0.128 NA
HETATM    7  C   UNL     1      26.101  46.564  52.236  1.00  0.00     0.226 A 
HETATM    8  N   UNL     1      26.546  45.633  51.327  1.00  0.00    -0.035 NA
HETATM    9  C   UNL     1      24.197  44.843  48.635  1.00  0.00     0.037 C 
HETATM   10  C   UNL     1      24.098  43.773  47.575  1.00  0.00     0.070 C 
HETATM   11  H   UNL     1      26.069  44.128  49.143  1.00  0.00     0.184 HD
ENDROOT
BRANCH   7  12
HETATM   12  S   UNL     1      26.915  46.941  53.725  1.00  0.00    -0.083 SA
BRANCH  12  13
HETATM   13  C   UNL     1      26.761  45.359  54.598  1.00  0.00     0.123 C 
BRANCH  13  14
HETATM   14  C   UNL     1      28.101  44.668  54.713  1.00  0.00    -0.027 A 
HETATM   15  C   UNL     1      29.062  45.025  55.673  1.00  0.00     0.041 A 
HETATM   16 CL   UNL     1      28.782  46.270  56.838  1.00  0.00    -0.084 Cl
HETATM   17  C   UNL     1      30.301  44.373  55.715  1.00  0.00     0.024 A 
HETATM   18  C   UNL     1      30.599  43.367  54.797  1.00  0.00     0.002 A 
HETATM   19  C   UNL     1      29.660  43.009  53.835  1.00  0.00     0.001 A 
HETATM   20  C   UNL     1      28.424  43.653  53.792  1.00  0.00     0.009 A 
ENDBRANCH  13  14
ENDBRANCH  12  13
ENDBRANCH   7  12
BRANCH   2  21
HETATM   21  C   UNL     1      23.632  48.225  49.255  1.00  0.00    -0.026 A 
HETATM   22  C   UNL     1      22.523  49.081  49.149  1.00  0.00     0.033 A 
HETATM   23  C   UNL     1      22.641  50.315  48.510  1.00  0.00     0.034 A 
HETATM   24 CL   UNL     1      21.269  51.346  48.381  1.00  0.00    -0.084 Cl
HETATM   25  C   UNL     1      23.859  50.719  47.969  1.00  0.00     0.024 A 
HETATM   26  C   UNL     1      24.971  49.884  48.070  1.00  0.00     0.002 A 
HETATM   27  C   UNL     1      24.860  48.646  48.708  1.00  0.00     0.010 A 
ENDBRANCH   2  21
BRANCH   1  28
HETATM   28  C   UNL     1      21.808  45.721  48.460  1.00  0.00     0.293 C 
HETATM   29  O   UNL     1      20.905  45.163  49.064  1.00  0.00    -0.259 OA
BRANCH  28  30
HETATM   30  O   UNL     1      21.686  46.289  47.237  1.00  0.00    -0.318 OA
BRANCH  30  31
HETATM   31  C   UNL     1      20.418  46.902  46.954  1.00  0.00     0.174 C 
HETATM   32  C   UNL     1      19.959  46.564  45.547  1.00  0.00     0.034 C 
ENDBRANCH  30  31
ENDBRANCH  28  30
ENDBRANCH   1  28
TORSDOF 7
ENDMDL
MODEL 9
REMARK VINA RESULT:      -7.8     12.439     14.568
REMARK  7 active torsions:
REMARK  status: ('A' for Active; 'I' for Inactive)
REMARK    1  A    between atoms: C_2  and  O_3 
REMARK    2  A    between atoms: O_3  and  C_4 
REMARK    3  A    between atoms: C_4  and  C_5 
REMARK    4  A    between atoms: C_6  and  C_7 
REMARK    5  A    between atoms: C_18  and  S_19 
REMARK    6  A    between atoms: S_19  and  C_20 
REMARK    7  A    between atoms: C_20  and  C_21 
ROOT
HETATM    1  C   UNL     1      30.259  51.870  39.384  1.00  0.00     0.070 C 
HETATM    2  C   UNL     1      31.087  50.618  39.688  1.00  0.00     0.203 C 
HETATM    3  N   UNL     1      32.215  50.938  40.567  1.00  0.00    -0.082 N 
HETATM    4  C   UNL     1      32.314  52.093  41.289  1.00  0.00     0.726 A 
HETATM    5  N   UNL     1      31.344  53.021  41.171  1.00  0.00    -0.192 N 
HETATM    6  N   UNL     1      33.314  50.176  40.702  1.00  0.00    -0.128 NA
HETATM    7  C   UNL     1      34.020  50.906  41.574  1.00  0.00     0.226 A 
HETATM    8  N   UNL     1      33.431  52.085  41.969  1.00  0.00    -0.035 NA
HETATM    9  C   UNL     1      30.378  52.979  40.162  1.00  0.00     0.037 C 
HETATM   10  C   UNL     1      29.524  54.218  40.043  1.00  0.00     0.070 C 
HETATM   11  H   UNL     1      31.481  53.915  41.639  1.00  0.00     0.184 HD
ENDROOT
BRANCH   7  12
HETATM   12  S   UNL     1      35.589  50.374  42.102  1.00  0.00    -0.083 SA
BRANCH  12  13
HETATM   13  C   UNL     1      36.641  51.646  41.352  1.00  0.00     0.123 C 
BRANCH  13  14
HETATM   14  C   UNL     1      37.015  52.707  42.361  1.00  0.00    -0.027 A 
HETATM   15  C   UNL     1      37.726  53.869  42.018  1.00  0.00     0.041 A 
HETATM   16 CL   UNL     1      38.209  54.205  40.393  1.00  0.00    -0.084 Cl
HETATM   17  C   UNL     1      38.076  54.805  42.999  1.00  0.00     0.024 A 
HETATM   18  C   UNL     1      37.729  54.591  44.332  1.00  0.00     0.002 A 
HETATM   19  C   UNL     1      37.031  53.441  44.689  1.00  0.00     0.001 A 
HETATM   20  C   UNL     1      36.678  52.507  43.714  1.00  0.00     0.009 A 
ENDBRANCH  13  14
ENDBRANCH  12  13
ENDBRANCH   7  12
BRANCH   2  21
HETATM   21  C   UNL     1      30.253  49.501  40.320  1.00  0.00    -0.026 A 
HETATM   22  C   UNL     1      30.136  48.263  39.665  1.00  0.00     0.033 A 
HETATM   23  C   UNL     1      29.362  47.242  40.217  1.00  0.00     0.034 A 
HETATM   24 CL   UNL     1      29.222  45.736  39.395  1.00  0.00    -0.084 Cl
HETATM   25  C   UNL     1      28.696  47.432  41.425  1.00  0.00     0.024 A 
HETATM   26  C   UNL     1      28.805  48.652  42.090  1.00  0.00     0.002 A 
HETATM   27  C   UNL     1      29.578  49.680  41.543  1.00  0.00     0.010 A 
ENDBRANCH   2  21
BRANCH   1  28
HETATM   28  C   UNL     1      29.426  51.713  38.163  1.00  0.00     0.293 C 
HETATM   29  O   UNL     1      29.896  51.713  37.036  1.00  0.00    -0.259 OA
BRANCH  28  30
HETATM   30  O   UNL     1      28.103  51.692  38.449  1.00  0.00    -0.318 OA
BRANCH  30  31
HETATM   31  C   UNL     1      27.425  50.451  38.199  1.00  0.00     0.174 C 
HETATM   32  C   UNL     1      26.568  50.057  39.387  1.00  0.00     0.034 C 
ENDBRANCH  30  31
ENDBRANCH  28  30
ENDBRANCH   1  28
TORSDOF 7
ENDMDL
MODEL 10
REMARK VINA RESULT:      -7.8      4.721      6.622
REMARK  7 active torsions:
REMARK  status: ('A' for Active; 'I' for Inactive)
REMARK    1  A    between atoms: C_2  and  O_3 
REMARK    2  A    between atoms: O_3  and  C_4 
REMARK    3  A    between atoms: C_4  and  C_5 
REMARK    4  A    between atoms: C_6  and  C_7 
REMARK    5  A    between atoms: C_18  and  S_19 
REMARK    6  A    between atoms: S_19  and  C_20 
REMARK    7  A    between atoms: C_20  and  C_21 
ROOT
HETATM    1  C   UNL     1      27.761  38.442  49.499  1.00  0.00     0.070 C 
HETATM    2  C   UNL     1      26.747  39.548  49.191  1.00  0.00     0.203 C 
HETATM    3  N   UNL     1      26.851  40.638  50.163  1.00  0.00    -0.082 N 
HETATM    4  C   UNL     1      27.917  40.812  51.000  1.00  0.00     0.726 A 
HETATM    5  N   UNL     1      28.924  39.918  50.969  1.00  0.00    -0.192 N 
HETATM    6  N   UNL     1      25.884  41.541  50.402  1.00  0.00    -0.128 NA
HETATM    7  C   UNL     1      26.458  42.275  51.364  1.00  0.00     0.226 A 
HETATM    8  N   UNL     1      27.713  41.867  51.748  1.00  0.00    -0.035 NA
HETATM    9  C   UNL     1      28.820  38.688  50.314  1.00  0.00     0.037 C 
HETATM   10  C   UNL     1      29.950  37.724  50.582  1.00  0.00     0.070 C 
HETATM   11  H   UNL     1      29.662  40.007  51.664  1.00  0.00     0.184 HD
ENDROOT
BRANCH   7  12
HETATM   12  S   UNL     1      25.607  43.615  52.074  1.00  0.00    -0.083 SA
BRANCH  12  13
HETATM   13  C   UNL     1      26.874  44.907  51.966  1.00  0.00     0.123 C 
BRANCH  13  14
HETATM   14  C   UNL     1      27.446  45.224  53.328  1.00  0.00    -0.027 A 
HETATM   15  C   UNL     1      27.010  46.311  54.105  1.00  0.00     0.041 A 
HETATM   16 CL   UNL     1      25.748  47.368  53.580  1.00  0.00    -0.084 Cl
HETATM   17  C   UNL     1      27.597  46.579  55.347  1.00  0.00     0.024 A 
HETATM   18  C   UNL     1      28.630  45.774  55.826  1.00  0.00     0.002 A 
HETATM   19  C   UNL     1      29.078  44.699  55.066  1.00  0.00     0.001 A 
HETATM   20  C   UNL     1      28.494  44.426  53.828  1.00  0.00     0.009 A 
ENDBRANCH  13  14
ENDBRANCH  12  13
ENDBRANCH   7  12
BRANCH   2  21
HETATM   21  C   UNL     1      26.904  40.112  47.777  1.00  0.00    -0.026 A 
HETATM   22  C   UNL     1      25.790  40.173  46.923  1.00  0.00     0.033 A 
HETATM   23  C   UNL     1      25.921  40.665  45.624  1.00  0.00     0.034 A 
HETATM   24 CL   UNL     1      24.548  40.723  44.589  1.00  0.00    -0.084 Cl
HETATM   25  C   UNL     1      27.156  41.106  45.155  1.00  0.00     0.024 A 
HETATM   26  C   UNL     1      28.270  41.058  45.991  1.00  0.00     0.002 A 
HETATM   27  C   UNL     1      28.147  40.565  47.293  1.00  0.00     0.010 A 
ENDBRANCH   2  21
BRANCH   1  28
HETATM   28  C   UNL     1      27.391  37.146  48.869  1.00  0.00     0.293 C 
HETATM   29  O   UNL     1      26.640  36.343  49.401  1.00  0.00    -0.259 OA
BRANCH  28  30
HETATM   30  O   UNL     1      28.071  36.926  47.720  1.00  0.00    -0.318 OA
BRANCH  30  31
HETATM   31  C   UNL     1      27.272  36.636  46.563  1.00  0.00     0.174 C 
HETATM   32  C   UNL     1      27.814  37.353  45.340  1.00  0.00     0.034 C 
ENDBRANCH  30  31
ENDBRANCH  28  30
ENDBRANCH   1  28
TORSDOF 7
ENDMDL
