MODEL 1
REMARK VINA RESULT:      -8.3      0.000      0.000
REMARK  4 active torsions:
REMARK  status: ('A' for Active; 'I' for Inactive)
REMARK    1  A    between atoms: C_9  and  C_10 
REMARK    2  A    between atoms: C_20  and  C_21 
REMARK       I    between atoms: C_21  and  N_22 
REMARK    3  A    between atoms: N_22  and  C_23 
REMARK    4  A    between atoms: C_24  and  O_25 
ROOT
HETATM    1  C   UNL     1      19.006  46.553  46.895  1.00  0.00     0.070 C 
HETATM    2  C   UNL     1      19.643  47.605  47.773  1.00  0.00     0.037 A 
HETATM    3  N   UNL     1      18.867  48.733  48.010  1.00  0.00    -0.192 N 
HETATM    4  C   UNL     1      19.258  49.757  48.788  1.00  0.00     0.725 A 
HETATM    5  N   UNL     1      20.494  49.718  49.372  1.00  0.00    -0.084 N 
HETATM    6  N   UNL     1      20.657  50.748  50.231  1.00  0.00    -0.149 NA
HETATM    7  C   UNL     1      19.525  51.428  50.017  1.00  0.00     0.275 A 
HETATM    8  N   UNL     1      18.636  50.849  49.150  1.00  0.00    -0.054 NA
HETATM    9  C   UNL     1      21.433  48.598  49.235  1.00  0.00     0.203 A 
HETATM   10  C   UNL     1      20.876  47.494  48.333  1.00  0.00     0.062 A 
HETATM   11  H   UNL     1      17.951  48.777  47.571  1.00  0.00     0.184 HD
ENDROOT
BRANCH  10  12
HETATM   12  C   UNL     1      21.758  46.335  47.980  1.00  0.00     0.256 C 
HETATM   13  N   UNL     1      21.807  45.341  48.935  1.00  0.00    -0.321 N 
HETATM   14  H   UNL     1      21.455  45.553  49.857  1.00  0.00     0.169 HD
HETATM   15  O   UNL     1      22.407  46.387  46.943  1.00  0.00    -0.267 OA
BRANCH  13  16
HETATM   16  C   UNL     1      22.536  44.128  48.860  1.00  0.00     0.068 A 
HETATM   17  C   UNL     1      22.297  43.071  47.969  1.00  0.00     0.095 A 
HETATM   18  C   UNL     1      23.133  41.947  47.955  1.00  0.00     0.039 A 
HETATM   19  C   UNL     1      24.176  41.833  48.869  1.00  0.00     0.003 A 
HETATM   20  C   UNL     1      24.388  42.844  49.801  1.00  0.00     0.002 A 
HETATM   21  C   UNL     1      23.571  43.979  49.800  1.00  0.00     0.032 A 
BRANCH  17  22
HETATM   22  O   UNL     1      21.248  43.039  47.089  1.00  0.00    -0.354 OA
HETATM   23  C   UNL     1      21.599  42.306  45.917  1.00  0.00     0.210 C 
ENDBRANCH  17  22
ENDBRANCH  13  16
ENDBRANCH  10  12
BRANCH   9  24
HETATM   24  C   UNL     1      22.817  49.114  48.825  1.00  0.00    -0.017 A 
HETATM   25  C   UNL     1      24.022  48.563  49.366  1.00  0.00    -0.017 A 
HETATM   26  C   UNL     1      25.266  49.049  48.883  1.00  0.00    -0.025 A 
HETATM   27  C   UNL     1      24.075  47.564  50.372  1.00  0.00     0.013 A 
HETATM   28  C   UNL     1      26.474  48.522  49.370  1.00  0.00     0.012 A 
HETATM   29  C   UNL     1      25.300  50.068  47.923  1.00  0.00     0.012 A 
HETATM   30  C   UNL     1      26.485  47.528  50.344  1.00  0.00     0.001 A 
HETATM   31  C   UNL     1      25.285  47.054  50.850  1.00  0.00     0.001 A 
HETATM   32  C   UNL     1      24.127  50.630  47.435  1.00  0.00     0.002 A 
HETATM   33  C   UNL     1      22.898  50.165  47.886  1.00  0.00     0.010 A 
ENDBRANCH   9  24
TORSDOF 4
ENDMDL
MODEL 2
REMARK VINA RESULT:      -8.0      2.211      7.254
REMARK  4 active torsions:
REMARK  status: ('A' for Active; 'I' for Inactive)
REMARK    1  A    between atoms: C_9  and  C_10 
REMARK    2  A    between atoms: C_20  and  C_21 
REMARK       I    between atoms: C_21  and  N_22 
REMARK    3  A    between atoms: N_22  and  C_23 
REMARK    4  A    between atoms: C_24  and  O_25 
ROOT
HETATM    1  C   UNL     1      25.134  48.239  49.626  1.00  0.00     0.070 C 
HETATM    2  C   UNL     1      24.500  46.871  49.515  1.00  0.00     0.037 A 
HETATM    3  N   UNL     1      25.306  45.808  49.902  1.00  0.00    -0.192 N 
HETATM    4  C   UNL     1      24.903  44.526  49.897  1.00  0.00     0.725 A 
HETATM    5  N   UNL     1      23.638  44.226  49.471  1.00  0.00    -0.084 N 
HETATM    6  N   UNL     1      23.354  42.920  49.675  1.00  0.00    -0.149 NA
HETATM    7  C   UNL     1      24.539  42.477  50.112  1.00  0.00     0.275 A 
HETATM    8  N   UNL     1      25.510  43.430  50.274  1.00  0.00    -0.054 NA
HETATM    9  C   UNL     1      22.656  45.228  49.041  1.00  0.00     0.203 A 
HETATM   10  C   UNL     1      23.228  46.647  49.094  1.00  0.00     0.062 A 
HETATM   11  H   UNL     1      26.252  46.019  50.209  1.00  0.00     0.184 HD
ENDROOT
BRANCH  10  12
HETATM   12  C   UNL     1      22.403  47.780  48.566  1.00  0.00     0.256 C 
HETATM   13  N   UNL     1      21.582  48.376  49.501  1.00  0.00    -0.321 N 
HETATM   14  H   UNL     1      21.424  47.890  50.370  1.00  0.00     0.169 HD
HETATM   15  O   UNL     1      22.455  48.036  47.369  1.00  0.00    -0.267 OA
BRANCH  13  16
HETATM   16  C   UNL     1      20.714  49.477  49.289  1.00  0.00     0.068 A 
HETATM   17  C   UNL     1      19.337  49.510  49.558  1.00  0.00     0.095 A 
HETATM   18  C   UNL     1      18.601  50.685  49.362  1.00  0.00     0.039 A 
HETATM   19  C   UNL     1      19.211  51.820  48.836  1.00  0.00     0.003 A 
HETATM   20  C   UNL     1      20.561  51.784  48.504  1.00  0.00     0.002 A 
HETATM   21  C   UNL     1      21.305  50.620  48.724  1.00  0.00     0.032 A 
BRANCH  17  22
HETATM   22  O   UNL     1      18.620  48.428  49.994  1.00  0.00    -0.354 OA
HETATM   23  C   UNL     1      18.491  48.451  51.414  1.00  0.00     0.210 C 
ENDBRANCH  17  22
ENDBRANCH  13  16
ENDBRANCH  10  12
BRANCH   9  24
HETATM   24  C   UNL     1      22.058  44.836  47.686  1.00  0.00    -0.017 A 
HETATM   25  C   UNL     1      20.654  44.933  47.419  1.00  0.00    -0.017 A 
HETATM   26  C   UNL     1      20.189  44.617  46.115  1.00  0.00    -0.025 A 
HETATM   27  C   UNL     1      19.675  45.314  48.372  1.00  0.00     0.013 A 
HETATM   28  C   UNL     1      18.822  44.720  45.803  1.00  0.00     0.012 A 
HETATM   29  C   UNL     1      21.086  44.189  45.130  1.00  0.00     0.012 A 
HETATM   30  C   UNL     1      17.893  45.114  46.761  1.00  0.00     0.001 A 
HETATM   31  C   UNL     1      18.318  45.405  48.047  1.00  0.00     0.001 A 
HETATM   32  C   UNL     1      22.441  44.053  45.408  1.00  0.00     0.002 A 
HETATM   33  C   UNL     1      22.921  44.365  46.673  1.00  0.00     0.010 A 
ENDBRANCH   9  24
TORSDOF 4
ENDMDL
MODEL 3
REMARK VINA RESULT:      -7.9      5.994      8.815
REMARK  4 active torsions:
REMARK  status: ('A' for Active; 'I' for Inactive)
REMARK    1  A    between atoms: C_9  and  C_10 
REMARK    2  A    between atoms: C_20  and  C_21 
REMARK       I    between atoms: C_21  and  N_22 
REMARK    3  A    between atoms: N_22  and  C_23 
REMARK    4  A    between atoms: C_24  and  O_25 
ROOT
HETATM    1  C   UNL     1      14.201  54.957  45.371  1.00  0.00     0.070 C 
HETATM    2  C   UNL     1      14.484  54.212  46.655  1.00  0.00     0.037 A 
HETATM    3  N   UNL     1      14.136  54.882  47.822  1.00  0.00    -0.192 N 
HETATM    4  C   UNL     1      14.289  54.364  49.053  1.00  0.00     0.725 A 
HETATM    5  N   UNL     1      14.833  53.117  49.190  1.00  0.00    -0.084 N 
HETATM    6  N   UNL     1      14.772  52.699  50.473  1.00  0.00    -0.149 NA
HETATM    7  C   UNL     1      14.289  53.797  51.066  1.00  0.00     0.275 A 
HETATM    8  N   UNL     1      13.969  54.835  50.230  1.00  0.00    -0.054 NA
HETATM    9  C   UNL     1      15.243  52.271  48.062  1.00  0.00     0.203 A 
HETATM   10  C   UNL     1      15.018  52.964  46.717  1.00  0.00     0.062 A 
HETATM   11  H   UNL     1      13.741  55.815  47.731  1.00  0.00     0.184 HD
ENDROOT
BRANCH  10  12
HETATM   12  C   UNL     1      15.501  52.293  45.467  1.00  0.00     0.256 C 
HETATM   13  N   UNL     1      16.693  52.785  44.977  1.00  0.00    -0.321 N 
HETATM   14  H   UNL     1      17.023  53.668  45.335  1.00  0.00     0.169 HD
HETATM   15  O   UNL     1      14.790  51.443  44.946  1.00  0.00    -0.267 OA
BRANCH  13  16
HETATM   16  C   UNL     1      17.390  52.329  43.830  1.00  0.00     0.068 A 
HETATM   17  C   UNL     1      18.179  51.171  43.746  1.00  0.00     0.095 A 
HETATM   18  C   UNL     1      18.767  50.798  42.531  1.00  0.00     0.039 A 
HETATM   19  C   UNL     1      18.632  51.603  41.404  1.00  0.00     0.003 A 
HETATM   20  C   UNL     1      17.907  52.787  41.488  1.00  0.00     0.002 A 
HETATM   21  C   UNL     1      17.296  53.149  42.693  1.00  0.00     0.032 A 
BRANCH  17  22
HETATM   22  O   UNL     1      18.450  50.355  44.811  1.00  0.00    -0.354 OA
HETATM   23  C   UNL     1      17.680  49.157  44.733  1.00  0.00     0.210 C 
ENDBRANCH  17  22
ENDBRANCH  13  16
ENDBRANCH  10  12
BRANCH   9  24
HETATM   24  C   UNL     1      16.669  51.754  48.279  1.00  0.00    -0.017 A 
HETATM   25  C   UNL     1      16.978  50.356  48.276  1.00  0.00    -0.017 A 
HETATM   26  C   UNL     1      18.335  49.962  48.413  1.00  0.00    -0.025 A 
HETATM   27  C   UNL     1      16.020  49.317  48.158  1.00  0.00     0.013 A 
HETATM   28  C   UNL     1      18.687  48.601  48.394  1.00  0.00     0.012 A 
HETATM   29  C   UNL     1      19.337  50.926  48.581  1.00  0.00     0.012 A 
HETATM   30  C   UNL     1      17.720  47.610  48.258  1.00  0.00     0.001 A 
HETATM   31  C   UNL     1      16.386  47.967  48.146  1.00  0.00     0.001 A 
HETATM   32  C   UNL     1      19.025  52.279  48.629  1.00  0.00     0.002 A 
HETATM   33  C   UNL     1      17.706  52.690  48.487  1.00  0.00     0.010 A 
ENDBRANCH   9  24
TORSDOF 4
ENDMDL
MODEL 4
REMARK VINA RESULT:      -7.6     21.363     24.089
REMARK  4 active torsions:
REMARK  status: ('A' for Active; 'I' for Inactive)
REMARK    1  A    between atoms: C_9  and  C_10 
REMARK    2  A    between atoms: C_20  and  C_21 
REMARK       I    between atoms: C_21  and  N_22 
REMARK    3  A    between atoms: N_22  and  C_23 
REMARK    4  A    between atoms: C_24  and  O_25 
ROOT
HETATM    1  C   UNL     1      39.007  41.488  63.371  1.00  0.00     0.070 C 
HETATM    2  C   UNL     1      38.149  42.338  64.280  1.00  0.00     0.037 A 
HETATM    3  N   UNL     1      36.901  41.808  64.587  1.00  0.00    -0.192 N 
HETATM    4  C   UNL     1      36.016  42.409  65.400  1.00  0.00     0.725 A 
HETATM    5  N   UNL     1      36.331  43.620  65.952  1.00  0.00    -0.084 N 
HETATM    6  N   UNL     1      35.399  43.999  66.853  1.00  0.00    -0.149 NA
HETATM    7  C   UNL     1      34.495  43.025  66.697  1.00  0.00     0.275 A 
HETATM    8  N   UNL     1      34.840  42.025  65.826  1.00  0.00    -0.054 NA
HETATM    9  C   UNL     1      37.609  44.311  65.742  1.00  0.00     0.203 A 
HETATM   10  C   UNL     1      38.533  43.531  64.804  1.00  0.00     0.062 A 
HETATM   11  H   UNL     1      36.652  40.914  64.171  1.00  0.00     0.184 HD
ENDROOT
BRANCH  10  12
HETATM   12  C   UNL     1      39.827  44.155  64.378  1.00  0.00     0.256 C 
HETATM   13  N   UNL     1      40.737  44.337  65.398  1.00  0.00    -0.321 N 
HETATM   14  H   UNL     1      40.406  44.262  66.348  1.00  0.00     0.169 HD
HETATM   15  O   UNL     1      39.948  44.516  63.215  1.00  0.00    -0.267 OA
BRANCH  13  16
HETATM   16  C   UNL     1      42.042  44.881  65.283  1.00  0.00     0.068 A 
HETATM   17  C   UNL     1      42.360  46.203  64.935  1.00  0.00     0.095 A 
HETATM   18  C   UNL     1      43.692  46.634  64.918  1.00  0.00     0.039 A 
HETATM   19  C   UNL     1      44.726  45.740  65.182  1.00  0.00     0.003 A 
HETATM   20  C   UNL     1      44.430  44.411  65.467  1.00  0.00     0.002 A 
HETATM   21  C   UNL     1      43.099  43.984  65.511  1.00  0.00     0.032 A 
BRANCH  17  22
HETATM   22  O   UNL     1      41.430  47.140  64.572  1.00  0.00    -0.354 OA
HETATM   23  C   UNL     1      41.106  47.980  65.678  1.00  0.00     0.210 C 
ENDBRANCH  17  22
ENDBRANCH  13  16
ENDBRANCH  10  12
BRANCH   9  24
HETATM   24  C   UNL     1      37.361  45.765  65.323  1.00  0.00    -0.017 A 
HETATM   25  C   UNL     1      37.591  46.861  66.216  1.00  0.00    -0.017 A 
HETATM   26  C   UNL     1      37.405  48.181  65.729  1.00  0.00    -0.025 A 
HETATM   27  C   UNL     1      37.983  46.730  67.573  1.00  0.00     0.013 A 
HETATM   28  C   UNL     1      37.640  49.287  66.564  1.00  0.00     0.012 A 
HETATM   29  C   UNL     1      36.975  48.395  64.414  1.00  0.00     0.012 A 
HETATM   30  C   UNL     1      38.041  49.119  67.885  1.00  0.00     0.001 A 
HETATM   31  C   UNL     1      38.207  47.840  68.392  1.00  0.00     0.001 A 
HETATM   32  C   UNL     1      36.710  47.326  63.567  1.00  0.00     0.002 A 
HETATM   33  C   UNL     1      36.893  46.025  64.017  1.00  0.00     0.010 A 
ENDBRANCH   9  24
TORSDOF 4
ENDMDL
MODEL 5
REMARK VINA RESULT:      -7.6      2.864      6.424
REMARK  4 active torsions:
REMARK  status: ('A' for Active; 'I' for Inactive)
REMARK    1  A    between atoms: C_9  and  C_10 
REMARK    2  A    between atoms: C_20  and  C_21 
REMARK       I    between atoms: C_21  and  N_22 
REMARK    3  A    between atoms: N_22  and  C_23 
REMARK    4  A    between atoms: C_24  and  O_25 
ROOT
HETATM    1  C   UNL     1      21.474  44.978  48.685  1.00  0.00     0.070 C 
HETATM    2  C   UNL     1      21.601  46.471  48.490  1.00  0.00     0.037 A 
HETATM    3  N   UNL     1      22.782  47.034  48.956  1.00  0.00    -0.192 N 
HETATM    4  C   UNL     1      23.081  48.340  48.844  1.00  0.00     0.725 A 
HETATM    5  N   UNL     1      22.178  49.183  48.259  1.00  0.00    -0.084 N 
HETATM    6  N   UNL     1      22.702  50.418  48.096  1.00  0.00    -0.149 NA
HETATM    7  C   UNL     1      23.878  50.270  48.717  1.00  0.00     0.275 A 
HETATM    8  N   UNL     1      24.154  49.009  49.178  1.00  0.00    -0.054 NA
HETATM    9  C   UNL     1      20.890  48.751  47.703  1.00  0.00     0.203 A 
HETATM   10  C   UNL     1      20.665  47.249  47.886  1.00  0.00     0.062 A 
HETATM   11  H   UNL     1      23.456  46.417  49.404  1.00  0.00     0.184 HD
ENDROOT
BRANCH  10  12
HETATM   12  C   UNL     1      19.344  46.661  47.492  1.00  0.00     0.256 C 
HETATM   13  N   UNL     1      19.196  46.441  46.138  1.00  0.00    -0.321 N 
HETATM   14  H   UNL     1      19.854  46.881  45.513  1.00  0.00     0.169 HD
HETATM   15  O   UNL     1      18.493  46.498  48.357  1.00  0.00    -0.267 OA
BRANCH  13  16
HETATM   16  C   UNL     1      18.068  45.879  45.488  1.00  0.00     0.068 A 
HETATM   17  C   UNL     1      16.925  46.574  45.066  1.00  0.00     0.095 A 
HETATM   18  C   UNL     1      15.902  45.910  44.376  1.00  0.00     0.039 A 
HETATM   19  C   UNL     1      15.976  44.537  44.156  1.00  0.00     0.003 A 
HETATM   20  C   UNL     1      17.074  43.823  44.625  1.00  0.00     0.002 A 
HETATM   21  C   UNL     1      18.108  44.488  45.290  1.00  0.00     0.032 A 
BRANCH  17  22
HETATM   22  O   UNL     1      16.709  47.904  45.306  1.00  0.00    -0.354 OA
HETATM   23  C   UNL     1      15.916  48.080  46.479  1.00  0.00     0.210 C 
ENDBRANCH  17  22
ENDBRANCH  13  16
ENDBRANCH  10  12
BRANCH   9  24
HETATM   24  C   UNL     1      19.757  49.632  48.242  1.00  0.00    -0.017 A 
HETATM   25  C   UNL     1      18.882  50.360  47.373  1.00  0.00    -0.017 A 
HETATM   26  C   UNL     1      17.815  51.097  47.949  1.00  0.00    -0.025 A 
HETATM   27  C   UNL     1      19.007  50.413  45.961  1.00  0.00     0.013 A 
HETATM   28  C   UNL     1      16.919  51.808  47.132  1.00  0.00     0.012 A 
HETATM   29  C   UNL     1      17.650  51.132  49.339  1.00  0.00     0.012 A 
HETATM   30  C   UNL     1      17.063  51.822  45.748  1.00  0.00     0.001 A 
HETATM   31  C   UNL     1      18.111  51.130  45.163  1.00  0.00     0.001 A 
HETATM   32  C   UNL     1      18.530  50.462  50.180  1.00  0.00     0.002 A 
HETATM   33  C   UNL     1      19.577  49.726  49.639  1.00  0.00     0.010 A 
ENDBRANCH   9  24
TORSDOF 4
ENDMDL
MODEL 6
REMARK VINA RESULT:      -7.6     21.840     23.951
REMARK  4 active torsions:
REMARK  status: ('A' for Active; 'I' for Inactive)
REMARK    1  A    between atoms: C_9  and  C_10 
REMARK    2  A    between atoms: C_20  and  C_21 
REMARK       I    between atoms: C_21  and  N_22 
REMARK    3  A    between atoms: N_22  and  C_23 
REMARK    4  A    between atoms: C_24  and  O_25 
ROOT
HETATM    1  C   UNL     1      39.273  42.379  63.044  1.00  0.00     0.070 C 
HETATM    2  C   UNL     1      39.841  43.677  63.569  1.00  0.00     0.037 A 
HETATM    3  N   UNL     1      41.221  43.807  63.469  1.00  0.00    -0.192 N 
HETATM    4  C   UNL     1      41.897  44.902  63.858  1.00  0.00     0.725 A 
HETATM    5  N   UNL     1      41.211  45.951  64.405  1.00  0.00    -0.084 N 
HETATM    6  N   UNL     1      42.022  47.014  64.595  1.00  0.00    -0.149 NA
HETATM    7  C   UNL     1      43.203  46.487  64.254  1.00  0.00     0.275 A 
HETATM    8  N   UNL     1      43.169  45.200  63.785  1.00  0.00    -0.054 NA
HETATM    9  C   UNL     1      39.753  45.982  64.571  1.00  0.00     0.203 A 
HETATM   10  C   UNL     1      39.096  44.686  64.090  1.00  0.00     0.062 A 
HETATM   11  H   UNL     1      41.742  43.028  63.075  1.00  0.00     0.184 HD
ENDROOT
BRANCH  10  12
HETATM   12  C   UNL     1      37.625  44.497  64.306  1.00  0.00     0.256 C 
HETATM   13  N   UNL     1      37.304  43.619  65.320  1.00  0.00    -0.321 N 
HETATM   14  H   UNL     1      38.032  43.017  65.673  1.00  0.00     0.169 HD
HETATM   15  O   UNL     1      36.844  45.053  63.544  1.00  0.00    -0.267 OA
BRANCH  13  16
HETATM   16  C   UNL     1      36.001  43.266  65.756  1.00  0.00     0.068 A 
HETATM   17  C   UNL     1      35.222  43.969  66.687  1.00  0.00     0.095 A 
HETATM   18  C   UNL     1      33.920  43.549  66.987  1.00  0.00     0.039 A 
HETATM   19  C   UNL     1      33.403  42.391  66.414  1.00  0.00     0.003 A 
HETATM   20  C   UNL     1      34.187  41.648  65.538  1.00  0.00     0.002 A 
HETATM   21  C   UNL     1      35.477  42.080  65.216  1.00  0.00     0.032 A 
BRANCH  17  22
HETATM   22  O   UNL     1      35.661  45.069  67.374  1.00  0.00    -0.354 OA
HETATM   23  C   UNL     1      35.640  44.824  68.779  1.00  0.00     0.210 C 
ENDBRANCH  17  22
ENDBRANCH  13  16
ENDBRANCH  10  12
BRANCH   9  24
HETATM   24  C   UNL     1      39.392  46.381  66.006  1.00  0.00    -0.017 A 
HETATM   25  C   UNL     1      38.756  47.628  66.310  1.00  0.00    -0.017 A 
HETATM   26  C   UNL     1      38.391  47.892  67.656  1.00  0.00    -0.025 A 
HETATM   27  C   UNL     1      38.469  48.641  65.359  1.00  0.00     0.013 A 
HETATM   28  C   UNL     1      37.746  49.093  67.996  1.00  0.00     0.012 A 
HETATM   29  C   UNL     1      38.681  46.962  68.661  1.00  0.00     0.012 A 
HETATM   30  C   UNL     1      37.464  50.057  67.032  1.00  0.00     0.001 A 
HETATM   31  C   UNL     1      37.831  49.834  65.715  1.00  0.00     0.001 A 
HETATM   32  C   UNL     1      39.339  45.774  68.367  1.00  0.00     0.002 A 
HETATM   33  C   UNL     1      39.698  45.489  67.056  1.00  0.00     0.010 A 
ENDBRANCH   9  24
TORSDOF 4
ENDMDL
MODEL 7
REMARK VINA RESULT:      -7.5      9.623     11.667
REMARK  4 active torsions:
REMARK  status: ('A' for Active; 'I' for Inactive)
REMARK    1  A    between atoms: C_9  and  C_10 
REMARK    2  A    between atoms: C_20  and  C_21 
REMARK       I    between atoms: C_21  and  N_22 
REMARK    3  A    between atoms: N_22  and  C_23 
REMARK    4  A    between atoms: C_24  and  O_25 
ROOT
HETATM    1  C   UNL     1      28.317  52.329  38.828  1.00  0.00     0.070 C 
HETATM    2  C   UNL     1      28.782  51.200  39.718  1.00  0.00     0.037 A 
HETATM    3  N   UNL     1      29.934  51.454  40.451  1.00  0.00    -0.192 N 
HETATM    4  C   UNL     1      30.478  50.579  41.313  1.00  0.00     0.725 A 
HETATM    5  N   UNL     1      29.892  49.354  41.480  1.00  0.00    -0.084 N 
HETATM    6  N   UNL     1      30.478  48.669  42.486  1.00  0.00    -0.149 NA
HETATM    7  C   UNL     1      31.485  49.496  42.793  1.00  0.00     0.275 A 
HETATM    8  N   UNL     1      31.513  50.682  42.107  1.00  0.00    -0.054 NA
HETATM    9  C   UNL     1      28.666  48.929  40.794  1.00  0.00     0.203 A 
HETATM   10  C   UNL     1      28.141  50.008  39.844  1.00  0.00     0.062 A 
HETATM   11  H   UNL     1      30.385  52.358  40.325  1.00  0.00     0.184 HD
ENDROOT
BRANCH  10  12
HETATM   12  C   UNL     1      26.968  49.692  38.966  1.00  0.00     0.256 C 
HETATM   13  N   UNL     1      25.816  49.358  39.647  1.00  0.00    -0.321 N 
HETATM   14  H   UNL     1      25.894  49.132  40.627  1.00  0.00     0.169 HD
HETATM   15  O   UNL     1      27.133  49.676  37.753  1.00  0.00    -0.267 OA
BRANCH  13  16
HETATM   16  C   UNL     1      24.558  49.035  39.078  1.00  0.00     0.068 A 
HETATM   17  C   UNL     1      24.132  47.758  38.683  1.00  0.00     0.095 A 
HETATM   18  C   UNL     1      22.836  47.561  38.190  1.00  0.00     0.039 A 
HETATM   19  C   UNL     1      21.972  48.640  38.025  1.00  0.00     0.003 A 
HETATM   20  C   UNL     1      22.403  49.921  38.353  1.00  0.00     0.002 A 
HETATM   21  C   UNL     1      23.687  50.118  38.870  1.00  0.00     0.032 A 
BRANCH  17  22
HETATM   22  O   UNL     1      24.926  46.644  38.721  1.00  0.00    -0.354 OA
HETATM   23  C   UNL     1      25.596  46.463  37.475  1.00  0.00     0.210 C 
ENDBRANCH  17  22
ENDBRANCH  13  16
ENDBRANCH  10  12
BRANCH   9  24
HETATM   24  C   UNL     1      28.872  47.557  40.142  1.00  0.00    -0.017 A 
HETATM   25  C   UNL     1      28.059  46.428  40.480  1.00  0.00    -0.017 A 
HETATM   26  C   UNL     1      28.268  45.210  39.780  1.00  0.00    -0.025 A 
HETATM   27  C   UNL     1      27.055  46.425  41.482  1.00  0.00     0.013 A 
HETATM   28  C   UNL     1      27.479  44.082  40.064  1.00  0.00     0.012 A 
HETATM   29  C   UNL     1      29.271  45.117  38.808  1.00  0.00     0.012 A 
HETATM   30  C   UNL     1      26.490  44.123  41.042  1.00  0.00     0.001 A 
HETATM   31  C   UNL     1      26.282  45.293  41.756  1.00  0.00     0.001 A 
HETATM   32  C   UNL     1      30.087  46.204  38.518  1.00  0.00     0.002 A 
HETATM   33  C   UNL     1      29.896  47.409  39.182  1.00  0.00     0.010 A 
ENDBRANCH   9  24
TORSDOF 4
ENDMDL
MODEL 8
REMARK VINA RESULT:      -7.5      4.219      8.262
REMARK  4 active torsions:
REMARK  status: ('A' for Active; 'I' for Inactive)
REMARK    1  A    between atoms: C_9  and  C_10 
REMARK    2  A    between atoms: C_20  and  C_21 
REMARK       I    between atoms: C_21  and  N_22 
REMARK    3  A    between atoms: N_22  and  C_23 
REMARK    4  A    between atoms: C_24  and  O_25 
ROOT
HETATM    1  C   UNL     1      14.508  48.722  46.254  1.00  0.00     0.070 C 
HETATM    2  C   UNL     1      15.901  48.246  46.598  1.00  0.00     0.037 A 
HETATM    3  N   UNL     1      16.085  46.869  46.568  1.00  0.00    -0.192 N 
HETATM    4  C   UNL     1      17.260  46.268  46.818  1.00  0.00     0.725 A 
HETATM    5  N   UNL     1      18.346  47.034  47.142  1.00  0.00    -0.084 N 
HETATM    6  N   UNL     1      19.467  46.283  47.211  1.00  0.00    -0.149 NA
HETATM    7  C   UNL     1      18.953  45.059  47.037  1.00  0.00     0.275 A 
HETATM    8  N   UNL     1      17.608  45.008  46.781  1.00  0.00    -0.054 NA
HETATM    9  C   UNL     1      18.328  48.501  47.205  1.00  0.00     0.203 A 
HETATM   10  C   UNL     1      16.941  49.068  46.898  1.00  0.00     0.062 A 
HETATM   11  H   UNL     1      15.280  46.290  46.341  1.00  0.00     0.184 HD
ENDROOT
BRANCH  10  12
HETATM   12  C   UNL     1      16.712  50.542  47.045  1.00  0.00     0.256 C 
HETATM   13  N   UNL     1      15.906  50.893  48.108  1.00  0.00    -0.321 N 
HETATM   14  H   UNL     1      15.363  50.167  48.550  1.00  0.00     0.169 HD
HETATM   15  O   UNL     1      17.176  51.294  46.198  1.00  0.00    -0.267 OA
BRANCH  13  16
HETATM   16  C   UNL     1      15.540  52.206  48.497  1.00  0.00     0.068 A 
HETATM   17  C   UNL     1      14.794  53.118  47.735  1.00  0.00     0.095 A 
HETATM   18  C   UNL     1      14.444  54.368  48.261  1.00  0.00     0.039 A 
HETATM   19  C   UNL     1      14.886  54.750  49.524  1.00  0.00     0.003 A 
HETATM   20  C   UNL     1      15.680  53.882  50.267  1.00  0.00     0.002 A 
HETATM   21  C   UNL     1      16.008  52.623  49.755  1.00  0.00     0.032 A 
BRANCH  17  22
HETATM   22  O   UNL     1      14.383  52.881  46.451  1.00  0.00    -0.354 OA
HETATM   23  C   UNL     1      13.552  53.943  45.986  1.00  0.00     0.210 C 
ENDBRANCH  17  22
ENDBRANCH  13  16
ENDBRANCH  10  12
BRANCH   9  24
HETATM   24  C   UNL     1      18.931  48.981  48.530  1.00  0.00    -0.017 A 
HETATM   25  C   UNL     1      20.184  49.673  48.586  1.00  0.00    -0.017 A 
HETATM   26  C   UNL     1      20.639  50.147  49.845  1.00  0.00    -0.025 A 
HETATM   27  C   UNL     1      21.025  49.914  47.470  1.00  0.00     0.013 A 
HETATM   28  C   UNL     1      21.852  50.849  49.944  1.00  0.00     0.012 A 
HETATM   29  C   UNL     1      19.889  49.908  51.003  1.00  0.00     0.012 A 
HETATM   30  C   UNL     1      22.642  51.083  48.823  1.00  0.00     0.001 A 
HETATM   31  C   UNL     1      22.232  50.610  47.586  1.00  0.00     0.001 A 
HETATM   32  C   UNL     1      18.697  49.197  50.947  1.00  0.00     0.002 A 
HETATM   33  C   UNL     1      18.226  48.731  49.727  1.00  0.00     0.010 A 
ENDBRANCH   9  24
TORSDOF 4
ENDMDL
MODEL 9
REMARK VINA RESULT:      -7.4      2.804      6.421
REMARK  4 active torsions:
REMARK  status: ('A' for Active; 'I' for Inactive)
REMARK    1  A    between atoms: C_9  and  C_10 
REMARK    2  A    between atoms: C_20  and  C_21 
REMARK       I    between atoms: C_21  and  N_22 
REMARK    3  A    between atoms: N_22  and  C_23 
REMARK    4  A    between atoms: C_24  and  O_25 
ROOT
HETATM    1  C   UNL     1      19.743  45.031  46.207  1.00  0.00     0.070 C 
HETATM    2  C   UNL     1      18.557  45.966  46.151  1.00  0.00     0.037 A 
HETATM    3  N   UNL     1      17.561  45.612  45.248  1.00  0.00    -0.192 N 
HETATM    4  C   UNL     1      16.423  46.308  45.083  1.00  0.00     0.725 A 
HETATM    5  N   UNL     1      16.221  47.443  45.819  1.00  0.00    -0.084 N 
HETATM    6  N   UNL     1      14.972  47.924  45.636  1.00  0.00    -0.149 NA
HETATM    7  C   UNL     1      14.527  47.096  44.684  1.00  0.00     0.275 A 
HETATM    8  N   UNL     1      15.380  46.085  44.326  1.00  0.00    -0.054 NA
HETATM    9  C   UNL     1      17.164  47.949  46.824  1.00  0.00     0.203 A 
HETATM   10  C   UNL     1      18.415  47.074  46.925  1.00  0.00     0.062 A 
HETATM   11  H   UNL     1      17.707  44.777  44.687  1.00  0.00     0.184 HD
ENDROOT
BRANCH  10  12
HETATM   12  C   UNL     1      19.540  47.517  47.810  1.00  0.00     0.256 C 
HETATM   13  N   UNL     1      20.462  48.339  47.196  1.00  0.00    -0.321 N 
HETATM   14  H   UNL     1      20.450  48.395  46.189  1.00  0.00     0.169 HD
HETATM   15  O   UNL     1      19.600  47.072  48.949  1.00  0.00    -0.267 OA
BRANCH  13  16
HETATM   16  C   UNL     1      21.608  48.923  47.793  1.00  0.00     0.068 A 
HETATM   17  C   UNL     1      22.731  48.234  48.277  1.00  0.00     0.095 A 
HETATM   18  C   UNL     1      23.830  48.935  48.790  1.00  0.00     0.039 A 
HETATM   19  C   UNL     1      23.799  50.323  48.886  1.00  0.00     0.003 A 
HETATM   20  C   UNL     1      22.667  51.016  48.468  1.00  0.00     0.002 A 
HETATM   21  C   UNL     1      21.579  50.321  47.932  1.00  0.00     0.032 A 
BRANCH  17  22
HETATM   22  O   UNL     1      22.831  46.869  48.313  1.00  0.00    -0.354 OA
HETATM   23  C   UNL     1      23.737  46.459  49.334  1.00  0.00     0.210 C 
ENDBRANCH  17  22
ENDBRANCH  13  16
ENDBRANCH  10  12
BRANCH   9  24
HETATM   24  C   UNL     1      17.448  49.436  46.583  1.00  0.00    -0.017 A 
HETATM   25  C   UNL     1      17.706  50.343  47.659  1.00  0.00    -0.017 A 
HETATM   26  C   UNL     1      18.030  51.690  47.347  1.00  0.00    -0.025 A 
HETATM   27  C   UNL     1      17.651  50.002  49.035  1.00  0.00     0.013 A 
HETATM   28  C   UNL     1      18.312  52.610  48.371  1.00  0.00     0.012 A 
HETATM   29  C   UNL     1      18.060  52.118  46.014  1.00  0.00     0.012 A 
HETATM   30  C   UNL     1      18.266  52.233  49.710  1.00  0.00     0.001 A 
HETATM   31  C   UNL     1      17.929  50.931  50.043  1.00  0.00     0.001 A 
HETATM   32  C   UNL     1      17.763  51.243  44.976  1.00  0.00     0.002 A 
HETATM   33  C   UNL     1      17.453  49.919  45.256  1.00  0.00     0.010 A 
ENDBRANCH   9  24
TORSDOF 4
ENDMDL
MODEL 10
REMARK VINA RESULT:      -6.9      9.608     12.616
REMARK  4 active torsions:
REMARK  status: ('A' for Active; 'I' for Inactive)
REMARK    1  A    between atoms: C_9  and  C_10 
REMARK    2  A    between atoms: C_20  and  C_21 
REMARK       I    between atoms: C_21  and  N_22 
REMARK    3  A    between atoms: N_22  and  C_23 
REMARK    4  A    between atoms: C_24  and  O_25 
ROOT
HETATM    1  C   UNL     1      31.386  47.194  40.086  1.00  0.00     0.070 C 
HETATM    2  C   UNL     1      29.957  46.753  39.868  1.00  0.00     0.037 A 
HETATM    3  N   UNL     1      29.802  45.532  39.225  1.00  0.00    -0.192 N 
HETATM    4  C   UNL     1      28.609  44.969  38.971  1.00  0.00     0.725 A 
HETATM    5  N   UNL     1      27.468  45.627  39.341  1.00  0.00    -0.084 N 
HETATM    6  N   UNL     1      26.377  44.853  39.148  1.00  0.00    -0.149 NA
HETATM    7  C   UNL     1      26.931  43.794  38.547  1.00  0.00     0.275 A 
HETATM    8  N   UNL     1      28.296  43.819  38.431  1.00  0.00    -0.054 NA
HETATM    9  C   UNL     1      27.453  46.918  40.039  1.00  0.00     0.203 A 
HETATM   10  C   UNL     1      28.867  47.455  40.275  1.00  0.00     0.062 A 
HETATM   11  H   UNL     1      30.644  45.040  38.935  1.00  0.00     0.184 HD
ENDROOT
BRANCH  10  12
HETATM   12  C   UNL     1      29.033  48.824  40.861  1.00  0.00     0.256 C 
HETATM   13  N   UNL     1      29.674  49.726  40.037  1.00  0.00    -0.321 N 
HETATM   14  H   UNL     1      30.170  49.365  39.236  1.00  0.00     0.169 HD
HETATM   15  O   UNL     1      28.672  49.015  42.015  1.00  0.00    -0.267 OA
BRANCH  13  16
HETATM   16  C   UNL     1      29.947  51.088  40.320  1.00  0.00     0.068 A 
HETATM   17  C   UNL     1      31.068  51.583  41.003  1.00  0.00     0.095 A 
HETATM   18  C   UNL     1      31.252  52.962  41.164  1.00  0.00     0.039 A 
HETATM   19  C   UNL     1      30.293  53.860  40.704  1.00  0.00     0.003 A 
HETATM   20  C   UNL     1      29.145  53.381  40.080  1.00  0.00     0.002 A 
HETATM   21  C   UNL     1      28.971  52.006  39.895  1.00  0.00     0.032 A 
BRANCH  17  22
HETATM   22  O   UNL     1      32.026  50.788  41.572  1.00  0.00    -0.354 OA
HETATM   23  C   UNL     1      31.762  50.599  42.960  1.00  0.00     0.210 C 
ENDBRANCH  17  22
ENDBRANCH  13  16
ENDBRANCH  10  12
BRANCH   9  24
HETATM   24  C   UNL     1      26.514  47.896  39.325  1.00  0.00    -0.017 A 
HETATM   25  C   UNL     1      25.138  48.032  39.695  1.00  0.00    -0.017 A 
HETATM   26  C   UNL     1      24.352  49.011  39.031  1.00  0.00    -0.025 A 
HETATM   27  C   UNL     1      24.483  47.247  40.678  1.00  0.00     0.013 A 
HETATM   28  C   UNL     1      23.002  49.194  39.377  1.00  0.00     0.012 A 
HETATM   29  C   UNL     1      24.912  49.797  38.017  1.00  0.00     0.012 A 
HETATM   30  C   UNL     1      22.399  48.416  40.361  1.00  0.00     0.001 A 
HETATM   31  C   UNL     1      23.137  47.438  41.007  1.00  0.00     0.001 A 
HETATM   32  C   UNL     1      26.236  49.627  37.631  1.00  0.00     0.002 A 
HETATM   33  C   UNL     1      27.027  48.683  38.272  1.00  0.00     0.010 A 
ENDBRANCH   9  24
TORSDOF 4
ENDMDL
