MODEL 1
REMARK VINA RESULT:      -8.2      0.000      0.000
REMARK  8 active torsions:
REMARK  status: ('A' for Active; 'I' for Inactive)
REMARK    1  A    between atoms: C_2  and  C_3 
REMARK    2  A    between atoms: C_3  and  N_4 
REMARK    3  A    between atoms: N_4  and  C_5 
REMARK    4  A    between atoms: C_7  and  N_8 
REMARK    5  A    between atoms: N_8  and  C_9 
REMARK    6  A    between atoms: C_9  and  C_10 
REMARK    7  A    between atoms: C_10  and  C_11 
REMARK    8  A    between atoms: C_12  and  O_13 
ROOT
HETATM    1  C   UNL     1      26.629  43.861  53.607  1.00  0.00     0.119 A 
HETATM    2  N   UNL     1      25.674  43.833  52.657  1.00  0.00    -0.207 NA
HETATM    3  C   UNL     1      25.107  44.994  52.309  1.00  0.00     0.181 A 
HETATM    4  N   UNL     1      25.422  46.156  52.871  1.00  0.00    -0.330 N 
HETATM    5  H   UNL     1      24.881  46.963  52.593  1.00  0.00     0.168 HD
HETATM    6  C   UNL     1      26.384  46.244  53.794  1.00  0.00     0.048 A 
HETATM    7  C   UNL     1      27.049  45.071  54.201  1.00  0.00     0.031 A 
HETATM    8  C   UNL     1      26.722  47.490  54.343  1.00  0.00     0.030 A 
HETATM    9  C   UNL     1      27.738  47.585  55.293  1.00  0.00     0.002 A 
HETATM   10  C   UNL     1      28.418  46.440  55.698  1.00  0.00     0.001 A 
HETATM   11  C   UNL     1      28.082  45.197  55.160  1.00  0.00     0.017 A 
ENDROOT
BRANCH   3  12
HETATM   12  N   UNL     1      24.083  44.958  51.381  1.00  0.00    -0.262 NA
HETATM   13  H   UNL     1      23.794  43.975  51.324  1.00  0.00     0.130 HD
BRANCH  12  14
HETATM   14  C   UNL     1      24.337  45.533  50.054  1.00  0.00     0.100 C 
BRANCH  14  15
HETATM   15  C   UNL     1      24.045  47.039  50.000  1.00  0.00     0.056 C 
BRANCH  15  16
HETATM   16  C   UNL     1      25.134  47.981  49.521  1.00  0.00    -0.024 A 
HETATM   17  C   UNL     1      24.764  49.073  48.702  1.00  0.00     0.074 A 
HETATM   18  C   UNL     1      25.734  49.973  48.251  1.00  0.00     0.037 A 
HETATM   19  C   UNL     1      27.074  49.795  48.595  1.00  0.00     0.003 A 
HETATM   20  C   UNL     1      27.451  48.717  49.388  1.00  0.00     0.001 A 
HETATM   21  C   UNL     1      26.490  47.815  49.847  1.00  0.00     0.010 A 
BRANCH  17  22
HETATM   22  O   UNL     1      23.425  49.168  48.411  1.00  0.00    -0.355 OA
HETATM   23  C   UNL     1      23.001  50.309  47.672  1.00  0.00     0.210 C 
ENDBRANCH  17  22
ENDBRANCH  15  16
ENDBRANCH  14  15
ENDBRANCH  12  14
ENDBRANCH   3  12
BRANCH   1  24
HETATM   24  N   UNL     1      27.251  42.663  53.982  1.00  0.00    -0.277 NA
HETATM   25  H   UNL     1      26.608  42.071  54.506  1.00  0.00     0.129 HD
BRANCH  24  26
HETATM   26  C   UNL     1      27.925  41.909  52.924  1.00  0.00     0.093 C 
BRANCH  26  27
HETATM   27  C   UNL     1      29.175  42.660  52.461  1.00  0.00     0.010 C 
HETATM   28  C   UNL     1      30.235  42.773  53.548  1.00  0.00     0.006 C 
ENDBRANCH  26  27
ENDBRANCH  24  26
ENDBRANCH   1  24
TORSDOF 8
ENDMDL
MODEL 2
REMARK VINA RESULT:      -8.2      2.879      5.211
REMARK  8 active torsions:
REMARK  status: ('A' for Active; 'I' for Inactive)
REMARK    1  A    between atoms: C_2  and  C_3 
REMARK    2  A    between atoms: C_3  and  N_4 
REMARK    3  A    between atoms: N_4  and  C_5 
REMARK    4  A    between atoms: C_7  and  N_8 
REMARK    5  A    between atoms: N_8  and  C_9 
REMARK    6  A    between atoms: C_9  and  C_10 
REMARK    7  A    between atoms: C_10  and  C_11 
REMARK    8  A    between atoms: C_12  and  O_13 
ROOT
HETATM    1  C   UNL     1      28.730  45.619  55.131  1.00  0.00     0.119 A 
HETATM    2  N   UNL     1      28.418  45.005  53.973  1.00  0.00    -0.207 NA
HETATM    3  C   UNL     1      29.068  43.874  53.674  1.00  0.00     0.181 A 
HETATM    4  N   UNL     1      30.014  43.350  54.445  1.00  0.00    -0.330 N 
HETATM    5  H   UNL     1      30.498  42.537  54.092  1.00  0.00     0.168 HD
HETATM    6  C   UNL     1      30.338  43.902  55.618  1.00  0.00     0.048 A 
HETATM    7  C   UNL     1      29.684  45.082  56.022  1.00  0.00     0.031 A 
HETATM    8  C   UNL     1      31.314  43.306  56.431  1.00  0.00     0.030 A 
HETATM    9  C   UNL     1      31.640  43.870  57.663  1.00  0.00     0.002 A 
HETATM   10  C   UNL     1      30.995  45.028  58.088  1.00  0.00     0.001 A 
HETATM   11  C   UNL     1      30.028  45.630  57.281  1.00  0.00     0.017 A 
ENDROOT
BRANCH   3  12
HETATM   12  N   UNL     1      28.795  43.278  52.456  1.00  0.00    -0.262 NA
HETATM   13  H   UNL     1      28.695  44.048  51.785  1.00  0.00     0.130 HD
BRANCH  12  14
HETATM   14  C   UNL     1      27.666  42.340  52.387  1.00  0.00     0.100 C 
BRANCH  14  15
HETATM   15  C   UNL     1      26.638  42.736  51.319  1.00  0.00     0.056 C 
BRANCH  15  16
HETATM   16  C   UNL     1      26.350  44.208  51.087  1.00  0.00    -0.024 A 
HETATM   17  C   UNL     1      25.442  44.859  51.953  1.00  0.00     0.074 A 
HETATM   18  C   UNL     1      25.160  46.219  51.783  1.00  0.00     0.037 A 
HETATM   19  C   UNL     1      25.764  46.938  50.753  1.00  0.00     0.003 A 
HETATM   20  C   UNL     1      26.647  46.306  49.886  1.00  0.00     0.001 A 
HETATM   21  C   UNL     1      26.939  44.950  50.049  1.00  0.00     0.010 A 
BRANCH  17  22
HETATM   22  O   UNL     1      24.894  44.073  52.936  1.00  0.00    -0.355 OA
HETATM   23  C   UNL     1      25.086  44.490  54.283  1.00  0.00     0.210 C 
ENDBRANCH  17  22
ENDBRANCH  15  16
ENDBRANCH  14  15
ENDBRANCH  12  14
ENDBRANCH   3  12
BRANCH   1  24
HETATM   24  N   UNL     1      28.056  46.798  55.479  1.00  0.00    -0.277 NA
HETATM   25  H   UNL     1      28.653  47.403  56.040  1.00  0.00     0.129 HD
BRANCH  24  26
HETATM   26  C   UNL     1      27.421  47.542  54.389  1.00  0.00     0.093 C 
BRANCH  26  27
HETATM   27  C   UNL     1      26.117  48.175  54.879  1.00  0.00     0.010 C 
HETATM   28  C   UNL     1      26.234  48.768  56.276  1.00  0.00     0.006 C 
ENDBRANCH  26  27
ENDBRANCH  24  26
ENDBRANCH   1  24
TORSDOF 8
ENDMDL
MODEL 3
REMARK VINA RESULT:      -8.2      3.218      6.854
REMARK  8 active torsions:
REMARK  status: ('A' for Active; 'I' for Inactive)
REMARK    1  A    between atoms: C_2  and  C_3 
REMARK    2  A    between atoms: C_3  and  N_4 
REMARK    3  A    between atoms: N_4  and  C_5 
REMARK    4  A    between atoms: C_7  and  N_8 
REMARK    5  A    between atoms: N_8  and  C_9 
REMARK    6  A    between atoms: C_9  and  C_10 
REMARK    7  A    between atoms: C_10  and  C_11 
REMARK    8  A    between atoms: C_12  and  O_13 
ROOT
HETATM    1  C   UNL     1      26.931  43.467  50.479  1.00  0.00     0.119 A 
HETATM    2  N   UNL     1      27.279  42.718  51.544  1.00  0.00    -0.207 NA
HETATM    3  C   UNL     1      27.064  43.230  52.761  1.00  0.00     0.181 A 
HETATM    4  N   UNL     1      26.551  44.439  52.964  1.00  0.00    -0.330 N 
HETATM    5  H   UNL     1      26.501  44.763  53.920  1.00  0.00     0.168 HD
HETATM    6  C   UNL     1      26.159  45.208  51.944  1.00  0.00     0.048 A 
HETATM    7  C   UNL     1      26.328  44.735  50.628  1.00  0.00     0.031 A 
HETATM    8  C   UNL     1      25.586  46.464  52.189  1.00  0.00     0.030 A 
HETATM    9  C   UNL     1      25.160  47.259  51.126  1.00  0.00     0.002 A 
HETATM   10  C   UNL     1      25.303  46.804  49.818  1.00  0.00     0.001 A 
HETATM   11  C   UNL     1      25.879  45.557  49.568  1.00  0.00     0.017 A 
ENDROOT
BRANCH   3  12
HETATM   12  N   UNL     1      27.480  42.491  53.854  1.00  0.00    -0.262 NA
HETATM   13  H   UNL     1      27.244  43.055  54.678  1.00  0.00     0.130 HD
BRANCH  12  14
HETATM   14  C   UNL     1      28.876  42.034  53.883  1.00  0.00     0.100 C 
BRANCH  14  15
HETATM   15  C   UNL     1      29.874  43.198  53.943  1.00  0.00     0.056 C 
BRANCH  15  16
HETATM   16  C   UNL     1      30.231  43.791  55.294  1.00  0.00    -0.024 A 
HETATM   17  C   UNL     1      29.611  45.002  55.680  1.00  0.00     0.074 A 
HETATM   18  C   UNL     1      29.901  45.574  56.923  1.00  0.00     0.037 A 
HETATM   19  C   UNL     1      30.810  44.961  57.784  1.00  0.00     0.003 A 
HETATM   20  C   UNL     1      31.436  43.779  57.409  1.00  0.00     0.001 A 
HETATM   21  C   UNL     1      31.152  43.197  56.173  1.00  0.00     0.010 A 
BRANCH  17  22
HETATM   22  O   UNL     1      28.733  45.534  54.769  1.00  0.00    -0.355 OA
HETATM   23  C   UNL     1      28.173  46.807  55.075  1.00  0.00     0.210 C 
ENDBRANCH  17  22
ENDBRANCH  15  16
ENDBRANCH  14  15
ENDBRANCH  12  14
ENDBRANCH   3  12
BRANCH   1  24
HETATM   24  N   UNL     1      27.131  42.952  49.191  1.00  0.00    -0.277 NA
HETATM   25  H   UNL     1      27.935  43.392  48.747  1.00  0.00     0.129 HD
BRANCH  24  26
HETATM   26  C   UNL     1      27.187  41.494  49.064  1.00  0.00     0.093 C 
BRANCH  26  27
HETATM   27  C   UNL     1      27.547  41.108  47.627  1.00  0.00     0.010 C 
HETATM   28  C   UNL     1      27.795  39.615  47.460  1.00  0.00     0.006 C 
ENDBRANCH  26  27
ENDBRANCH  24  26
ENDBRANCH   1  24
TORSDOF 8
ENDMDL
MODEL 4
REMARK VINA RESULT:      -8.2      2.283      4.174
REMARK  8 active torsions:
REMARK  status: ('A' for Active; 'I' for Inactive)
REMARK    1  A    between atoms: C_2  and  C_3 
REMARK    2  A    between atoms: C_3  and  N_4 
REMARK    3  A    between atoms: N_4  and  C_5 
REMARK    4  A    between atoms: C_7  and  N_8 
REMARK    5  A    between atoms: N_8  and  C_9 
REMARK    6  A    between atoms: C_9  and  C_10 
REMARK    7  A    between atoms: C_10  and  C_11 
REMARK    8  A    between atoms: C_12  and  O_13 
ROOT
HETATM    1  C   UNL     1      29.320  44.299  54.493  1.00  0.00     0.119 A 
HETATM    2  N   UNL     1      28.440  45.284  54.224  1.00  0.00    -0.207 NA
HETATM    3  C   UNL     1      28.296  46.255  55.134  1.00  0.00     0.181 A 
HETATM    4  N   UNL     1      28.954  46.277  56.288  1.00  0.00    -0.330 N 
HETATM    5  H   UNL     1      28.717  47.012  56.939  1.00  0.00     0.168 HD
HETATM    6  C   UNL     1      29.861  45.343  56.588  1.00  0.00     0.048 A 
HETATM    7  C   UNL     1      30.093  44.296  55.674  1.00  0.00     0.031 A 
HETATM    8  C   UNL     1      30.569  45.412  57.798  1.00  0.00     0.030 A 
HETATM    9  C   UNL     1      31.528  44.448  58.104  1.00  0.00     0.002 A 
HETATM   10  C   UNL     1      31.784  43.414  57.207  1.00  0.00     0.001 A 
HETATM   11  C   UNL     1      31.077  43.336  56.006  1.00  0.00     0.017 A 
ENDROOT
BRANCH   3  12
HETATM   12  N   UNL     1      27.347  47.231  54.889  1.00  0.00    -0.262 NA
HETATM   13  H   UNL     1      27.301  47.795  55.745  1.00  0.00     0.130 HD
BRANCH  12  14
HETATM   14  C   UNL     1      26.016  46.800  54.444  1.00  0.00     0.100 C 
BRANCH  14  15
HETATM   15  C   UNL     1      25.718  47.213  52.996  1.00  0.00     0.056 C 
BRANCH  15  16
HETATM   16  C   UNL     1      25.256  46.156  52.011  1.00  0.00    -0.024 A 
HETATM   17  C   UNL     1      24.874  46.568  50.714  1.00  0.00     0.074 A 
HETATM   18  C   UNL     1      24.456  45.623  49.771  1.00  0.00     0.037 A 
HETATM   19  C   UNL     1      24.402  44.271  50.106  1.00  0.00     0.003 A 
HETATM   20  C   UNL     1      24.761  43.856  51.382  1.00  0.00     0.001 A 
HETATM   21  C   UNL     1      25.184  44.789  52.330  1.00  0.00     0.010 A 
BRANCH  17  22
HETATM   22  O   UNL     1      24.956  47.917  50.473  1.00  0.00    -0.355 OA
HETATM   23  C   UNL     1      25.875  48.343  49.473  1.00  0.00     0.210 C 
ENDBRANCH  17  22
ENDBRANCH  15  16
ENDBRANCH  14  15
ENDBRANCH  12  14
ENDBRANCH   3  12
BRANCH   1  24
HETATM   24  N   UNL     1      29.503  43.276  53.553  1.00  0.00    -0.277 NA
HETATM   25  H   UNL     1      29.466  42.363  54.001  1.00  0.00     0.129 HD
BRANCH  24  26
HETATM   26  C   UNL     1      28.656  43.316  52.359  1.00  0.00     0.093 C 
BRANCH  26  27
HETATM   27  C   UNL     1      27.959  41.967  52.167  1.00  0.00     0.010 C 
HETATM   28  C   UNL     1      28.255  40.983  53.290  1.00  0.00     0.006 C 
ENDBRANCH  26  27
ENDBRANCH  24  26
ENDBRANCH   1  24
TORSDOF 8
ENDMDL
MODEL 5
REMARK VINA RESULT:      -8.1      2.651      7.466
REMARK  8 active torsions:
REMARK  status: ('A' for Active; 'I' for Inactive)
REMARK    1  A    between atoms: C_2  and  C_3 
REMARK    2  A    between atoms: C_3  and  N_4 
REMARK    3  A    between atoms: N_4  and  C_5 
REMARK    4  A    between atoms: C_7  and  N_8 
REMARK    5  A    between atoms: N_8  and  C_9 
REMARK    6  A    between atoms: C_9  and  C_10 
REMARK    7  A    between atoms: C_10  and  C_11 
REMARK    8  A    between atoms: C_12  and  O_13 
ROOT
HETATM    1  C   UNL     1      25.625  47.139  51.201  1.00  0.00     0.119 A 
HETATM    2  N   UNL     1      25.859  47.493  52.480  1.00  0.00    -0.207 NA
HETATM    3  C   UNL     1      25.761  46.542  53.416  1.00  0.00     0.181 A 
HETATM    4  N   UNL     1      25.422  45.285  53.147  1.00  0.00    -0.330 N 
HETATM    5  H   UNL     1      25.300  44.663  53.934  1.00  0.00     0.168 HD
HETATM    6  C   UNL     1      25.212  44.876  51.894  1.00  0.00     0.048 A 
HETATM    7  C   UNL     1      25.318  45.808  50.843  1.00  0.00     0.031 A 
HETATM    8  C   UNL     1      24.893  43.534  51.635  1.00  0.00     0.030 A 
HETATM    9  C   UNL     1      24.691  43.102  50.325  1.00  0.00     0.002 A 
HETATM   10  C   UNL     1      24.807  44.003  49.271  1.00  0.00     0.001 A 
HETATM   11  C   UNL     1      25.117  45.341  49.523  1.00  0.00     0.017 A 
ENDROOT
BRANCH   3  12
HETATM   12  N   UNL     1      25.937  46.917  54.736  1.00  0.00    -0.262 NA
HETATM   13  H   UNL     1      25.407  47.788  54.850  1.00  0.00     0.130 HD
BRANCH  12  14
HETATM   14  C   UNL     1      27.312  47.041  55.238  1.00  0.00     0.100 C 
BRANCH  14  15
HETATM   15  C   UNL     1      28.252  45.983  54.644  1.00  0.00     0.056 C 
BRANCH  15  16
HETATM   16  C   UNL     1      29.273  45.318  55.548  1.00  0.00    -0.024 A 
HETATM   17  C   UNL     1      29.883  44.121  55.105  1.00  0.00     0.074 A 
HETATM   18  C   UNL     1      30.840  43.484  55.902  1.00  0.00     0.037 A 
HETATM   19  C   UNL     1      31.191  44.017  57.141  1.00  0.00     0.003 A 
HETATM   20  C   UNL     1      30.588  45.185  57.593  1.00  0.00     0.001 A 
HETATM   21  C   UNL     1      29.635  45.831  56.805  1.00  0.00     0.010 A 
BRANCH  17  22
HETATM   22  O   UNL     1      29.474  43.668  53.875  1.00  0.00    -0.355 OA
HETATM   23  C   UNL     1      30.306  42.714  53.226  1.00  0.00     0.210 C 
ENDBRANCH  17  22
ENDBRANCH  15  16
ENDBRANCH  14  15
ENDBRANCH  12  14
ENDBRANCH   3  12
BRANCH   1  24
HETATM   24  N   UNL     1      25.734  48.110  50.196  1.00  0.00    -0.277 NA
HETATM   25  H   UNL     1      25.361  49.002  50.515  1.00  0.00     0.129 HD
BRANCH  24  26
HETATM   26  C   UNL     1      27.051  48.275  49.577  1.00  0.00     0.093 C 
BRANCH  26  27
HETATM   27  C   UNL     1      27.110  49.603  48.820  1.00  0.00     0.010 C 
HETATM   28  C   UNL     1      25.828  49.907  48.056  1.00  0.00     0.006 C 
ENDBRANCH  26  27
ENDBRANCH  24  26
ENDBRANCH   1  24
TORSDOF 8
ENDMDL
MODEL 6
REMARK VINA RESULT:      -8.0      1.612      2.411
REMARK  8 active torsions:
REMARK  status: ('A' for Active; 'I' for Inactive)
REMARK    1  A    between atoms: C_2  and  C_3 
REMARK    2  A    between atoms: C_3  and  N_4 
REMARK    3  A    between atoms: N_4  and  C_5 
REMARK    4  A    between atoms: C_7  and  N_8 
REMARK    5  A    between atoms: N_8  and  C_9 
REMARK    6  A    between atoms: C_9  and  C_10 
REMARK    7  A    between atoms: C_10  and  C_11 
REMARK    8  A    between atoms: C_12  and  O_13 
ROOT
HETATM    1  C   UNL     1      27.576  42.984  53.549  1.00  0.00     0.119 A 
HETATM    2  N   UNL     1      26.528  43.726  53.141  1.00  0.00    -0.207 NA
HETATM    3  C   UNL     1      26.471  44.999  53.550  1.00  0.00     0.181 A 
HETATM    4  N   UNL     1      27.377  45.549  54.352  1.00  0.00    -0.330 N 
HETATM    5  H   UNL     1      27.201  46.494  54.665  1.00  0.00     0.168 HD
HETATM    6  C   UNL     1      28.450  44.867  54.758  1.00  0.00     0.048 A 
HETATM    7  C   UNL     1      28.602  43.526  54.354  1.00  0.00     0.031 A 
HETATM    8  C   UNL     1      29.411  45.485  55.573  1.00  0.00     0.030 A 
HETATM    9  C   UNL     1      30.541  44.779  55.983  1.00  0.00     0.002 A 
HETATM   10  C   UNL     1      30.718  43.458  55.581  1.00  0.00     0.001 A 
HETATM   11  C   UNL     1      29.762  42.836  54.776  1.00  0.00     0.017 A 
ENDROOT
BRANCH   3  12
HETATM   12  N   UNL     1      25.363  45.743  53.186  1.00  0.00    -0.262 NA
HETATM   13  H   UNL     1      24.735  45.090  52.705  1.00  0.00     0.130 HD
BRANCH  12  14
HETATM   14  C   UNL     1      25.584  46.967  52.405  1.00  0.00     0.100 C 
BRANCH  14  15
HETATM   15  C   UNL     1      25.448  46.734  50.895  1.00  0.00     0.056 C 
BRANCH  15  16
HETATM   16  C   UNL     1      25.763  47.874  49.944  1.00  0.00    -0.024 A 
HETATM   17  C   UNL     1      24.690  48.503  49.272  1.00  0.00     0.074 A 
HETATM   18  C   UNL     1      24.935  49.568  48.399  1.00  0.00     0.037 A 
HETATM   19  C   UNL     1      26.239  50.008  48.176  1.00  0.00     0.003 A 
HETATM   20  C   UNL     1      27.303  49.388  48.819  1.00  0.00     0.001 A 
HETATM   21  C   UNL     1      27.070  48.327  49.696  1.00  0.00     0.010 A 
BRANCH  17  22
HETATM   22  O   UNL     1      23.442  48.002  49.550  1.00  0.00    -0.355 OA
HETATM   23  C   UNL     1      22.324  48.790  49.155  1.00  0.00     0.210 C 
ENDBRANCH  17  22
ENDBRANCH  15  16
ENDBRANCH  14  15
ENDBRANCH  12  14
ENDBRANCH   3  12
BRANCH   1  24
HETATM   24  N   UNL     1      27.671  41.651  53.126  1.00  0.00    -0.277 NA
HETATM   25  H   UNL     1      26.761  41.195  53.162  1.00  0.00     0.129 HD
BRANCH  24  26
HETATM   26  C   UNL     1      28.334  41.411  51.843  1.00  0.00     0.093 C 
BRANCH  26  27
HETATM   27  C   UNL     1      27.358  40.752  50.865  1.00  0.00     0.010 C 
HETATM   28  C   UNL     1      26.532  41.763  50.082  1.00  0.00     0.006 C 
ENDBRANCH  26  27
ENDBRANCH  24  26
ENDBRANCH   1  24
TORSDOF 8
ENDMDL
MODEL 7
REMARK VINA RESULT:      -8.0      2.788      7.544
REMARK  8 active torsions:
REMARK  status: ('A' for Active; 'I' for Inactive)
REMARK    1  A    between atoms: C_2  and  C_3 
REMARK    2  A    between atoms: C_3  and  N_4 
REMARK    3  A    between atoms: N_4  and  C_5 
REMARK    4  A    between atoms: C_7  and  N_8 
REMARK    5  A    between atoms: N_8  and  C_9 
REMARK    6  A    between atoms: C_9  and  C_10 
REMARK    7  A    between atoms: C_10  and  C_11 
REMARK    8  A    between atoms: C_12  and  O_13 
ROOT
HETATM    1  C   UNL     1      26.224  45.289  50.420  1.00  0.00     0.119 A 
HETATM    2  N   UNL     1      26.820  45.108  51.616  1.00  0.00    -0.207 NA
HETATM    3  C   UNL     1      26.352  44.132  52.402  1.00  0.00     0.181 A 
HETATM    4  N   UNL     1      25.323  43.359  52.073  1.00  0.00    -0.330 N 
HETATM    5  H   UNL     1      24.998  42.703  52.769  1.00  0.00     0.168 HD
HETATM    6  C   UNL     1      24.718  43.476  50.887  1.00  0.00     0.048 A 
HETATM    7  C   UNL     1      25.164  44.463  49.987  1.00  0.00     0.031 A 
HETATM    8  C   UNL     1      23.658  42.621  50.550  1.00  0.00     0.030 A 
HETATM    9  C   UNL     1      23.039  42.729  49.306  1.00  0.00     0.002 A 
HETATM   10  C   UNL     1      23.474  43.689  48.396  1.00  0.00     0.001 A 
HETATM   11  C   UNL     1      24.523  44.547  48.728  1.00  0.00     0.017 A 
ENDROOT
BRANCH   3  12
HETATM   12  N   UNL     1      26.920  43.987  53.655  1.00  0.00    -0.262 NA
HETATM   13  H   UNL     1      27.243  44.923  53.924  1.00  0.00     0.130 HD
BRANCH  12  14
HETATM   14  C   UNL     1      27.971  42.975  53.821  1.00  0.00     0.100 C 
BRANCH  14  15
HETATM   15  C   UNL     1      29.377  43.589  53.862  1.00  0.00     0.056 C 
BRANCH  15  16
HETATM   16  C   UNL     1      29.986  43.938  55.208  1.00  0.00    -0.024 A 
HETATM   17  C   UNL     1      29.695  45.203  55.768  1.00  0.00     0.074 A 
HETATM   18  C   UNL     1      30.224  45.559  57.012  1.00  0.00     0.037 A 
HETATM   19  C   UNL     1      31.051  44.675  57.704  1.00  0.00     0.003 A 
HETATM   20  C   UNL     1      31.357  43.435  57.156  1.00  0.00     0.001 A 
HETATM   21  C   UNL     1      30.831  43.068  55.917  1.00  0.00     0.010 A 
BRANCH  17  22
HETATM   22  O   UNL     1      28.875  46.009  55.017  1.00  0.00    -0.355 OA
HETATM   23  C   UNL     1      27.952  46.832  55.721  1.00  0.00     0.210 C 
ENDBRANCH  17  22
ENDBRANCH  15  16
ENDBRANCH  14  15
ENDBRANCH  12  14
ENDBRANCH   3  12
BRANCH   1  24
HETATM   24  N   UNL     1      26.701  46.295  49.568  1.00  0.00    -0.277 NA
HETATM   25  H   UNL     1      26.536  46.049  48.593  1.00  0.00     0.129 HD
BRANCH  24  26
HETATM   26  C   UNL     1      26.265  47.663  49.853  1.00  0.00     0.093 C 
BRANCH  26  27
HETATM   27  C   UNL     1      27.326  48.659  49.379  1.00  0.00     0.010 C 
HETATM   28  C   UNL     1      26.759  49.739  48.468  1.00  0.00     0.006 C 
ENDBRANCH  26  27
ENDBRANCH  24  26
ENDBRANCH   1  24
TORSDOF 8
ENDMDL
MODEL 8
REMARK VINA RESULT:      -7.8      3.868      8.208
REMARK  8 active torsions:
REMARK  status: ('A' for Active; 'I' for Inactive)
REMARK    1  A    between atoms: C_2  and  C_3 
REMARK    2  A    between atoms: C_3  and  N_4 
REMARK    3  A    between atoms: N_4  and  C_5 
REMARK    4  A    between atoms: C_7  and  N_8 
REMARK    5  A    between atoms: N_8  and  C_9 
REMARK    6  A    between atoms: C_9  and  C_10 
REMARK    7  A    between atoms: C_10  and  C_11 
REMARK    8  A    between atoms: C_12  and  O_13 
ROOT
HETATM    1  C   UNL     1      27.501  41.622  50.094  1.00  0.00     0.119 A 
HETATM    2  N   UNL     1      27.789  41.838  51.393  1.00  0.00    -0.207 NA
HETATM    3  C   UNL     1      28.506  40.907  52.034  1.00  0.00     0.181 A 
HETATM    4  N   UNL     1      28.920  39.782  51.461  1.00  0.00    -0.330 N 
HETATM    5  H   UNL     1      29.388  39.110  52.052  1.00  0.00     0.168 HD
HETATM    6  C   UNL     1      28.690  39.535  50.168  1.00  0.00     0.048 A 
HETATM    7  C   UNL     1      27.962  40.475  49.412  1.00  0.00     0.031 A 
HETATM    8  C   UNL     1      29.172  38.357  49.580  1.00  0.00     0.030 A 
HETATM    9  C   UNL     1      28.948  38.107  48.227  1.00  0.00     0.002 A 
HETATM   10  C   UNL     1      28.244  39.029  47.458  1.00  0.00     0.001 A 
HETATM   11  C   UNL     1      27.756  40.201  48.040  1.00  0.00     0.017 A 
ENDROOT
BRANCH   3  12
HETATM   12  N   UNL     1      28.747  41.096  53.383  1.00  0.00    -0.262 NA
HETATM   13  H   UNL     1      28.154  40.414  53.869  1.00  0.00     0.130 HD
BRANCH  12  14
HETATM   14  C   UNL     1      28.584  42.450  53.927  1.00  0.00     0.100 C 
BRANCH  14  15
HETATM   15  C   UNL     1      29.920  43.193  54.063  1.00  0.00     0.056 C 
BRANCH  15  16
HETATM   16  C   UNL     1      30.281  43.816  55.400  1.00  0.00    -0.024 A 
HETATM   17  C   UNL     1      29.697  45.058  55.741  1.00  0.00     0.074 A 
HETATM   18  C   UNL     1      29.991  45.658  56.969  1.00  0.00     0.037 A 
HETATM   19  C   UNL     1      30.869  45.044  57.860  1.00  0.00     0.003 A 
HETATM   20  C   UNL     1      31.461  43.831  57.529  1.00  0.00     0.001 A 
HETATM   21  C   UNL     1      31.172  43.220  56.308  1.00  0.00     0.010 A 
BRANCH  17  22
HETATM   22  O   UNL     1      28.847  45.590  54.802  1.00  0.00    -0.355 OA
HETATM   23  C   UNL     1      28.218  46.825  55.124  1.00  0.00     0.210 C 
ENDBRANCH  17  22
ENDBRANCH  15  16
ENDBRANCH  14  15
ENDBRANCH  12  14
ENDBRANCH   3  12
BRANCH   1  24
HETATM   24  N   UNL     1      26.763  42.585  49.392  1.00  0.00    -0.277 NA
HETATM   25  H   UNL     1      25.810  42.263  49.231  1.00  0.00     0.129 HD
BRANCH  24  26
HETATM   26  C   UNL     1      26.780  43.948  49.925  1.00  0.00     0.093 C 
BRANCH  26  27
HETATM   27  C   UNL     1      25.356  44.396  50.261  1.00  0.00     0.010 C 
HETATM   28  C   UNL     1      25.054  44.340  51.752  1.00  0.00     0.006 C 
ENDBRANCH  26  27
ENDBRANCH  24  26
ENDBRANCH   1  24
TORSDOF 8
ENDMDL
MODEL 9
REMARK VINA RESULT:      -7.7      2.792      7.753
REMARK  8 active torsions:
REMARK  status: ('A' for Active; 'I' for Inactive)
REMARK    1  A    between atoms: C_2  and  C_3 
REMARK    2  A    between atoms: C_3  and  N_4 
REMARK    3  A    between atoms: N_4  and  C_5 
REMARK    4  A    between atoms: C_7  and  N_8 
REMARK    5  A    between atoms: N_8  and  C_9 
REMARK    6  A    between atoms: C_9  and  C_10 
REMARK    7  A    between atoms: C_10  and  C_11 
REMARK    8  A    between atoms: C_12  and  O_13 
ROOT
HETATM    1  C   UNL     1      24.317  46.882  50.153  1.00  0.00     0.119 A 
HETATM    2  N   UNL     1      24.968  47.504  51.156  1.00  0.00    -0.207 NA
HETATM    3  C   UNL     1      25.470  46.744  52.137  1.00  0.00     0.181 A 
HETATM    4  N   UNL     1      25.334  45.423  52.179  1.00  0.00    -0.330 N 
HETATM    5  H   UNL     1      25.682  44.950  53.001  1.00  0.00     0.168 HD
HETATM    6  C   UNL     1      24.726  44.756  51.194  1.00  0.00     0.048 A 
HETATM    7  C   UNL     1      24.189  45.477  50.109  1.00  0.00     0.031 A 
HETATM    8  C   UNL     1      24.630  43.357  51.245  1.00  0.00     0.030 A 
HETATM    9  C   UNL     1      24.012  42.658  50.209  1.00  0.00     0.002 A 
HETATM   10  C   UNL     1      23.489  43.351  49.121  1.00  0.00     0.001 A 
HETATM   11  C   UNL     1      23.574  44.743  49.068  1.00  0.00     0.017 A 
ENDROOT
BRANCH   3  12
HETATM   12  N   UNL     1      26.082  47.385  53.199  1.00  0.00    -0.262 NA
HETATM   13  H   UNL     1      26.982  47.722  52.839  1.00  0.00     0.130 HD
BRANCH  12  14
HETATM   14  C   UNL     1      26.237  46.640  54.454  1.00  0.00     0.100 C 
BRANCH  14  15
HETATM   15  C   UNL     1      27.671  46.700  55.000  1.00  0.00     0.056 C 
BRANCH  15  16
HETATM   16  C   UNL     1      28.559  45.477  54.867  1.00  0.00    -0.024 A 
HETATM   17  C   UNL     1      29.557  45.263  55.844  1.00  0.00     0.074 A 
HETATM   18  C   UNL     1      30.387  44.140  55.767  1.00  0.00     0.037 A 
HETATM   19  C   UNL     1      30.244  43.230  54.720  1.00  0.00     0.003 A 
HETATM   20  C   UNL     1      29.276  43.438  53.745  1.00  0.00     0.001 A 
HETATM   21  C   UNL     1      28.439  44.553  53.815  1.00  0.00     0.010 A 
BRANCH  17  22
HETATM   22  O   UNL     1      29.628  46.210  56.836  1.00  0.00    -0.355 OA
HETATM   23  C   UNL     1      30.404  45.890  57.985  1.00  0.00     0.210 C 
ENDBRANCH  17  22
ENDBRANCH  15  16
ENDBRANCH  14  15
ENDBRANCH  12  14
ENDBRANCH   3  12
BRANCH   1  24
HETATM   24  N   UNL     1      23.793  47.650  49.104  1.00  0.00    -0.277 NA
HETATM   25  H   UNL     1      22.790  47.495  49.009  1.00  0.00     0.129 HD
BRANCH  24  26
HETATM   26  C   UNL     1      24.110  49.079  49.109  1.00  0.00     0.093 C 
BRANCH  26  27
HETATM   27  C   UNL     1      22.820  49.902  49.145  1.00  0.00     0.010 C 
HETATM   28  C   UNL     1      22.915  51.188  48.337  1.00  0.00     0.006 C 
ENDBRANCH  26  27
ENDBRANCH  24  26
ENDBRANCH   1  24
TORSDOF 8
ENDMDL
MODEL 10
REMARK VINA RESULT:      -7.6      0.981      2.153
REMARK  8 active torsions:
REMARK  status: ('A' for Active; 'I' for Inactive)
REMARK    1  A    between atoms: C_2  and  C_3 
REMARK    2  A    between atoms: C_3  and  N_4 
REMARK    3  A    between atoms: N_4  and  C_5 
REMARK    4  A    between atoms: C_7  and  N_8 
REMARK    5  A    between atoms: N_8  and  C_9 
REMARK    6  A    between atoms: C_9  and  C_10 
REMARK    7  A    between atoms: C_10  and  C_11 
REMARK    8  A    between atoms: C_12  and  O_13 
ROOT
HETATM    1  C   UNL     1      26.277  43.954  53.409  1.00  0.00     0.119 A 
HETATM    2  N   UNL     1      25.358  44.016  52.425  1.00  0.00    -0.207 NA
HETATM    3  C   UNL     1      24.939  45.227  52.042  1.00  0.00     0.181 A 
HETATM    4  N   UNL     1      25.363  46.357  52.598  1.00  0.00    -0.330 N 
HETATM    5  H   UNL     1      24.927  47.214  52.289  1.00  0.00     0.168 HD
HETATM    6  C   UNL     1      26.296  46.352  53.554  1.00  0.00     0.048 A 
HETATM    7  C   UNL     1      26.811  45.119  54.001  1.00  0.00     0.031 A 
HETATM    8  C   UNL     1      26.754  47.562  54.098  1.00  0.00     0.030 A 
HETATM    9  C   UNL     1      27.740  47.559  55.082  1.00  0.00     0.002 A 
HETATM   10  C   UNL     1      28.273  46.352  55.527  1.00  0.00     0.001 A 
HETATM   11  C   UNL     1      27.817  45.145  54.995  1.00  0.00     0.017 A 
ENDROOT
BRANCH   3  12
HETATM   12  N   UNL     1      23.949  45.290  51.077  1.00  0.00    -0.262 NA
HETATM   13  H   UNL     1      23.615  44.327  50.958  1.00  0.00     0.130 HD
BRANCH  12  14
HETATM   14  C   UNL     1      24.281  45.919  49.792  1.00  0.00     0.100 C 
BRANCH  14  15
HETATM   15  C   UNL     1      24.459  47.439  49.910  1.00  0.00     0.056 C 
BRANCH  15  16
HETATM   16  C   UNL     1      23.536  48.349  49.121  1.00  0.00    -0.024 A 
HETATM   17  C   UNL     1      24.033  49.603  48.697  1.00  0.00     0.074 A 
HETATM   18  C   UNL     1      23.220  50.466  47.955  1.00  0.00     0.037 A 
HETATM   19  C   UNL     1      21.912  50.102  47.638  1.00  0.00     0.003 A 
HETATM   20  C   UNL     1      21.408  48.879  48.063  1.00  0.00     0.001 A 
HETATM   21  C   UNL     1      22.212  48.008  48.801  1.00  0.00     0.010 A 
BRANCH  17  22
HETATM   22  O   UNL     1      25.329  49.878  49.055  1.00  0.00    -0.355 OA
HETATM   23  C   UNL     1      26.289  49.958  48.007  1.00  0.00     0.210 C 
ENDBRANCH  17  22
ENDBRANCH  15  16
ENDBRANCH  14  15
ENDBRANCH  12  14
ENDBRANCH   3  12
BRANCH   1  24
HETATM   24  N   UNL     1      26.746  42.700  53.823  1.00  0.00    -0.277 NA
HETATM   25  H   UNL     1      25.971  42.058  53.981  1.00  0.00     0.129 HD
BRANCH  24  26
HETATM   26  C   UNL     1      27.789  42.081  53.003  1.00  0.00     0.093 C 
BRANCH  26  27
HETATM   27  C   UNL     1      29.103  42.021  53.784  1.00  0.00     0.010 C 
HETATM   28  C   UNL     1      30.221  42.815  53.122  1.00  0.00     0.006 C 
ENDBRANCH  26  27
ENDBRANCH  24  26
ENDBRANCH   1  24
TORSDOF 8
ENDMDL
