MODEL 1
REMARK VINA RESULT:     -10.6      0.000      0.000
REMARK  8 active torsions:
REMARK  status: ('A' for Active; 'I' for Inactive)
REMARK    1  A    between atoms: C_6  and  N_7 
REMARK       I    between atoms: N_7  and  C_8 
REMARK    2  A    between atoms: C_8  and  C_9 
REMARK    3  A    between atoms: C_9  and  S_10 
REMARK    4  A    between atoms: S_10  and  C_11 
REMARK    5  A    between atoms: N_12  and  C_13 
REMARK    6  A    between atoms: C_13  and  C_14 
REMARK    7  A    between atoms: C_25  and  C_26 
REMARK       I    between atoms: C_26  and  N_27 
REMARK    8  A    between atoms: C_30  and  C_31 
REMARK       I    between atoms: C_31  and  N_32 
ROOT
HETATM    1  C   UNL     1      25.223  42.594  49.972  1.00  0.00     0.172 C 
HETATM    2  N   UNL     1      24.648  42.036  48.847  1.00  0.00    -0.286 N 
HETATM    3  C   UNL     1      23.735  42.768  48.094  1.00  0.00     0.262 C 
HETATM    4  O   UNL     1      23.083  42.308  47.160  1.00  0.00    -0.267 OA
HETATM    5  C   UNL     1      23.569  44.185  48.456  1.00  0.00     0.061 A 
HETATM    6  C   UNL     1      24.259  44.654  49.573  1.00  0.00     0.076 A 
HETATM    7  C   UNL     1      22.779  45.036  47.672  1.00  0.00     0.020 A 
HETATM    8  C   UNL     1      22.703  46.390  47.993  1.00  0.00     0.018 A 
HETATM    9  C   UNL     1      23.431  46.876  49.082  1.00  0.00     0.034 A 
HETATM   10  C   UNL     1      24.183  46.012  49.889  1.00  0.00     0.050 A 
HETATM   11  N   UNL     1      25.042  43.811  50.373  1.00  0.00    -0.224 NA
ENDROOT
BRANCH   1  12
HETATM   12  S   UNL     1      26.234  41.616  51.009  1.00  0.00    -0.082 SA
BRANCH  12  13
HETATM   13  C   UNL     1      27.546  42.833  51.308  1.00  0.00     0.185 C 
BRANCH  13  14
HETATM   14  C   UNL     1      27.995  42.924  52.758  1.00  0.00     0.231 C 
HETATM   15  N   UNL     1      28.762  44.028  53.076  1.00  0.00    -0.326 N 
HETATM   16  H   UNL     1      29.053  44.616  52.296  1.00  0.00     0.169 HD
HETATM   17  O   UNL     1      27.599  42.075  53.556  1.00  0.00    -0.272 OA
BRANCH  15  18
HETATM   18  C   UNL     1      29.257  44.390  54.348  1.00  0.00     0.036 A 
HETATM   19  C   UNL     1      30.260  43.694  55.025  1.00  0.00     0.053 A 
HETATM   20  C   UNL     1      30.697  44.118  56.287  1.00  0.00     0.042 A 
HETATM   21  C   UNL     1      30.153  45.262  56.889  1.00  0.00    -0.040 A 
HETATM   22 CL   UNL     1      31.917  43.179  57.074  1.00  0.00    -0.084 Cl
HETATM   23  C   UNL     1      30.584  45.738  58.247  1.00  0.00     0.050 C 
HETATM   24  C   UNL     1      29.132  45.946  56.214  1.00  0.00     0.011 A 
HETATM   25  C   UNL     1      28.690  45.513  54.958  1.00  0.00     0.030 A 
ENDBRANCH  15  18
ENDBRANCH  13  14
ENDBRANCH  12  13
ENDBRANCH   1  12
BRANCH   2  26
HETATM   26  C   UNL     1      24.959  40.701  48.331  1.00  0.00     0.199 C 
BRANCH  26  27
HETATM   27  C   UNL     1      26.100  40.804  47.379  1.00  0.00     0.070 A 
HETATM   28  O   UNL     1      25.806  40.729  46.049  1.00  0.00    -0.325 OA
HETATM   29  C   UNL     1      26.983  40.818  45.378  1.00  0.00     0.142 A 
HETATM   30  C   UNL     1      28.031  40.950  46.258  1.00  0.00     0.027 A 
HETATM   31  C   UNL     1      27.462  40.942  47.553  1.00  0.00     0.036 A 
ENDBRANCH  26  27
ENDBRANCH   2  26
BRANCH   9  32
HETATM   32  C   UNL     1      23.359  48.316  49.396  1.00  0.00     0.253 C 
HETATM   33  N   UNL     1      22.157  48.994  49.174  1.00  0.00    -0.348 N 
HETATM   34  C   UNL     1      22.119  50.405  49.554  1.00  0.00     0.127 C 
HETATM   35  C   UNL     1      20.855  48.326  49.147  1.00  0.00     0.127 C 
HETATM   36  C   UNL     1      21.137  51.197  48.693  1.00  0.00     0.034 C 
HETATM   37  C   UNL     1      19.752  50.545  48.608  1.00  0.00     0.081 C 
HETATM   38  C   UNL     1      19.875  49.062  48.238  1.00  0.00     0.034 C 
HETATM   39  O   UNL     1      24.380  48.842  49.830  1.00  0.00    -0.267 OA
BRANCH  37  40
HETATM   40  C   UNL     1      18.950  50.736  49.890  1.00  0.00     0.219 C 
HETATM   41  N   UNL     1      18.262  51.913  49.971  1.00  0.00    -0.370 N 
HETATM   42  H   UNL     1      18.474  52.701  49.376  1.00  0.00     0.159 HD
HETATM   43  H   UNL     1      17.792  52.098  50.849  1.00  0.00     0.159 HD
HETATM   44  O   UNL     1      18.893  49.923  50.803  1.00  0.00    -0.273 OA
ENDBRANCH  37  40
ENDBRANCH   9  32
TORSDOF 8
ENDMDL
MODEL 2
REMARK VINA RESULT:     -10.0      2.080      2.668
REMARK  8 active torsions:
REMARK  status: ('A' for Active; 'I' for Inactive)
REMARK    1  A    between atoms: C_6  and  N_7 
REMARK       I    between atoms: N_7  and  C_8 
REMARK    2  A    between atoms: C_8  and  C_9 
REMARK    3  A    between atoms: C_9  and  S_10 
REMARK    4  A    between atoms: S_10  and  C_11 
REMARK    5  A    between atoms: N_12  and  C_13 
REMARK    6  A    between atoms: C_13  and  C_14 
REMARK    7  A    between atoms: C_25  and  C_26 
REMARK       I    between atoms: C_26  and  N_27 
REMARK    8  A    between atoms: C_30  and  C_31 
REMARK       I    between atoms: C_31  and  N_32 
ROOT
HETATM    1  C   UNL     1      24.801  45.009  50.375  1.00  0.00     0.172 C 
HETATM    2  N   UNL     1      24.328  43.713  50.382  1.00  0.00    -0.286 N 
HETATM    3  C   UNL     1      23.057  43.431  49.888  1.00  0.00     0.262 C 
HETATM    4  O   UNL     1      22.510  42.334  49.973  1.00  0.00    -0.267 OA
HETATM    5  C   UNL     1      22.353  44.533  49.214  1.00  0.00     0.061 A 
HETATM    6  C   UNL     1      22.965  45.786  49.208  1.00  0.00     0.076 A 
HETATM    7  C   UNL     1      21.132  44.311  48.564  1.00  0.00     0.020 A 
HETATM    8  C   UNL     1      20.528  45.355  47.867  1.00  0.00     0.018 A 
HETATM    9  C   UNL     1      21.160  46.600  47.817  1.00  0.00     0.034 A 
HETATM   10  C   UNL     1      22.357  46.828  48.506  1.00  0.00     0.050 A 
HETATM   11  N   UNL     1      24.180  46.024  49.866  1.00  0.00    -0.224 NA
ENDROOT
BRANCH   1  12
HETATM   12  S   UNL     1      26.321  45.386  51.152  1.00  0.00    -0.082 SA
BRANCH  12  13
HETATM   13  C   UNL     1      25.705  45.549  52.851  1.00  0.00     0.185 C 
BRANCH  13  14
HETATM   14  C   UNL     1      26.583  44.885  53.900  1.00  0.00     0.231 C 
HETATM   15  N   UNL     1      27.911  45.266  53.892  1.00  0.00    -0.326 N 
HETATM   16  H   UNL     1      28.206  45.863  53.120  1.00  0.00     0.169 HD
HETATM   17  O   UNL     1      26.062  44.128  54.718  1.00  0.00    -0.272 OA
BRANCH  15  18
HETATM   18  C   UNL     1      28.926  44.857  54.785  1.00  0.00     0.036 A 
HETATM   19  C   UNL     1      29.291  45.563  55.933  1.00  0.00     0.053 A 
HETATM   20  C   UNL     1      30.310  45.089  56.769  1.00  0.00     0.042 A 
HETATM   21  C   UNL     1      30.972  43.886  56.486  1.00  0.00    -0.040 A 
HETATM   22 CL   UNL     1      30.726  46.043  58.151  1.00  0.00    -0.084 Cl
HETATM   23  C   UNL     1      32.081  43.355  57.349  1.00  0.00     0.050 C 
HETATM   24  C   UNL     1      30.615  43.191  55.322  1.00  0.00     0.011 A 
HETATM   25  C   UNL     1      29.605  43.673  54.482  1.00  0.00     0.030 A 
ENDBRANCH  15  18
ENDBRANCH  13  14
ENDBRANCH  12  13
ENDBRANCH   1  12
BRANCH   2  26
HETATM   26  C   UNL     1      25.092  42.552  50.846  1.00  0.00     0.199 C 
BRANCH  26  27
HETATM   27  C   UNL     1      25.785  41.933  49.681  1.00  0.00     0.070 A 
HETATM   28  O   UNL     1      25.246  40.788  49.175  1.00  0.00    -0.325 OA
HETATM   29  C   UNL     1      26.045  40.392  48.151  1.00  0.00     0.142 A 
HETATM   30  C   UNL     1      27.092  41.268  47.989  1.00  0.00     0.027 A 
HETATM   31  C   UNL     1      26.925  42.268  48.978  1.00  0.00     0.036 A 
ENDBRANCH  26  27
ENDBRANCH   2  26
BRANCH   9  32
HETATM   32  C   UNL     1      20.518  47.691  47.055  1.00  0.00     0.253 C 
HETATM   33  N   UNL     1      19.675  48.577  47.732  1.00  0.00    -0.348 N 
HETATM   34  C   UNL     1      19.110  49.673  46.946  1.00  0.00     0.127 C 
HETATM   35  C   UNL     1      19.769  48.832  49.170  1.00  0.00     0.127 C 
HETATM   36  C   UNL     1      17.756  50.121  47.494  1.00  0.00     0.034 C 
HETATM   37  C   UNL     1      17.778  50.392  49.002  1.00  0.00     0.081 C 
HETATM   38  C   UNL     1      18.413  49.215  49.753  1.00  0.00     0.034 C 
HETATM   39  O   UNL     1      20.761  47.746  45.853  1.00  0.00    -0.267 OA
BRANCH  37  40
HETATM   40  C   UNL     1      18.470  51.708  49.337  1.00  0.00     0.219 C 
HETATM   41  N   UNL     1      17.925  52.813  48.751  1.00  0.00    -0.370 N 
HETATM   42  H   UNL     1      17.300  52.749  47.959  1.00  0.00     0.159 HD
HETATM   43  H   UNL     1      18.419  53.686  48.891  1.00  0.00     0.159 HD
HETATM   44  O   UNL     1      19.441  51.815  50.074  1.00  0.00    -0.273 OA
ENDBRANCH  37  40
ENDBRANCH   9  32
TORSDOF 8
ENDMDL
MODEL 3
REMARK VINA RESULT:      -9.8      1.902      2.895
REMARK  8 active torsions:
REMARK  status: ('A' for Active; 'I' for Inactive)
REMARK    1  A    between atoms: C_6  and  N_7 
REMARK       I    between atoms: N_7  and  C_8 
REMARK    2  A    between atoms: C_8  and  C_9 
REMARK    3  A    between atoms: C_9  and  S_10 
REMARK    4  A    between atoms: S_10  and  C_11 
REMARK    5  A    between atoms: N_12  and  C_13 
REMARK    6  A    between atoms: C_13  and  C_14 
REMARK    7  A    between atoms: C_25  and  C_26 
REMARK       I    between atoms: C_26  and  N_27 
REMARK    8  A    between atoms: C_30  and  C_31 
REMARK       I    between atoms: C_31  and  N_32 
ROOT
HETATM    1  C   UNL     1      25.871  41.997  49.580  1.00  0.00     0.172 C 
HETATM    2  N   UNL     1      26.186  41.397  48.378  1.00  0.00    -0.286 N 
HETATM    3  C   UNL     1      25.280  41.434  47.321  1.00  0.00     0.262 C 
HETATM    4  O   UNL     1      25.422  40.820  46.266  1.00  0.00    -0.267 OA
HETATM    5  C   UNL     1      24.091  42.282  47.503  1.00  0.00     0.061 A 
HETATM    6  C   UNL     1      23.917  42.898  48.741  1.00  0.00     0.076 A 
HETATM    7  C   UNL     1      23.195  42.493  46.447  1.00  0.00     0.020 A 
HETATM    8  C   UNL     1      22.121  43.364  46.624  1.00  0.00     0.018 A 
HETATM    9  C   UNL     1      21.968  44.021  47.847  1.00  0.00     0.034 A 
HETATM   10  C   UNL     1      22.842  43.771  48.913  1.00  0.00     0.050 A 
HETATM   11  N   UNL     1      24.798  42.684  49.810  1.00  0.00    -0.224 NA
ENDROOT
BRANCH   1  12
HETATM   12  S   UNL     1      26.932  41.800  50.956  1.00  0.00    -0.082 SA
BRANCH  12  13
HETATM   13  C   UNL     1      26.999  43.537  51.477  1.00  0.00     0.185 C 
BRANCH  13  14
HETATM   14  C   UNL     1      27.329  43.735  52.948  1.00  0.00     0.231 C 
HETATM   15  N   UNL     1      28.597  44.214  53.215  1.00  0.00    -0.326 N 
HETATM   16  H   UNL     1      29.231  44.281  52.421  1.00  0.00     0.169 HD
HETATM   17  O   UNL     1      26.449  43.535  53.785  1.00  0.00    -0.272 OA
BRANCH  15  18
HETATM   18  C   UNL     1      29.141  44.543  54.476  1.00  0.00     0.036 A 
HETATM   19  C   UNL     1      30.143  43.809  55.113  1.00  0.00     0.053 A 
HETATM   20  C   UNL     1      30.629  44.202  56.366  1.00  0.00     0.042 A 
HETATM   21  C   UNL     1      30.137  45.352  57.001  1.00  0.00    -0.040 A 
HETATM   22 CL   UNL     1      31.846  43.217  57.103  1.00  0.00    -0.084 Cl
HETATM   23  C   UNL     1      30.622  45.795  58.352  1.00  0.00     0.050 C 
HETATM   24  C   UNL     1      29.117  46.074  56.366  1.00  0.00     0.011 A 
HETATM   25  C   UNL     1      28.625  45.672  55.119  1.00  0.00     0.030 A 
ENDBRANCH  15  18
ENDBRANCH  13  14
ENDBRANCH  12  13
ENDBRANCH   1  12
BRANCH   2  26
HETATM   26  C   UNL     1      27.458  40.730  48.090  1.00  0.00     0.199 C 
BRANCH  26  27
HETATM   27  C   UNL     1      27.427  39.358  48.669  1.00  0.00     0.070 A 
HETATM   28  O   UNL     1      28.523  38.958  49.375  1.00  0.00    -0.325 OA
HETATM   29  C   UNL     1      28.288  37.683  49.781  1.00  0.00     0.142 A 
HETATM   30  C   UNL     1      27.056  37.257  49.347  1.00  0.00     0.027 A 
HETATM   31  C   UNL     1      26.495  38.340  48.628  1.00  0.00     0.036 A 
ENDBRANCH  26  27
ENDBRANCH   2  26
BRANCH   9  32
HETATM   32  C   UNL     1      20.839  44.958  48.012  1.00  0.00     0.253 C 
HETATM   33  N   UNL     1      21.113  46.295  48.314  1.00  0.00    -0.348 N 
HETATM   34  C   UNL     1      19.965  47.194  48.412  1.00  0.00     0.127 C 
HETATM   35  C   UNL     1      22.382  46.946  47.986  1.00  0.00     0.127 C 
HETATM   36  C   UNL     1      20.231  48.349  49.375  1.00  0.00     0.034 C 
HETATM   37  C   UNL     1      21.555  49.070  49.097  1.00  0.00     0.081 C 
HETATM   38  C   UNL     1      22.704  48.060  48.977  1.00  0.00     0.034 C 
HETATM   39  O   UNL     1      19.710  44.495  47.882  1.00  0.00    -0.267 OA
BRANCH  37  40
HETATM   40  C   UNL     1      21.471  49.970  47.871  1.00  0.00     0.219 C 
HETATM   41  N   UNL     1      22.666  50.466  47.435  1.00  0.00    -0.370 N 
HETATM   42  H   UNL     1      23.492  50.469  48.018  1.00  0.00     0.159 HD
HETATM   43  H   UNL     1      22.625  51.134  46.675  1.00  0.00     0.159 HD
HETATM   44  O   UNL     1      20.435  50.252  47.284  1.00  0.00    -0.273 OA
ENDBRANCH  37  40
ENDBRANCH   9  32
TORSDOF 8
ENDMDL
MODEL 4
REMARK VINA RESULT:      -9.7      4.461     10.591
REMARK  8 active torsions:
REMARK  status: ('A' for Active; 'I' for Inactive)
REMARK    1  A    between atoms: C_6  and  N_7 
REMARK       I    between atoms: N_7  and  C_8 
REMARK    2  A    between atoms: C_8  and  C_9 
REMARK    3  A    between atoms: C_9  and  S_10 
REMARK    4  A    between atoms: S_10  and  C_11 
REMARK    5  A    between atoms: N_12  and  C_13 
REMARK    6  A    between atoms: C_13  and  C_14 
REMARK    7  A    between atoms: C_25  and  C_26 
REMARK       I    between atoms: C_26  and  N_27 
REMARK    8  A    between atoms: C_30  and  C_31 
REMARK       I    between atoms: C_31  and  N_32 
ROOT
HETATM    1  C   UNL     1      24.088  43.520  49.827  1.00  0.00     0.172 C 
HETATM    2  N   UNL     1      24.902  44.010  50.827  1.00  0.00    -0.286 N 
HETATM    3  C   UNL     1      26.065  43.330  51.177  1.00  0.00     0.262 C 
HETATM    4  O   UNL     1      26.776  43.623  52.136  1.00  0.00    -0.267 OA
HETATM    5  C   UNL     1      26.449  42.198  50.319  1.00  0.00     0.061 A 
HETATM    6  C   UNL     1      25.578  41.839  49.291  1.00  0.00     0.076 A 
HETATM    7  C   UNL     1      27.672  41.540  50.506  1.00  0.00     0.020 A 
HETATM    8  C   UNL     1      28.045  40.524  49.629  1.00  0.00     0.018 A 
HETATM    9  C   UNL     1      27.198  40.191  48.568  1.00  0.00     0.034 A 
HETATM   10  C   UNL     1      25.957  40.822  48.413  1.00  0.00     0.050 A 
HETATM   11  N   UNL     1      24.347  42.480  49.100  1.00  0.00    -0.224 NA
ENDROOT
BRANCH   1  12
HETATM   12  S   UNL     1      22.546  44.279  49.508  1.00  0.00    -0.082 SA
BRANCH  12  13
HETATM   13  C   UNL     1      22.966  45.056  47.923  1.00  0.00     0.185 C 
BRANCH  13  14
HETATM   14  C   UNL     1      22.158  46.304  47.606  1.00  0.00     0.231 C 
HETATM   15  N   UNL     1      21.871  47.118  48.685  1.00  0.00    -0.326 N 
HETATM   16  H   UNL     1      22.122  46.756  49.603  1.00  0.00     0.169 HD
HETATM   17  O   UNL     1      21.880  46.548  46.432  1.00  0.00    -0.272 OA
BRANCH  15  18
HETATM   18  C   UNL     1      21.194  48.357  48.667  1.00  0.00     0.036 A 
HETATM   19  C   UNL     1      19.822  48.504  48.883  1.00  0.00     0.053 A 
HETATM   20  C   UNL     1      19.226  49.771  48.848  1.00  0.00     0.042 A 
HETATM   21  C   UNL     1      19.993  50.922  48.617  1.00  0.00    -0.040 A 
HETATM   22 CL   UNL     1      17.515  49.862  49.090  1.00  0.00    -0.084 Cl
HETATM   23  C   UNL     1      19.387  52.295  48.556  1.00  0.00     0.050 C 
HETATM   24  C   UNL     1      21.366  50.767  48.381  1.00  0.00     0.011 A 
HETATM   25  C   UNL     1      21.958  49.499  48.405  1.00  0.00     0.030 A 
ENDBRANCH  15  18
ENDBRANCH  13  14
ENDBRANCH  12  13
ENDBRANCH   1  12
BRANCH   2  26
HETATM   26  C   UNL     1      24.663  45.258  51.556  1.00  0.00     0.199 C 
BRANCH  26  27
HETATM   27  C   UNL     1      25.241  46.390  50.779  1.00  0.00     0.070 A 
HETATM   28  O   UNL     1      24.367  47.310  50.279  1.00  0.00    -0.325 OA
HETATM   29  C   UNL     1      25.102  48.223  49.593  1.00  0.00     0.142 A 
HETATM   30  C   UNL     1      26.438  47.904  49.645  1.00  0.00     0.027 A 
HETATM   31  C   UNL     1      26.531  46.719  50.413  1.00  0.00     0.036 A 
ENDBRANCH  26  27
ENDBRANCH   2  26
BRANCH   9  32
HETATM   32  C   UNL     1      27.617  39.128  47.634  1.00  0.00     0.253 C 
HETATM   33  N   UNL     1      27.748  39.439  46.277  1.00  0.00    -0.348 N 
HETATM   34  C   UNL     1      28.220  38.368  45.401  1.00  0.00     0.127 C 
HETATM   35  C   UNL     1      28.003  40.795  45.788  1.00  0.00     0.127 C 
HETATM   36  C   UNL     1      27.687  38.525  43.978  1.00  0.00     0.034 C 
HETATM   37  C   UNL     1      27.907  39.930  43.406  1.00  0.00     0.081 C 
HETATM   38  C   UNL     1      27.418  40.997  44.393  1.00  0.00     0.034 C 
HETATM   39  O   UNL     1      27.817  38.015  48.112  1.00  0.00    -0.267 OA
BRANCH  37  40
HETATM   40  C   UNL     1      29.358  40.164  43.004  1.00  0.00     0.219 C 
HETATM   41  N   UNL     1      30.072  39.032  42.733  1.00  0.00    -0.370 N 
HETATM   42  H   UNL     1      29.763  38.117  43.030  1.00  0.00     0.159 HD
HETATM   43  H   UNL     1      31.060  39.158  42.547  1.00  0.00     0.159 HD
HETATM   44  O   UNL     1      29.887  41.264  42.913  1.00  0.00    -0.273 OA
ENDBRANCH  37  40
ENDBRANCH   9  32
TORSDOF 8
ENDMDL
MODEL 5
REMARK VINA RESULT:      -9.6     15.063     16.051
REMARK  8 active torsions:
REMARK  status: ('A' for Active; 'I' for Inactive)
REMARK    1  A    between atoms: C_6  and  N_7 
REMARK       I    between atoms: N_7  and  C_8 
REMARK    2  A    between atoms: C_8  and  C_9 
REMARK    3  A    between atoms: C_9  and  S_10 
REMARK    4  A    between atoms: S_10  and  C_11 
REMARK    5  A    between atoms: N_12  and  C_13 
REMARK    6  A    between atoms: C_13  and  C_14 
REMARK    7  A    between atoms: C_25  and  C_26 
REMARK       I    between atoms: C_26  and  N_27 
REMARK    8  A    between atoms: C_30  and  C_31 
REMARK       I    between atoms: C_31  and  N_32 
ROOT
HETATM    1  C   UNL     1      37.042  53.078  43.958  1.00  0.00     0.172 C 
HETATM    2  N   UNL     1      37.886  52.462  43.056  1.00  0.00    -0.286 N 
HETATM    3  C   UNL     1      37.432  51.388  42.296  1.00  0.00     0.262 C 
HETATM    4  O   UNL     1      38.147  50.704  41.568  1.00  0.00    -0.267 OA
HETATM    5  C   UNL     1      35.995  51.083  42.380  1.00  0.00     0.061 A 
HETATM    6  C   UNL     1      35.226  51.824  43.278  1.00  0.00     0.076 A 
HETATM    7  C   UNL     1      35.418  50.113  41.550  1.00  0.00     0.020 A 
HETATM    8  C   UNL     1      34.042  49.902  41.595  1.00  0.00     0.018 A 
HETATM    9  C   UNL     1      33.260  50.673  42.459  1.00  0.00     0.034 A 
HETATM   10  C   UNL     1      33.848  51.610  43.319  1.00  0.00     0.050 A 
HETATM   11  N   UNL     1      35.792  52.787  44.123  1.00  0.00    -0.224 NA
ENDROOT
BRANCH   1  12
HETATM   12  S   UNL     1      37.665  54.309  45.032  1.00  0.00    -0.082 SA
BRANCH  12  13
HETATM   13  C   UNL     1      37.799  53.296  46.531  1.00  0.00     0.185 C 
BRANCH  13  14
HETATM   14  C   UNL     1      39.088  53.504  47.311  1.00  0.00     0.231 C 
HETATM   15  N   UNL     1      40.198  53.821  46.553  1.00  0.00    -0.326 N 
HETATM   16  H   UNL     1      40.084  53.775  45.542  1.00  0.00     0.169 HD
HETATM   17  O   UNL     1      39.051  53.452  48.541  1.00  0.00    -0.272 OA
BRANCH  15  18
HETATM   18  C   UNL     1      41.496  54.123  47.020  1.00  0.00     0.036 A 
HETATM   19  C   UNL     1      42.495  53.169  47.231  1.00  0.00     0.053 A 
HETATM   20  C   UNL     1      43.759  53.551  47.696  1.00  0.00     0.042 A 
HETATM   21  C   UNL     1      44.060  54.898  47.943  1.00  0.00    -0.040 A 
HETATM   22 CL   UNL     1      44.928  52.303  47.965  1.00  0.00    -0.084 Cl
HETATM   23  C   UNL     1      45.398  55.343  48.459  1.00  0.00     0.050 C 
HETATM   24  C   UNL     1      43.048  55.849  47.749  1.00  0.00     0.011 A 
HETATM   25  C   UNL     1      41.782  55.463  47.294  1.00  0.00     0.030 A 
ENDBRANCH  15  18
ENDBRANCH  13  14
ENDBRANCH  12  13
ENDBRANCH   1  12
BRANCH   2  26
HETATM   26  C   UNL     1      39.263  52.882  42.786  1.00  0.00     0.199 C 
BRANCH  26  27
HETATM   27  C   UNL     1      40.198  51.924  43.441  1.00  0.00     0.070 A 
HETATM   28  O   UNL     1      39.834  51.442  44.664  1.00  0.00    -0.325 OA
HETATM   29  C   UNL     1      40.833  50.620  45.078  1.00  0.00     0.142 A 
HETATM   30  C   UNL     1      41.834  50.565  44.138  1.00  0.00     0.027 A 
HETATM   31  C   UNL     1      41.425  51.408  43.077  1.00  0.00     0.036 A 
ENDBRANCH  26  27
ENDBRANCH   2  26
BRANCH   9  32
HETATM   32  C   UNL     1      31.800  50.454  42.480  1.00  0.00     0.253 C 
HETATM   33  N   UNL     1      30.989  51.245  41.661  1.00  0.00    -0.348 N 
HETATM   34  C   UNL     1      29.558  50.951  41.675  1.00  0.00     0.127 C 
HETATM   35  C   UNL     1      31.474  51.897  40.444  1.00  0.00     0.127 C 
HETATM   36  C   UNL     1      28.722  52.194  41.372  1.00  0.00     0.034 C 
HETATM   37  C   UNL     1      29.186  52.937  40.113  1.00  0.00     0.081 C 
HETATM   38  C   UNL     1      30.699  53.179  40.157  1.00  0.00     0.034 C 
HETATM   39  O   UNL     1      31.381  49.583  43.236  1.00  0.00    -0.267 OA
BRANCH  37  40
HETATM   40  C   UNL     1      28.772  52.214  38.837  1.00  0.00     0.219 C 
HETATM   41  N   UNL     1      27.590  51.535  38.914  1.00  0.00    -0.370 N 
HETATM   42  H   UNL     1      27.163  51.299  39.799  1.00  0.00     0.159 HD
HETATM   43  H   UNL     1      27.339  50.978  38.107  1.00  0.00     0.159 HD
HETATM   44  O   UNL     1      29.416  52.217  37.796  1.00  0.00    -0.273 OA
ENDBRANCH  37  40
ENDBRANCH   9  32
TORSDOF 8
ENDMDL
MODEL 6
REMARK VINA RESULT:      -9.5     14.898     16.739
REMARK  8 active torsions:
REMARK  status: ('A' for Active; 'I' for Inactive)
REMARK    1  A    between atoms: C_6  and  N_7 
REMARK       I    between atoms: N_7  and  C_8 
REMARK    2  A    between atoms: C_8  and  C_9 
REMARK    3  A    between atoms: C_9  and  S_10 
REMARK    4  A    between atoms: S_10  and  C_11 
REMARK    5  A    between atoms: N_12  and  C_13 
REMARK    6  A    between atoms: C_13  and  C_14 
REMARK    7  A    between atoms: C_25  and  C_26 
REMARK       I    between atoms: C_26  and  N_27 
REMARK    8  A    between atoms: C_30  and  C_31 
REMARK       I    between atoms: C_31  and  N_32 
ROOT
HETATM    1  C   UNL     1      36.843  51.513  41.584  1.00  0.00     0.172 C 
HETATM    2  N   UNL     1      37.107  52.127  42.791  1.00  0.00    -0.286 N 
HETATM    3  C   UNL     1      36.071  52.389  43.683  1.00  0.00     0.262 C 
HETATM    4  O   UNL     1      36.195  53.043  44.716  1.00  0.00    -0.267 OA
HETATM    5  C   UNL     1      34.755  51.823  43.347  1.00  0.00     0.061 A 
HETATM    6  C   UNL     1      34.627  51.158  42.127  1.00  0.00     0.076 A 
HETATM    7  C   UNL     1      33.685  51.914  44.247  1.00  0.00     0.020 A 
HETATM    8  C   UNL     1      32.473  51.300  43.936  1.00  0.00     0.018 A 
HETATM    9  C   UNL     1      32.354  50.592  42.737  1.00  0.00     0.034 A 
HETATM   10  C   UNL     1      33.412  50.543  41.821  1.00  0.00     0.050 A 
HETATM   11  N   UNL     1      35.684  51.072  41.212  1.00  0.00    -0.224 NA
ENDROOT
BRANCH   1  12
HETATM   12  S   UNL     1      38.116  51.343  40.397  1.00  0.00    -0.082 SA
BRANCH  12  13
HETATM   13  C   UNL     1      37.088  51.447  38.905  1.00  0.00     0.185 C 
BRANCH  13  14
HETATM   14  C   UNL     1      36.228  52.698  38.825  1.00  0.00     0.231 C 
HETATM   15  N   UNL     1      36.918  53.895  38.810  1.00  0.00    -0.326 N 
HETATM   16  H   UNL     1      37.923  53.840  38.968  1.00  0.00     0.169 HD
HETATM   17  O   UNL     1      35.009  52.574  38.708  1.00  0.00    -0.272 OA
BRANCH  15  18
HETATM   18  C   UNL     1      36.379  55.194  38.681  1.00  0.00     0.036 A 
HETATM   19  C   UNL     1      35.373  55.709  39.502  1.00  0.00     0.053 A 
HETATM   20  C   UNL     1      34.891  57.010  39.309  1.00  0.00     0.042 A 
HETATM   21  C   UNL     1      35.419  57.832  38.303  1.00  0.00    -0.040 A 
HETATM   22 CL   UNL     1      33.618  57.558  40.345  1.00  0.00    -0.084 Cl
HETATM   23  C   UNL     1      34.916  59.225  38.055  1.00  0.00     0.050 C 
HETATM   24  C   UNL     1      36.414  57.302  37.469  1.00  0.00     0.011 A 
HETATM   25  C   UNL     1      36.886  55.998  37.657  1.00  0.00     0.030 A 
ENDBRANCH  15  18
ENDBRANCH  13  14
ENDBRANCH  12  13
ENDBRANCH   1  12
BRANCH   2  26
HETATM   26  C   UNL     1      38.444  52.507  43.256  1.00  0.00     0.199 C 
BRANCH  26  27
HETATM   27  C   UNL     1      39.227  51.271  43.538  1.00  0.00     0.070 A 
HETATM   28  O   UNL     1      38.636  50.331  44.330  1.00  0.00    -0.325 OA
HETATM   29  C   UNL     1      39.529  49.318  44.473  1.00  0.00     0.142 A 
HETATM   30  C   UNL     1      40.686  49.591  43.783  1.00  0.00     0.027 A 
HETATM   31  C   UNL     1      40.492  50.855  43.176  1.00  0.00     0.036 A 
ENDBRANCH  26  27
ENDBRANCH   2  26
BRANCH   9  32
HETATM   32  C   UNL     1      31.071  49.928  42.431  1.00  0.00     0.253 C 
HETATM   33  N   UNL     1      30.118  50.621  41.679  1.00  0.00    -0.348 N 
HETATM   34  C   UNL     1      28.888  49.900  41.355  1.00  0.00     0.127 C 
HETATM   35  C   UNL     1      30.459  51.706  40.759  1.00  0.00     0.127 C 
HETATM   36  C   UNL     1      27.702  50.849  41.194  1.00  0.00     0.034 C 
HETATM   37  C   UNL     1      27.995  52.022  40.251  1.00  0.00     0.081 C 
HETATM   38  C   UNL     1      29.313  52.706  40.635  1.00  0.00     0.034 C 
HETATM   39  O   UNL     1      30.914  48.794  42.873  1.00  0.00    -0.267 OA
BRANCH  37  40
HETATM   40  C   UNL     1      27.991  51.596  38.788  1.00  0.00     0.219 C 
HETATM   41  N   UNL     1      26.895  50.883  38.397  1.00  0.00    -0.370 N 
HETATM   42  H   UNL     1      26.276  50.440  39.062  1.00  0.00     0.159 HD
HETATM   43  H   UNL     1      26.911  50.516  37.453  1.00  0.00     0.159 HD
HETATM   44  O   UNL     1      28.879  51.854  37.986  1.00  0.00    -0.273 OA
ENDBRANCH  37  40
ENDBRANCH   9  32
TORSDOF 8
ENDMDL
MODEL 7
REMARK VINA RESULT:      -9.5      4.127      6.251
REMARK  8 active torsions:
REMARK  status: ('A' for Active; 'I' for Inactive)
REMARK    1  A    between atoms: C_6  and  N_7 
REMARK       I    between atoms: N_7  and  C_8 
REMARK    2  A    between atoms: C_8  and  C_9 
REMARK    3  A    between atoms: C_9  and  S_10 
REMARK    4  A    between atoms: S_10  and  C_11 
REMARK    5  A    between atoms: N_12  and  C_13 
REMARK    6  A    between atoms: C_13  and  C_14 
REMARK    7  A    between atoms: C_25  and  C_26 
REMARK       I    between atoms: C_26  and  N_27 
REMARK    8  A    between atoms: C_30  and  C_31 
REMARK       I    between atoms: C_31  and  N_32 
ROOT
HETATM    1  C   UNL     1      23.738  45.686  49.017  1.00  0.00     0.172 C 
HETATM    2  N   UNL     1      23.681  46.974  49.511  1.00  0.00    -0.286 N 
HETATM    3  C   UNL     1      22.628  47.812  49.156  1.00  0.00     0.262 C 
HETATM    4  O   UNL     1      22.567  49.005  49.444  1.00  0.00    -0.267 OA
HETATM    5  C   UNL     1      21.526  47.200  48.399  1.00  0.00     0.061 A 
HETATM    6  C   UNL     1      21.665  45.866  48.016  1.00  0.00     0.076 A 
HETATM    7  C   UNL     1      20.361  47.925  48.116  1.00  0.00     0.020 A 
HETATM    8  C   UNL     1      19.302  47.295  47.467  1.00  0.00     0.018 A 
HETATM    9  C   UNL     1      19.416  45.946  47.123  1.00  0.00     0.034 A 
HETATM   10  C   UNL     1      20.600  45.238  47.367  1.00  0.00     0.050 A 
HETATM   11  N   UNL     1      22.829  45.133  48.279  1.00  0.00    -0.224 NA
ENDROOT
BRANCH   1  12
HETATM   12  S   UNL     1      25.146  44.697  49.324  1.00  0.00    -0.082 SA
BRANCH  12  13
HETATM   13  C   UNL     1      24.484  43.736  50.713  1.00  0.00     0.185 C 
BRANCH  13  14
HETATM   14  C   UNL     1      25.312  43.825  51.985  1.00  0.00     0.231 C 
HETATM   15  N   UNL     1      26.664  43.583  51.834  1.00  0.00    -0.326 N 
HETATM   16  H   UNL     1      26.965  43.256  50.917  1.00  0.00     0.169 HD
HETATM   17  O   UNL     1      24.760  44.171  53.029  1.00  0.00    -0.272 OA
BRANCH  15  18
HETATM   18  C   UNL     1      27.664  43.658  52.828  1.00  0.00     0.036 A 
HETATM   19  C   UNL     1      27.816  44.731  53.708  1.00  0.00     0.053 A 
HETATM   20  C   UNL     1      28.836  44.729  54.668  1.00  0.00     0.042 A 
HETATM   21  C   UNL     1      29.715  43.643  54.782  1.00  0.00    -0.040 A 
HETATM   22 CL   UNL     1      28.977  46.114  55.695  1.00  0.00    -0.084 Cl
HETATM   23  C   UNL     1      30.831  43.613  55.786  1.00  0.00     0.050 C 
HETATM   24  C   UNL     1      29.572  42.577  53.882  1.00  0.00     0.011 A 
HETATM   25  C   UNL     1      28.558  42.587  52.917  1.00  0.00     0.030 A 
ENDBRANCH  15  18
ENDBRANCH  13  14
ENDBRANCH  12  13
ENDBRANCH   1  12
BRANCH   2  26
HETATM   26  C   UNL     1      24.651  47.548  50.448  1.00  0.00     0.199 C 
BRANCH  26  27
HETATM   27  C   UNL     1      25.678  48.303  49.677  1.00  0.00     0.070 A 
HETATM   28  O   UNL     1      26.981  47.951  49.870  1.00  0.00    -0.325 OA
HETATM   29  C   UNL     1      27.733  48.778  49.099  1.00  0.00     0.142 A 
HETATM   30  C   UNL     1      26.932  49.657  48.410  1.00  0.00     0.027 A 
HETATM   31  C   UNL     1      25.601  49.351  48.782  1.00  0.00     0.036 A 
ENDBRANCH  26  27
ENDBRANCH   2  26
BRANCH   9  32
HETATM   32  C   UNL     1      18.277  45.285  46.455  1.00  0.00     0.253 C 
HETATM   33  N   UNL     1      18.067  45.522  45.093  1.00  0.00    -0.348 N 
HETATM   34  C   UNL     1      16.961  44.801  44.465  1.00  0.00     0.127 C 
HETATM   35  C   UNL     1      19.131  45.938  44.179  1.00  0.00     0.127 C 
HETATM   36  C   UNL     1      16.374  45.579  43.289  1.00  0.00     0.034 C 
HETATM   37  C   UNL     1      17.438  46.060  42.296  1.00  0.00     0.081 C 
HETATM   38  C   UNL     1      18.578  46.776  43.031  1.00  0.00     0.034 C 
HETATM   39  O   UNL     1      17.566  44.566  47.151  1.00  0.00    -0.267 OA
BRANCH  37  40
HETATM   40  C   UNL     1      17.961  44.925  41.424  1.00  0.00     0.219 C 
HETATM   41  N   UNL     1      19.141  45.183  40.787  1.00  0.00    -0.370 N 
HETATM   42  H   UNL     1      19.499  46.121  40.677  1.00  0.00     0.159 HD
HETATM   43  H   UNL     1      19.463  44.477  40.136  1.00  0.00     0.159 HD
HETATM   44  O   UNL     1      17.403  43.846  41.278  1.00  0.00    -0.273 OA
ENDBRANCH  37  40
ENDBRANCH   9  32
TORSDOF 8
ENDMDL
MODEL 8
REMARK VINA RESULT:      -9.3      3.435      6.568
REMARK  8 active torsions:
REMARK  status: ('A' for Active; 'I' for Inactive)
REMARK    1  A    between atoms: C_6  and  N_7 
REMARK       I    between atoms: N_7  and  C_8 
REMARK    2  A    between atoms: C_8  and  C_9 
REMARK    3  A    between atoms: C_9  and  S_10 
REMARK    4  A    between atoms: S_10  and  C_11 
REMARK    5  A    between atoms: N_12  and  C_13 
REMARK    6  A    between atoms: C_13  and  C_14 
REMARK    7  A    between atoms: C_25  and  C_26 
REMARK       I    between atoms: C_26  and  N_27 
REMARK    8  A    between atoms: C_30  and  C_31 
REMARK       I    between atoms: C_31  and  N_32 
ROOT
HETATM    1  C   UNL     1      23.864  46.305  49.635  1.00  0.00     0.172 C 
HETATM    2  N   UNL     1      25.084  46.948  49.703  1.00  0.00    -0.286 N 
HETATM    3  C   UNL     1      25.210  48.255  49.239  1.00  0.00     0.262 C 
HETATM    4  O   UNL     1      26.278  48.854  49.144  1.00  0.00    -0.267 OA
HETATM    5  C   UNL     1      23.966  48.941  48.858  1.00  0.00     0.061 A 
HETATM    6  C   UNL     1      22.781  48.207  48.898  1.00  0.00     0.076 A 
HETATM    7  C   UNL     1      23.974  50.299  48.513  1.00  0.00     0.020 A 
HETATM    8  C   UNL     1      22.771  50.943  48.233  1.00  0.00     0.018 A 
HETATM    9  C   UNL     1      21.575  50.224  48.318  1.00  0.00     0.034 A 
HETATM   10  C   UNL     1      21.578  48.856  48.620  1.00  0.00     0.050 A 
HETATM   11  N   UNL     1      22.760  46.845  49.229  1.00  0.00    -0.224 NA
ENDROOT
BRANCH   1  12
HETATM   12  S   UNL     1      23.749  44.612  50.055  1.00  0.00    -0.082 SA
BRANCH  12  13
HETATM   13  C   UNL     1      24.205  43.916  48.443  1.00  0.00     0.185 C 
BRANCH  13  14
HETATM   14  C   UNL     1      24.840  42.536  48.515  1.00  0.00     0.231 C 
HETATM   15  N   UNL     1      26.219  42.519  48.595  1.00  0.00    -0.326 N 
HETATM   16  H   UNL     1      26.690  43.416  48.484  1.00  0.00     0.169 HD
HETATM   17  O   UNL     1      24.108  41.549  48.571  1.00  0.00    -0.272 OA
BRANCH  15  18
HETATM   18  C   UNL     1      27.055  41.389  48.733  1.00  0.00     0.036 A 
HETATM   19  C   UNL     1      27.314  40.477  47.707  1.00  0.00     0.053 A 
HETATM   20  C   UNL     1      28.157  39.380  47.925  1.00  0.00     0.042 A 
HETATM   21  C   UNL     1      28.775  39.181  49.168  1.00  0.00    -0.040 A 
HETATM   22 CL   UNL     1      28.398  38.278  46.613  1.00  0.00    -0.084 Cl
HETATM   23  C   UNL     1      29.670  38.007  49.443  1.00  0.00     0.050 C 
HETATM   24  C   UNL     1      28.495  40.088  50.199  1.00  0.00     0.011 A 
HETATM   25  C   UNL     1      27.644  41.178  49.983  1.00  0.00     0.030 A 
ENDBRANCH  15  18
ENDBRANCH  13  14
ENDBRANCH  12  13
ENDBRANCH   1  12
BRANCH   2  26
HETATM   26  C   UNL     1      26.298  46.368  50.282  1.00  0.00     0.199 C 
BRANCH  26  27
HETATM   27  C   UNL     1      26.182  46.386  51.767  1.00  0.00     0.070 A 
HETATM   28  O   UNL     1      25.815  47.565  52.346  1.00  0.00    -0.325 OA
HETATM   29  C   UNL     1      25.799  47.359  53.688  1.00  0.00     0.142 A 
HETATM   30  C   UNL     1      26.149  46.063  53.982  1.00  0.00     0.027 A 
HETATM   31  C   UNL     1      26.396  45.431  52.740  1.00  0.00     0.036 A 
ENDBRANCH  26  27
ENDBRANCH   2  26
BRANCH   9  32
HETATM   32  C   UNL     1      20.306  50.925  48.041  1.00  0.00     0.253 C 
HETATM   33  N   UNL     1      19.331  50.273  47.279  1.00  0.00    -0.348 N 
HETATM   34  C   UNL     1      18.070  50.986  47.081  1.00  0.00     0.127 C 
HETATM   35  C   UNL     1      19.242  48.817  47.169  1.00  0.00     0.127 C 
HETATM   36  C   UNL     1      17.401  50.595  45.764  1.00  0.00     0.034 C 
HETATM   37  C   UNL     1      17.288  49.078  45.575  1.00  0.00     0.081 C 
HETATM   38  C   UNL     1      18.639  48.400  45.831  1.00  0.00     0.034 C 
HETATM   39  O   UNL     1      20.187  52.059  48.495  1.00  0.00    -0.267 OA
BRANCH  37  40
HETATM   40  C   UNL     1      16.187  48.474  46.438  1.00  0.00     0.219 C 
HETATM   41  N   UNL     1      16.256  47.120  46.599  1.00  0.00    -0.370 N 
HETATM   42  H   UNL     1      16.811  46.534  45.991  1.00  0.00     0.159 HD
HETATM   43  H   UNL     1      15.487  46.687  47.097  1.00  0.00     0.159 HD
HETATM   44  O   UNL     1      15.290  49.114  46.970  1.00  0.00    -0.273 OA
ENDBRANCH  37  40
ENDBRANCH   9  32
TORSDOF 8
ENDMDL
MODEL 9
REMARK VINA RESULT:      -9.3      9.527     16.688
REMARK  8 active torsions:
REMARK  status: ('A' for Active; 'I' for Inactive)
REMARK    1  A    between atoms: C_6  and  N_7 
REMARK       I    between atoms: N_7  and  C_8 
REMARK    2  A    between atoms: C_8  and  C_9 
REMARK    3  A    between atoms: C_9  and  S_10 
REMARK    4  A    between atoms: S_10  and  C_11 
REMARK    5  A    between atoms: N_12  and  C_13 
REMARK    6  A    between atoms: C_13  and  C_14 
REMARK    7  A    between atoms: C_25  and  C_26 
REMARK       I    between atoms: C_26  and  N_27 
REMARK    8  A    between atoms: C_30  and  C_31 
REMARK       I    between atoms: C_31  and  N_32 
ROOT
HETATM    1  C   UNL     1      13.679  55.230  51.564  1.00  0.00     0.172 C 
HETATM    2  N   UNL     1      13.033  55.886  50.536  1.00  0.00    -0.286 N 
HETATM    3  C   UNL     1      13.302  55.546  49.213  1.00  0.00     0.262 C 
HETATM    4  O   UNL     1      12.872  56.161  48.240  1.00  0.00    -0.267 OA
HETATM    5  C   UNL     1      14.148  54.362  48.996  1.00  0.00     0.061 A 
HETATM    6  C   UNL     1      14.688  53.737  50.120  1.00  0.00     0.076 A 
HETATM    7  C   UNL     1      14.360  53.860  47.706  1.00  0.00     0.020 A 
HETATM    8  C   UNL     1      15.100  52.692  47.538  1.00  0.00     0.018 A 
HETATM    9  C   UNL     1      15.604  52.034  48.663  1.00  0.00     0.034 A 
HETATM   10  C   UNL     1      15.427  52.565  49.947  1.00  0.00     0.050 A 
HETATM   11  N   UNL     1      14.495  54.236  51.415  1.00  0.00    -0.224 NA
ENDROOT
BRANCH   1  12
HETATM   12  S   UNL     1      13.471  55.775  53.212  1.00  0.00    -0.082 SA
BRANCH  12  13
HETATM   13  C   UNL     1      15.049  56.652  53.392  1.00  0.00     0.185 C 
BRANCH  13  14
HETATM   14  C   UNL     1      15.018  57.792  54.399  1.00  0.00     0.231 C 
HETATM   15  N   UNL     1      15.905  58.823  54.158  1.00  0.00    -0.326 N 
HETATM   16  H   UNL     1      16.573  58.678  53.402  1.00  0.00     0.169 HD
HETATM   17  O   UNL     1      14.180  57.765  55.299  1.00  0.00    -0.272 OA
BRANCH  15  18
HETATM   18  C   UNL     1      16.045  60.022  54.891  1.00  0.00     0.036 A 
HETATM   19  C   UNL     1      16.626  60.102  56.158  1.00  0.00     0.053 A 
HETATM   20  C   UNL     1      16.727  61.332  56.821  1.00  0.00     0.042 A 
HETATM   21  C   UNL     1      16.267  62.513  56.221  1.00  0.00    -0.040 A 
HETATM   22 CL   UNL     1      17.427  61.339  58.403  1.00  0.00    -0.084 Cl
HETATM   23  C   UNL     1      16.343  63.847  56.907  1.00  0.00     0.050 C 
HETATM   24  C   UNL     1      15.667  62.424  54.957  1.00  0.00     0.011 A 
HETATM   25  C   UNL     1      15.557  61.192  54.302  1.00  0.00     0.030 A 
ENDBRANCH  15  18
ENDBRANCH  13  14
ENDBRANCH  12  13
ENDBRANCH   1  12
BRANCH   2  26
HETATM   26  C   UNL     1      12.016  56.925  50.722  1.00  0.00     0.199 C 
BRANCH  26  27
HETATM   27  C   UNL     1      12.695  58.214  51.034  1.00  0.00     0.070 A 
HETATM   28  O   UNL     1      12.142  58.985  52.014  1.00  0.00    -0.325 OA
HETATM   29  C   UNL     1      12.899  60.108  52.108  1.00  0.00     0.142 A 
HETATM   30  C   UNL     1      13.932  60.072  51.203  1.00  0.00     0.027 A 
HETATM   31  C   UNL     1      13.803  58.846  50.507  1.00  0.00     0.036 A 
ENDBRANCH  26  27
ENDBRANCH   2  26
BRANCH   9  32
HETATM   32  C   UNL     1      16.367  50.785  48.471  1.00  0.00     0.253 C 
HETATM   33  N   UNL     1      17.764  50.844  48.468  1.00  0.00    -0.348 N 
HETATM   34  C   UNL     1      18.474  49.574  48.332  1.00  0.00     0.127 C 
HETATM   35  C   UNL     1      18.521  51.908  49.129  1.00  0.00     0.127 C 
HETATM   36  C   UNL     1      19.832  49.755  47.656  1.00  0.00     0.034 C 
HETATM   37  C   UNL     1      20.675  50.866  48.290  1.00  0.00     0.081 C 
HETATM   38  C   UNL     1      19.854  52.154  48.429  1.00  0.00     0.034 C 
HETATM   39  O   UNL     1      15.717  49.756  48.312  1.00  0.00    -0.267 OA
BRANCH  37  40
HETATM   40  C   UNL     1      21.275  50.440  49.624  1.00  0.00     0.219 C 
HETATM   41  N   UNL     1      21.828  49.191  49.637  1.00  0.00    -0.370 N 
HETATM   42  H   UNL     1      21.622  48.505  48.924  1.00  0.00     0.159 HD
HETATM   43  H   UNL     1      22.155  48.854  50.534  1.00  0.00     0.159 HD
HETATM   44  O   UNL     1      21.288  51.131  50.635  1.00  0.00    -0.273 OA
ENDBRANCH  37  40
ENDBRANCH   9  32
TORSDOF 8
ENDMDL
MODEL 10
REMARK VINA RESULT:      -9.2      4.826      9.242
REMARK  8 active torsions:
REMARK  status: ('A' for Active; 'I' for Inactive)
REMARK    1  A    between atoms: C_6  and  N_7 
REMARK       I    between atoms: N_7  and  C_8 
REMARK    2  A    between atoms: C_8  and  C_9 
REMARK    3  A    between atoms: C_9  and  S_10 
REMARK    4  A    between atoms: S_10  and  C_11 
REMARK    5  A    between atoms: N_12  and  C_13 
REMARK    6  A    between atoms: C_13  and  C_14 
REMARK    7  A    between atoms: C_25  and  C_26 
REMARK       I    between atoms: C_26  and  N_27 
REMARK    8  A    between atoms: C_30  and  C_31 
REMARK       I    between atoms: C_31  and  N_32 
ROOT
HETATM    1  C   UNL     1      23.116  46.469  49.141  1.00  0.00     0.172 C 
HETATM    2  N   UNL     1      24.301  47.151  49.334  1.00  0.00    -0.286 N 
HETATM    3  C   UNL     1      24.351  48.530  49.150  1.00  0.00     0.262 C 
HETATM    4  O   UNL     1      25.385  49.194  49.175  1.00  0.00    -0.267 OA
HETATM    5  C   UNL     1      23.066  49.211  48.927  1.00  0.00     0.061 A 
HETATM    6  C   UNL     1      21.923  48.420  48.822  1.00  0.00     0.076 A 
HETATM    7  C   UNL     1      22.998  50.609  48.871  1.00  0.00     0.020 A 
HETATM    8  C   UNL     1      21.757  51.230  48.738  1.00  0.00     0.018 A 
HETATM    9  C   UNL     1      20.603  50.445  48.680  1.00  0.00     0.034 A 
HETATM   10  C   UNL     1      20.682  49.046  48.691  1.00  0.00     0.050 A 
HETATM   11  N   UNL     1      21.979  47.021  48.863  1.00  0.00    -0.224 NA
ENDROOT
BRANCH   1  12
HETATM   12  S   UNL     1      23.097  44.722  49.202  1.00  0.00    -0.082 SA
BRANCH  12  13
HETATM   13  C   UNL     1      23.345  44.402  47.433  1.00  0.00     0.185 C 
BRANCH  13  14
HETATM   14  C   UNL     1      22.189  44.845  46.550  1.00  0.00     0.231 C 
HETATM   15  N   UNL     1      20.931  44.487  46.993  1.00  0.00    -0.326 N 
HETATM   16  H   UNL     1      20.895  43.867  47.800  1.00  0.00     0.169 HD
HETATM   17  O   UNL     1      22.429  45.539  45.563  1.00  0.00    -0.272 OA
BRANCH  15  18
HETATM   18  C   UNL     1      19.690  44.817  46.405  1.00  0.00     0.036 A 
HETATM   19  C   UNL     1      18.854  45.838  46.860  1.00  0.00     0.053 A 
HETATM   20  C   UNL     1      17.636  46.103  46.221  1.00  0.00     0.042 A 
HETATM   21  C   UNL     1      17.236  45.362  45.099  1.00  0.00    -0.040 A 
HETATM   22 CL   UNL     1      16.643  47.362  46.870  1.00  0.00    -0.084 Cl
HETATM   23  C   UNL     1      15.931  45.605  44.397  1.00  0.00     0.050 C 
HETATM   24  C   UNL     1      18.070  44.324  44.659  1.00  0.00     0.011 A 
HETATM   25  C   UNL     1      19.281  44.056  45.306  1.00  0.00     0.030 A 
ENDBRANCH  15  18
ENDBRANCH  13  14
ENDBRANCH  12  13
ENDBRANCH   1  12
BRANCH   2  26
HETATM   26  C   UNL     1      25.554  46.531  49.772  1.00  0.00     0.199 C 
BRANCH  26  27
HETATM   27  C   UNL     1      25.554  46.442  51.259  1.00  0.00     0.070 A 
HETATM   28  O   UNL     1      25.990  47.536  51.946  1.00  0.00    -0.325 OA
HETATM   29  C   UNL     1      25.930  47.224  53.266  1.00  0.00     0.142 A 
HETATM   30  C   UNL     1      25.461  45.944  53.440  1.00  0.00     0.027 A 
HETATM   31  C   UNL     1      25.216  45.436  52.142  1.00  0.00     0.036 A 
ENDBRANCH  26  27
ENDBRANCH   2  26
BRANCH   9  32
HETATM   32  C   UNL     1      19.294  51.117  48.562  1.00  0.00     0.253 C 
HETATM   33  N   UNL     1      18.647  51.117  47.323  1.00  0.00    -0.348 N 
HETATM   34  C   UNL     1      17.328  51.746  47.271  1.00  0.00     0.127 C 
HETATM   35  C   UNL     1      18.891  50.107  46.293  1.00  0.00     0.127 C 
HETATM   36  C   UNL     1      17.029  52.318  45.887  1.00  0.00     0.034 C 
HETATM   37  C   UNL     1      17.278  51.315  44.755  1.00  0.00     0.081 C 
HETATM   38  C   UNL     1      18.664  50.676  44.895  1.00  0.00     0.034 C 
HETATM   39  O   UNL     1      18.852  51.653  49.574  1.00  0.00    -0.267 OA
BRANCH  37  40
HETATM   40  C   UNL     1      16.181  50.260  44.674  1.00  0.00     0.219 C 
HETATM   41  N   UNL     1      16.457  49.202  43.856  1.00  0.00    -0.370 N 
HETATM   42  H   UNL     1      17.188  49.237  43.160  1.00  0.00     0.159 HD
HETATM   43  H   UNL     1      15.709  48.532  43.721  1.00  0.00     0.159 HD
HETATM   44  O   UNL     1      15.119  50.312  45.280  1.00  0.00    -0.273 OA
ENDBRANCH  37  40
ENDBRANCH   9  32
TORSDOF 8
ENDMDL
