MODEL 1
REMARK VINA RESULT:      -8.2      0.000      0.000
REMARK  5 active torsions:
REMARK  status: ('A' for Active; 'I' for Inactive)
REMARK    1  A    between atoms: C_2  and  C_3 
REMARK       I    between atoms: C_3  and  N_4 
REMARK    2  A    between atoms: N_4  and  C_5 
REMARK    3  A    between atoms: C_7  and  N_8 
REMARK       I    between atoms: N_8  and  C_9 
REMARK       I    between atoms: C_9  and  N_10 
REMARK    4  A    between atoms: N_10  and  C_11 
REMARK    5  A    between atoms: C_11  and  C_12 
ROOT
HETATM    1  N   UNL     1      25.304  44.665  53.322  1.00  0.00    -0.306 N 
HETATM    2  C   UNL     1      25.139  44.206  52.072  1.00  0.00     0.321 C 
HETATM    3  N   UNL     1      26.114  44.034  51.173  1.00  0.00    -0.338 N 
HETATM    4  O   UNL     1      24.003  43.847  51.743  1.00  0.00    -0.247 OA
HETATM    5  H   UNL     1      24.480  44.436  53.873  1.00  0.00     0.171 HD
HETATM    6  H   UNL     1      25.731  43.640  50.324  1.00  0.00     0.164 HD
ENDROOT
BRANCH   1   7
HETATM    7  C   UNL     1      26.242  45.447  54.016  1.00  0.00     0.077 C 
HETATM    8  C   UNL     1      27.238  44.957  54.860  1.00  0.00     0.062 C 
HETATM    9  C   UNL     1      28.069  45.832  55.576  1.00  0.00     0.037 C 
HETATM   10  C   UNL     1      27.989  47.209  55.330  1.00  0.00     0.032 C 
HETATM   11  C   UNL     1      27.066  47.708  54.413  1.00  0.00     0.047 C 
HETATM   12  C   UNL     1      26.200  46.827  53.778  1.00  0.00     0.143 C 
HETATM   13  F   UNL     1      25.296  47.325  52.918  1.00  0.00    -0.204 F 
BRANCH   9  14
HETATM   14  N   UNL     1      28.962  45.421  56.588  1.00  0.00    -0.327 N 
HETATM   15  C   UNL     1      30.320  45.188  56.465  1.00  0.00     0.221 C 
HETATM   16  O   UNL     1      31.028  45.474  55.505  1.00  0.00    -0.273 OA
HETATM   17  H   UNL     1      28.542  45.168  57.475  1.00  0.00     0.169 HD
BRANCH  15  18
HETATM   18  C   UNL     1      30.899  44.459  57.662  1.00  0.00     0.098 C 
HETATM   19  C   UNL     1      31.768  43.291  57.221  1.00  0.00     0.014 C 
ENDBRANCH  15  18
ENDBRANCH   9  14
ENDBRANCH   1   7
BRANCH   3  20
HETATM   20  C   UNL     1      27.549  43.917  51.308  1.00  0.00     0.167 C 
BRANCH  20  21
HETATM   21  C   UNL     1      27.910  42.526  51.715  1.00  0.00     0.009 A 
HETATM   22  C   UNL     1      28.982  42.125  52.560  1.00  0.00     0.060 A 
HETATM   23  C   UNL     1      29.976  42.988  53.246  1.00  0.00     0.073 C 
HETATM   24  N   UNL     1      29.056  40.794  52.678  1.00  0.00    -0.179 NA
HETATM   25  N   UNL     1      28.055  40.342  51.912  1.00  0.00    -0.282 N 
HETATM   26  H   UNL     1      27.924  39.338  51.840  1.00  0.00     0.189 HD
HETATM   27  C   UNL     1      27.344  41.331  51.295  1.00  0.00     0.034 A 
HETATM   28  C   UNL     1      26.225  41.033  50.368  1.00  0.00     0.070 C 
ENDBRANCH  20  21
ENDBRANCH   3  20
TORSDOF 5
ENDMDL
MODEL 2
REMARK VINA RESULT:      -8.1      3.335      6.411
REMARK  5 active torsions:
REMARK  status: ('A' for Active; 'I' for Inactive)
REMARK    1  A    between atoms: C_2  and  C_3 
REMARK       I    between atoms: C_3  and  N_4 
REMARK    2  A    between atoms: N_4  and  C_5 
REMARK    3  A    between atoms: C_7  and  N_8 
REMARK       I    between atoms: N_8  and  C_9 
REMARK       I    between atoms: C_9  and  N_10 
REMARK    4  A    between atoms: N_10  and  C_11 
REMARK    5  A    between atoms: C_11  and  C_12 
ROOT
HETATM    1  N   UNL     1      25.109  45.017  53.249  1.00  0.00    -0.306 N 
HETATM    2  C   UNL     1      25.526  44.402  54.367  1.00  0.00     0.321 C 
HETATM    3  N   UNL     1      26.782  44.391  54.824  1.00  0.00    -0.338 N 
HETATM    4  O   UNL     1      24.668  43.855  55.069  1.00  0.00    -0.247 OA
HETATM    5  H   UNL     1      24.096  45.112  53.279  1.00  0.00     0.171 HD
HETATM    6  H   UNL     1      26.822  43.893  55.702  1.00  0.00     0.164 HD
ENDROOT
BRANCH   1   7
HETATM    7  C   UNL     1      25.677  45.453  52.041  1.00  0.00     0.077 C 
HETATM    8  C   UNL     1      25.608  46.751  51.536  1.00  0.00     0.062 C 
HETATM    9  C   UNL     1      26.135  47.060  50.273  1.00  0.00     0.037 C 
HETATM   10  C   UNL     1      26.863  46.087  49.576  1.00  0.00     0.032 C 
HETATM   11  C   UNL     1      27.027  44.812  50.114  1.00  0.00     0.047 C 
HETATM   12  C   UNL     1      26.426  44.507  51.328  1.00  0.00     0.143 C 
HETATM   13  F   UNL     1      26.568  43.266  51.821  1.00  0.00    -0.204 F 
BRANCH   9  14
HETATM   14  N   UNL     1      25.935  48.292  49.615  1.00  0.00    -0.327 N 
HETATM   15  C   UNL     1      24.763  48.759  49.046  1.00  0.00     0.221 C 
HETATM   16  O   UNL     1      23.643  48.274  49.174  1.00  0.00    -0.273 OA
HETATM   17  H   UNL     1      26.766  48.847  49.449  1.00  0.00     0.169 HD
BRANCH  15  18
HETATM   18  C   UNL     1      24.985  49.965  48.154  1.00  0.00     0.098 C 
HETATM   19  C   UNL     1      23.673  50.674  47.857  1.00  0.00     0.014 C 
ENDBRANCH  15  18
ENDBRANCH   9  14
ENDBRANCH   1   7
BRANCH   3  20
HETATM   20  C   UNL     1      27.921  45.238  54.549  1.00  0.00     0.167 C 
BRANCH  20  21
HETATM   21  C   UNL     1      29.172  44.582  55.033  1.00  0.00     0.009 A 
HETATM   22  C   UNL     1      29.939  44.927  56.182  1.00  0.00     0.060 A 
HETATM   23  C   UNL     1      29.669  45.999  57.172  1.00  0.00     0.073 C 
HETATM   24  N   UNL     1      31.034  44.167  56.299  1.00  0.00    -0.179 NA
HETATM   25  N   UNL     1      30.983  43.352  55.237  1.00  0.00    -0.282 N 
HETATM   26  H   UNL     1      31.734  42.682  55.111  1.00  0.00     0.189 HD
HETATM   27  C   UNL     1      29.900  43.565  54.432  1.00  0.00     0.034 A 
HETATM   28  C   UNL     1      29.687  42.797  53.182  1.00  0.00     0.070 C 
ENDBRANCH  20  21
ENDBRANCH   3  20
TORSDOF 5
ENDMDL
MODEL 3
REMARK VINA RESULT:      -7.8     13.681     15.601
REMARK  5 active torsions:
REMARK  status: ('A' for Active; 'I' for Inactive)
REMARK    1  A    between atoms: C_2  and  C_3 
REMARK       I    between atoms: C_3  and  N_4 
REMARK    2  A    between atoms: N_4  and  C_5 
REMARK    3  A    between atoms: C_7  and  N_8 
REMARK       I    between atoms: N_8  and  C_9 
REMARK       I    between atoms: C_9  and  N_10 
REMARK    4  A    between atoms: N_10  and  C_11 
REMARK    5  A    between atoms: C_11  and  C_12 
ROOT
HETATM    1  N   UNL     1      30.962  52.478  42.785  1.00  0.00    -0.306 N 
HETATM    2  C   UNL     1      32.072  51.811  43.135  1.00  0.00     0.321 C 
HETATM    3  N   UNL     1      32.868  51.135  42.300  1.00  0.00    -0.338 N 
HETATM    4  O   UNL     1      32.429  51.880  44.316  1.00  0.00    -0.247 OA
HETATM    5  H   UNL     1      30.710  53.121  43.532  1.00  0.00     0.171 HD
HETATM    6  H   UNL     1      33.656  50.757  42.807  1.00  0.00     0.164 HD
ENDROOT
BRANCH   1   7
HETATM    7  C   UNL     1      30.028  52.445  41.736  1.00  0.00     0.077 C 
HETATM    8  C   UNL     1      28.891  51.640  41.690  1.00  0.00     0.062 C 
HETATM    9  C   UNL     1      28.071  51.619  40.552  1.00  0.00     0.037 C 
HETATM   10  C   UNL     1      28.320  52.521  39.509  1.00  0.00     0.032 C 
HETATM   11  C   UNL     1      29.395  53.403  39.584  1.00  0.00     0.047 C 
HETATM   12  C   UNL     1      30.240  53.348  40.686  1.00  0.00     0.143 C 
HETATM   13  F   UNL     1      31.290  54.185  40.731  1.00  0.00    -0.204 F 
BRANCH   9  14
HETATM   14  N   UNL     1      27.022  50.696  40.353  1.00  0.00    -0.327 N 
HETATM   15  C   UNL     1      27.090  49.316  40.439  1.00  0.00     0.221 C 
HETATM   16  O   UNL     1      28.022  48.656  40.885  1.00  0.00    -0.273 OA
HETATM   17  H   UNL     1      26.151  51.081  40.006  1.00  0.00     0.169 HD
BRANCH  15  18
HETATM   18  C   UNL     1      25.867  48.633  39.857  1.00  0.00     0.098 C 
HETATM   19  C   UNL     1      25.134  49.555  38.895  1.00  0.00     0.014 C 
ENDBRANCH  15  18
ENDBRANCH   9  14
ENDBRANCH   1   7
BRANCH   3  20
HETATM   20  C   UNL     1      33.034  51.187  40.864  1.00  0.00     0.167 C 
BRANCH  20  21
HETATM   21  C   UNL     1      32.137  50.187  40.211  1.00  0.00     0.009 A 
HETATM   22  C   UNL     1      31.596  50.243  38.896  1.00  0.00     0.060 A 
HETATM   23  C   UNL     1      31.807  51.290  37.865  1.00  0.00     0.073 C 
HETATM   24  N   UNL     1      30.787  49.207  38.644  1.00  0.00    -0.179 NA
HETATM   25  N   UNL     1      30.796  48.500  39.781  1.00  0.00    -0.282 N 
HETATM   26  H   UNL     1      30.230  47.659  39.825  1.00  0.00     0.189 HD
HETATM   27  C   UNL     1      31.572  49.047  40.762  1.00  0.00     0.034 A 
HETATM   28  C   UNL     1      31.677  48.439  42.111  1.00  0.00     0.070 C 
ENDBRANCH  20  21
ENDBRANCH   3  20
TORSDOF 5
ENDMDL
MODEL 4
REMARK VINA RESULT:      -7.8     13.674     15.227
REMARK  5 active torsions:
REMARK  status: ('A' for Active; 'I' for Inactive)
REMARK    1  A    between atoms: C_2  and  C_3 
REMARK       I    between atoms: C_3  and  N_4 
REMARK    2  A    between atoms: N_4  and  C_5 
REMARK    3  A    between atoms: C_7  and  N_8 
REMARK       I    between atoms: N_8  and  C_9 
REMARK       I    between atoms: C_9  and  N_10 
REMARK    4  A    between atoms: N_10  and  C_11 
REMARK    5  A    between atoms: C_11  and  C_12 
ROOT
HETATM    1  N   UNL     1      31.781  48.583  39.911  1.00  0.00    -0.306 N 
HETATM    2  C   UNL     1      30.716  48.443  39.105  1.00  0.00     0.321 C 
HETATM    3  N   UNL     1      29.865  49.417  38.767  1.00  0.00    -0.338 N 
HETATM    4  O   UNL     1      30.545  47.339  38.575  1.00  0.00    -0.247 OA
HETATM    5  H   UNL     1      32.404  47.790  39.779  1.00  0.00     0.171 HD
HETATM    6  H   UNL     1      29.176  49.061  38.120  1.00  0.00     0.164 HD
ENDROOT
BRANCH   1   7
HETATM    7  C   UNL     1      32.191  49.456  40.931  1.00  0.00     0.077 C 
HETATM    8  C   UNL     1      33.213  50.398  40.828  1.00  0.00     0.062 C 
HETATM    9  C   UNL     1      33.603  51.161  41.938  1.00  0.00     0.037 C 
HETATM   10  C   UNL     1      32.864  51.074  43.125  1.00  0.00     0.032 C 
HETATM   11  C   UNL     1      31.775  50.209  43.213  1.00  0.00     0.047 C 
HETATM   12  C   UNL     1      31.459  49.405  42.125  1.00  0.00     0.143 C 
HETATM   13  F   UNL     1      30.425  48.555  42.234  1.00  0.00    -0.204 F 
BRANCH   9  14
HETATM   14  N   UNL     1      34.747  51.988  41.965  1.00  0.00    -0.327 N 
HETATM   15  C   UNL     1      36.037  51.625  42.310  1.00  0.00     0.221 C 
HETATM   16  O   UNL     1      36.458  50.484  42.473  1.00  0.00    -0.273 OA
HETATM   17  H   UNL     1      34.584  52.976  41.819  1.00  0.00     0.169 HD
BRANCH  15  18
HETATM   18  C   UNL     1      36.941  52.822  42.536  1.00  0.00     0.098 C 
HETATM   19  C   UNL     1      36.885  53.281  43.985  1.00  0.00     0.014 C 
ENDBRANCH  15  18
ENDBRANCH   9  14
ENDBRANCH   1   7
BRANCH   3  20
HETATM   20  C   UNL     1      29.973  50.858  38.812  1.00  0.00     0.167 C 
BRANCH  20  21
HETATM   21  C   UNL     1      28.963  51.416  39.760  1.00  0.00     0.009 A 
HETATM   22  C   UNL     1      29.179  52.387  40.778  1.00  0.00     0.060 A 
HETATM   23  C   UNL     1      30.444  53.083  41.123  1.00  0.00     0.073 C 
HETATM   24  N   UNL     1      28.068  52.627  41.484  1.00  0.00    -0.179 NA
HETATM   25  N   UNL     1      27.152  51.815  40.940  1.00  0.00    -0.282 N 
HETATM   26  H   UNL     1      26.216  51.819  41.333  1.00  0.00     0.189 HD
HETATM   27  C   UNL     1      27.634  51.052  39.915  1.00  0.00     0.034 A 
HETATM   28  C   UNL     1      26.788  50.057  39.213  1.00  0.00     0.070 C 
ENDBRANCH  20  21
ENDBRANCH   3  20
TORSDOF 5
ENDMDL
MODEL 5
REMARK VINA RESULT:      -7.7      2.966      4.641
REMARK  5 active torsions:
REMARK  status: ('A' for Active; 'I' for Inactive)
REMARK    1  A    between atoms: C_2  and  C_3 
REMARK       I    between atoms: C_3  and  N_4 
REMARK    2  A    between atoms: N_4  and  C_5 
REMARK    3  A    between atoms: C_7  and  N_8 
REMARK       I    between atoms: N_8  and  C_9 
REMARK       I    between atoms: C_9  and  N_10 
REMARK    4  A    between atoms: N_10  and  C_11 
REMARK    5  A    between atoms: C_11  and  C_12 
ROOT
HETATM    1  N   UNL     1      27.245  43.071  50.941  1.00  0.00    -0.306 N 
HETATM    2  C   UNL     1      26.872  43.441  49.705  1.00  0.00     0.321 C 
HETATM    3  N   UNL     1      26.688  44.700  49.295  1.00  0.00    -0.338 N 
HETATM    4  O   UNL     1      26.754  42.551  48.857  1.00  0.00    -0.247 OA
HETATM    5  H   UNL     1      27.582  42.111  50.914  1.00  0.00     0.171 HD
HETATM    6  H   UNL     1      26.449  44.708  48.313  1.00  0.00     0.164 HD
ENDROOT
BRANCH   1   7
HETATM    7  C   UNL     1      27.193  43.611  52.236  1.00  0.00     0.077 C 
HETATM    8  C   UNL     1      28.291  44.042  52.979  1.00  0.00     0.062 C 
HETATM    9  C   UNL     1      28.137  44.483  54.301  1.00  0.00     0.037 C 
HETATM   10  C   UNL     1      26.848  44.625  54.832  1.00  0.00     0.032 C 
HETATM   11  C   UNL     1      25.732  44.293  54.067  1.00  0.00     0.047 C 
HETATM   12  C   UNL     1      25.916  43.781  52.789  1.00  0.00     0.143 C 
HETATM   13  F   UNL     1      24.832  43.438  52.073  1.00  0.00    -0.204 F 
BRANCH   9  14
HETATM   14  N   UNL     1      29.213  44.749  55.175  1.00  0.00    -0.327 N 
HETATM   15  C   UNL     1      30.205  43.872  55.575  1.00  0.00     0.221 C 
HETATM   16  O   UNL     1      30.439  42.765  55.101  1.00  0.00    -0.273 OA
HETATM   17  H   UNL     1      29.195  45.648  55.641  1.00  0.00     0.169 HD
BRANCH  15  18
HETATM   18  C   UNL     1      31.006  44.392  56.754  1.00  0.00     0.098 C 
HETATM   19  C   UNL     1      32.033  43.368  57.210  1.00  0.00     0.014 C 
ENDBRANCH  15  18
ENDBRANCH   9  14
ENDBRANCH   1   7
BRANCH   3  20
HETATM   20  C   UNL     1      27.135  45.968  49.825  1.00  0.00     0.167 C 
BRANCH  20  21
HETATM   21  C   UNL     1      26.078  47.004  49.627  1.00  0.00     0.009 A 
HETATM   22  C   UNL     1      26.267  48.385  49.336  1.00  0.00     0.060 A 
HETATM   23  C   UNL     1      27.547  49.111  49.144  1.00  0.00     0.073 C 
HETATM   24  N   UNL     1      25.105  49.046  49.271  1.00  0.00    -0.179 NA
HETATM   25  N   UNL     1      24.181  48.110  49.529  1.00  0.00    -0.282 N 
HETATM   26  H   UNL     1      23.207  48.393  49.545  1.00  0.00     0.189 HD
HETATM   27  C   UNL     1      24.705  46.872  49.768  1.00  0.00     0.034 A 
HETATM   28  C   UNL     1      23.849  45.713  50.117  1.00  0.00     0.070 C 
ENDBRANCH  20  21
ENDBRANCH   3  20
TORSDOF 5
ENDMDL
MODEL 6
REMARK VINA RESULT:      -7.7      2.045      2.821
REMARK  5 active torsions:
REMARK  status: ('A' for Active; 'I' for Inactive)
REMARK    1  A    between atoms: C_2  and  C_3 
REMARK       I    between atoms: C_3  and  N_4 
REMARK    2  A    between atoms: N_4  and  C_5 
REMARK    3  A    between atoms: C_7  and  N_8 
REMARK       I    between atoms: N_8  and  C_9 
REMARK       I    between atoms: C_9  and  N_10 
REMARK    4  A    between atoms: N_10  and  C_11 
REMARK    5  A    between atoms: C_11  and  C_12 
ROOT
HETATM    1  N   UNL     1      26.751  45.437  51.278  1.00  0.00    -0.306 N 
HETATM    2  C   UNL     1      26.956  44.938  50.048  1.00  0.00     0.321 C 
HETATM    3  N   UNL     1      26.943  43.640  49.726  1.00  0.00    -0.338 N 
HETATM    4  O   UNL     1      27.104  45.744  49.124  1.00  0.00    -0.247 OA
HETATM    5  H   UNL     1      26.535  46.428  51.203  1.00  0.00     0.171 HD
HETATM    6  H   UNL     1      27.085  43.534  48.731  1.00  0.00     0.164 HD
ENDROOT
BRANCH   1   7
HETATM    7  C   UNL     1      26.857  44.985  52.603  1.00  0.00     0.077 C 
HETATM    8  C   UNL     1      28.008  45.039  53.387  1.00  0.00     0.062 C 
HETATM    9  C   UNL     1      28.030  44.477  54.672  1.00  0.00     0.037 C 
HETATM   10  C   UNL     1      26.842  43.982  55.226  1.00  0.00     0.032 C 
HETATM   11  C   UNL     1      25.659  44.012  54.492  1.00  0.00     0.047 C 
HETATM   12  C   UNL     1      25.681  44.499  53.191  1.00  0.00     0.143 C 
HETATM   13  F   UNL     1      24.539  44.495  52.485  1.00  0.00    -0.204 F 
BRANCH   9  14
HETATM   14  N   UNL     1      29.201  44.321  55.445  1.00  0.00    -0.327 N 
HETATM   15  C   UNL     1      30.313  43.556  55.138  1.00  0.00     0.221 C 
HETATM   16  O   UNL     1      30.563  43.026  54.061  1.00  0.00    -0.273 OA
HETATM   17  H   UNL     1      29.179  44.728  56.372  1.00  0.00     0.169 HD
BRANCH  15  18
HETATM   18  C   UNL     1      31.237  43.365  56.326  1.00  0.00     0.098 C 
HETATM   19  C   UNL     1      30.985  44.424  57.388  1.00  0.00     0.014 C 
ENDBRANCH  15  18
ENDBRANCH   9  14
ENDBRANCH   1   7
BRANCH   3  20
HETATM   20  C   UNL     1      26.393  42.481  50.392  1.00  0.00     0.167 C 
BRANCH  20  21
HETATM   21  C   UNL     1      27.415  41.394  50.449  1.00  0.00     0.009 A 
HETATM   22  C   UNL     1      27.897  40.605  49.367  1.00  0.00     0.060 A 
HETATM   23  C   UNL     1      27.515  40.687  47.935  1.00  0.00     0.073 C 
HETATM   24  N   UNL     1      28.776  39.681  49.773  1.00  0.00    -0.179 NA
HETATM   25  N   UNL     1      28.852  39.862  51.098  1.00  0.00    -0.282 N 
HETATM   26  H   UNL     1      29.464  39.251  51.630  1.00  0.00     0.189 HD
HETATM   27  C   UNL     1      28.046  40.861  51.564  1.00  0.00     0.034 A 
HETATM   28  C   UNL     1      27.953  41.186  53.007  1.00  0.00     0.070 C 
ENDBRANCH  20  21
ENDBRANCH   3  20
TORSDOF 5
ENDMDL
MODEL 7
REMARK VINA RESULT:      -7.7      3.953      7.109
REMARK  5 active torsions:
REMARK  status: ('A' for Active; 'I' for Inactive)
REMARK    1  A    between atoms: C_2  and  C_3 
REMARK       I    between atoms: C_3  and  N_4 
REMARK    2  A    between atoms: N_4  and  C_5 
REMARK    3  A    between atoms: C_7  and  N_8 
REMARK       I    between atoms: N_8  and  C_9 
REMARK       I    between atoms: C_9  and  N_10 
REMARK    4  A    between atoms: N_10  and  C_11 
REMARK    5  A    between atoms: C_11  and  C_12 
ROOT
HETATM    1  N   UNL     1      26.115  44.186  49.220  1.00  0.00    -0.306 N 
HETATM    2  C   UNL     1      26.738  43.221  49.915  1.00  0.00     0.321 C 
HETATM    3  N   UNL     1      26.808  43.147  51.248  1.00  0.00    -0.338 N 
HETATM    4  O   UNL     1      27.233  42.287  49.274  1.00  0.00    -0.247 OA
HETATM    5  H   UNL     1      25.967  43.866  48.266  1.00  0.00     0.171 HD
HETATM    6  H   UNL     1      27.299  42.306  51.519  1.00  0.00     0.164 HD
ENDROOT
BRANCH   1   7
HETATM    7  C   UNL     1      25.721  45.517  49.433  1.00  0.00     0.077 C 
HETATM    8  C   UNL     1      24.407  45.959  49.581  1.00  0.00     0.062 C 
HETATM    9  C   UNL     1      24.118  47.326  49.701  1.00  0.00     0.037 C 
HETATM   10  C   UNL     1      25.170  48.244  49.814  1.00  0.00     0.032 C 
HETATM   11  C   UNL     1      26.492  47.806  49.769  1.00  0.00     0.047 C 
HETATM   12  C   UNL     1      26.752  46.457  49.568  1.00  0.00     0.143 C 
HETATM   13  F   UNL     1      28.031  46.053  49.498  1.00  0.00    -0.204 F 
BRANCH   9  14
HETATM   14  N   UNL     1      22.813  47.863  49.660  1.00  0.00    -0.327 N 
HETATM   15  C   UNL     1      22.246  48.612  48.644  1.00  0.00     0.221 C 
HETATM   16  O   UNL     1      22.704  48.788  47.520  1.00  0.00    -0.273 OA
HETATM   17  H   UNL     1      22.271  47.780  50.511  1.00  0.00     0.169 HD
BRANCH  15  18
HETATM   18  C   UNL     1      20.955  49.287  49.066  1.00  0.00     0.098 C 
HETATM   19  C   UNL     1      21.118  50.799  49.108  1.00  0.00     0.014 C 
ENDBRANCH  15  18
ENDBRANCH   9  14
ENDBRANCH   1   7
BRANCH   3  20
HETATM   20  C   UNL     1      26.024  43.760  52.296  1.00  0.00     0.167 C 
BRANCH  20  21
HETATM   21  C   UNL     1      26.916  44.527  53.217  1.00  0.00     0.009 A 
HETATM   22  C   UNL     1      28.022  44.028  53.960  1.00  0.00     0.060 A 
HETATM   23  C   UNL     1      28.559  42.645  53.982  1.00  0.00     0.073 C 
HETATM   24  N   UNL     1      28.575  44.973  54.729  1.00  0.00    -0.179 NA
HETATM   25  N   UNL     1      27.831  46.062  54.496  1.00  0.00    -0.282 N 
HETATM   26  H   UNL     1      28.065  46.916  54.992  1.00  0.00     0.189 HD
HETATM   27  C   UNL     1      26.811  45.852  53.613  1.00  0.00     0.034 A 
HETATM   28  C   UNL     1      25.846  46.921  53.259  1.00  0.00     0.070 C 
ENDBRANCH  20  21
ENDBRANCH   3  20
TORSDOF 5
ENDMDL
MODEL 8
REMARK VINA RESULT:      -7.5     10.002     13.069
REMARK  5 active torsions:
REMARK  status: ('A' for Active; 'I' for Inactive)
REMARK    1  A    between atoms: C_2  and  C_3 
REMARK       I    between atoms: C_3  and  N_4 
REMARK    2  A    between atoms: N_4  and  C_5 
REMARK    3  A    between atoms: C_7  and  N_8 
REMARK       I    between atoms: N_8  and  C_9 
REMARK       I    between atoms: C_9  and  N_10 
REMARK    4  A    between atoms: N_10  and  C_11 
REMARK    5  A    between atoms: C_11  and  C_12 
ROOT
HETATM    1  N   UNL     1      18.816  49.948  51.150  1.00  0.00    -0.306 N 
HETATM    2  C   UNL     1      18.620  48.642  51.391  1.00  0.00     0.321 C 
HETATM    3  N   UNL     1      18.673  47.668  50.477  1.00  0.00    -0.338 N 
HETATM    4  O   UNL     1      18.442  48.301  52.565  1.00  0.00    -0.247 OA
HETATM    5  H   UNL     1      19.000  50.425  52.030  1.00  0.00     0.171 HD
HETATM    6  H   UNL     1      18.528  46.772  50.922  1.00  0.00     0.164 HD
ENDROOT
BRANCH   1   7
HETATM    7  C   UNL     1      18.732  50.815  50.049  1.00  0.00     0.077 C 
HETATM    8  C   UNL     1      17.555  51.353  49.530  1.00  0.00     0.062 C 
HETATM    9  C   UNL     1      17.574  52.140  48.370  1.00  0.00     0.037 C 
HETATM   10  C   UNL     1      18.804  52.505  47.807  1.00  0.00     0.032 C 
HETATM   11  C   UNL     1      19.996  52.057  48.373  1.00  0.00     0.047 C 
HETATM   12  C   UNL     1      19.947  51.213  49.475  1.00  0.00     0.143 C 
HETATM   13  F   UNL     1      21.103  50.766  49.993  1.00  0.00    -0.204 F 
BRANCH   9  14
HETATM   14  N   UNL     1      16.415  52.556  47.679  1.00  0.00    -0.327 N 
HETATM   15  C   UNL     1      15.639  51.804  46.814  1.00  0.00     0.221 C 
HETATM   16  O   UNL     1      15.706  50.593  46.635  1.00  0.00    -0.273 OA
HETATM   17  H   UNL     1      16.190  53.541  47.742  1.00  0.00     0.169 HD
BRANCH  15  18
HETATM   18  C   UNL     1      14.669  52.652  46.012  1.00  0.00     0.098 C 
HETATM   19  C   UNL     1      15.412  53.605  45.089  1.00  0.00     0.014 C 
ENDBRANCH  15  18
ENDBRANCH   9  14
ENDBRANCH   1   7
BRANCH   3  20
HETATM   20  C   UNL     1      19.263  47.606  49.158  1.00  0.00     0.167 C 
BRANCH  20  21
HETATM   21  C   UNL     1      18.703  46.445  48.404  1.00  0.00     0.009 A 
HETATM   22  C   UNL     1      19.360  45.222  48.090  1.00  0.00     0.060 A 
HETATM   23  C   UNL     1      20.739  44.807  48.451  1.00  0.00     0.073 C 
HETATM   24  N   UNL     1      18.588  44.413  47.356  1.00  0.00    -0.179 NA
HETATM   25  N   UNL     1      17.455  45.107  47.187  1.00  0.00    -0.282 N 
HETATM   26  H   UNL     1      16.713  44.684  46.638  1.00  0.00     0.189 HD
HETATM   27  C   UNL     1      17.471  46.338  47.776  1.00  0.00     0.034 A 
HETATM   28  C   UNL     1      16.329  47.277  47.664  1.00  0.00     0.070 C 
ENDBRANCH  20  21
ENDBRANCH   3  20
TORSDOF 5
ENDMDL
MODEL 9
REMARK VINA RESULT:      -7.4     13.563     15.182
REMARK  5 active torsions:
REMARK  status: ('A' for Active; 'I' for Inactive)
REMARK    1  A    between atoms: C_2  and  C_3 
REMARK       I    between atoms: C_3  and  N_4 
REMARK    2  A    between atoms: N_4  and  C_5 
REMARK    3  A    between atoms: C_7  and  N_8 
REMARK       I    between atoms: N_8  and  C_9 
REMARK       I    between atoms: C_9  and  N_10 
REMARK    4  A    between atoms: N_10  and  C_11 
REMARK    5  A    between atoms: C_11  and  C_12 
ROOT
HETATM    1  N   UNL     1      28.658  48.806  40.495  1.00  0.00    -0.306 N 
HETATM    2  C   UNL     1      27.847  49.649  39.837  1.00  0.00     0.321 C 
HETATM    3  N   UNL     1      28.246  50.669  39.069  1.00  0.00    -0.338 N 
HETATM    4  O   UNL     1      26.633  49.426  39.887  1.00  0.00    -0.247 OA
HETATM    5  H   UNL     1      28.131  47.977  40.761  1.00  0.00     0.171 HD
HETATM    6  H   UNL     1      27.442  51.122  38.657  1.00  0.00     0.164 HD
ENDROOT
BRANCH   1   7
HETATM    7  C   UNL     1      29.972  48.818  40.990  1.00  0.00     0.077 C 
HETATM    8  C   UNL     1      30.435  49.606  42.043  1.00  0.00     0.062 C 
HETATM    9  C   UNL     1      31.791  49.606  42.399  1.00  0.00     0.037 C 
HETATM   10  C   UNL     1      32.663  48.699  41.783  1.00  0.00     0.032 C 
HETATM   11  C   UNL     1      32.196  47.833  40.797  1.00  0.00     0.047 C 
HETATM   12  C   UNL     1      30.865  47.909  40.405  1.00  0.00     0.143 C 
HETATM   13  F   UNL     1      30.435  47.088  39.433  1.00  0.00    -0.204 F 
BRANCH   9  14
HETATM   14  N   UNL     1      32.366  50.511  43.317  1.00  0.00    -0.327 N 
HETATM   15  C   UNL     1      33.388  51.413  43.077  1.00  0.00     0.221 C 
HETATM   16  O   UNL     1      33.850  51.722  41.984  1.00  0.00    -0.273 OA
HETATM   17  H   UNL     1      32.070  50.415  44.280  1.00  0.00     0.169 HD
BRANCH  15  18
HETATM   18  C   UNL     1      33.966  51.995  44.353  1.00  0.00     0.098 C 
HETATM   19  C   UNL     1      35.413  52.418  44.153  1.00  0.00     0.014 C 
ENDBRANCH  15  18
ENDBRANCH   9  14
ENDBRANCH   1   7
BRANCH   3  20
HETATM   20  C   UNL     1      29.509  50.967  38.432  1.00  0.00     0.167 C 
BRANCH  20  21
HETATM   21  C   UNL     1      30.329  51.851  39.313  1.00  0.00     0.009 A 
HETATM   22  C   UNL     1      29.855  52.801  40.261  1.00  0.00     0.060 A 
HETATM   23  C   UNL     1      28.449  53.123  40.608  1.00  0.00     0.073 C 
HETATM   24  N   UNL     1      30.859  53.465  40.848  1.00  0.00    -0.179 NA
HETATM   25  N   UNL     1      31.962  52.960  40.280  1.00  0.00    -0.282 N 
HETATM   26  H   UNL     1      32.861  53.331  40.570  1.00  0.00     0.189 HD
HETATM   27  C   UNL     1      31.707  52.003  39.340  1.00  0.00     0.034 A 
HETATM   28  C   UNL     1      32.793  51.355  38.565  1.00  0.00     0.070 C 
ENDBRANCH  20  21
ENDBRANCH   3  20
TORSDOF 5
ENDMDL
MODEL 10
REMARK VINA RESULT:      -7.4      3.152      6.186
REMARK  5 active torsions:
REMARK  status: ('A' for Active; 'I' for Inactive)
REMARK    1  A    between atoms: C_2  and  C_3 
REMARK       I    between atoms: C_3  and  N_4 
REMARK    2  A    between atoms: N_4  and  C_5 
REMARK    3  A    between atoms: C_7  and  N_8 
REMARK       I    between atoms: N_8  and  C_9 
REMARK       I    between atoms: C_9  and  N_10 
REMARK    4  A    between atoms: N_10  and  C_11 
REMARK    5  A    between atoms: C_11  and  C_12 
ROOT
HETATM    1  N   UNL     1      27.283  42.165  51.120  1.00  0.00    -0.306 N 
HETATM    2  C   UNL     1      28.077  41.736  52.114  1.00  0.00     0.321 C 
HETATM    3  N   UNL     1      28.110  42.238  53.353  1.00  0.00    -0.338 N 
HETATM    4  O   UNL     1      28.790  40.752  51.888  1.00  0.00    -0.247 OA
HETATM    5  H   UNL     1      27.247  41.455  50.393  1.00  0.00     0.171 HD
HETATM    6  H   UNL     1      28.764  41.713  53.918  1.00  0.00     0.164 HD
ENDROOT
BRANCH   1   7
HETATM    7  C   UNL     1      26.597  43.344  50.788  1.00  0.00     0.077 C 
HETATM    8  C   UNL     1      27.175  44.493  50.249  1.00  0.00     0.062 C 
HETATM    9  C   UNL     1      26.411  45.650  50.036  1.00  0.00     0.037 C 
HETATM   10  C   UNL     1      25.025  45.604  50.235  1.00  0.00     0.032 C 
HETATM   11  C   UNL     1      24.417  44.432  50.678  1.00  0.00     0.047 C 
HETATM   12  C   UNL     1      25.206  43.324  50.959  1.00  0.00     0.143 C 
HETATM   13  F   UNL     1      24.609  42.210  51.413  1.00  0.00    -0.204 F 
BRANCH   9  14
HETATM   14  N   UNL     1      26.958  46.902  49.680  1.00  0.00    -0.327 N 
HETATM   15  C   UNL     1      26.291  48.110  49.581  1.00  0.00     0.221 C 
HETATM   16  O   UNL     1      25.152  48.352  49.963  1.00  0.00    -0.273 OA
HETATM   17  H   UNL     1      27.919  46.892  49.361  1.00  0.00     0.169 HD
BRANCH  15  18
HETATM   18  C   UNL     1      27.110  49.173  48.873  1.00  0.00     0.098 C 
HETATM   19  C   UNL     1      26.216  50.108  48.074  1.00  0.00     0.014 C 
ENDBRANCH  15  18
ENDBRANCH   9  14
ENDBRANCH   1   7
BRANCH   3  20
HETATM   20  C   UNL     1      27.169  43.044  54.098  1.00  0.00     0.167 C 
BRANCH  20  21
HETATM   21  C   UNL     1      27.776  44.370  54.418  1.00  0.00     0.009 A 
HETATM   22  C   UNL     1      29.064  44.618  54.973  1.00  0.00     0.060 A 
HETATM   23  C   UNL     1      30.105  43.627  55.344  1.00  0.00     0.073 C 
HETATM   24  N   UNL     1      29.276  45.923  55.182  1.00  0.00    -0.179 NA
HETATM   25  N   UNL     1      28.139  46.508  54.781  1.00  0.00    -0.282 N 
HETATM   26  H   UNL     1      28.067  47.517  54.861  1.00  0.00     0.189 HD
HETATM   27  C   UNL     1      27.197  45.628  54.330  1.00  0.00     0.034 A 
HETATM   28  C   UNL     1      25.856  46.074  53.885  1.00  0.00     0.070 C 
ENDBRANCH  20  21
ENDBRANCH   3  20
TORSDOF 5
ENDMDL
