MODEL 1
REMARK VINA RESULT:      -7.7      0.000      0.000
REMARK  6 active torsions:
REMARK  status: ('A' for Active; 'I' for Inactive)
REMARK    1  A    between atoms: N_2  and  C_4 
REMARK    2  A    between atoms: N_2  and  C_11 
REMARK    3  A    between atoms: C_4  and  C_5 
REMARK    4  A    between atoms: C_5  and  O_6 
REMARK    5  A    between atoms: C_11  and  C_12 
REMARK    6  A    between atoms: C_13  and  C_14 
ROOT
HETATM    1  C   UNL     1      27.424  45.350  54.541  1.00  0.00     0.016 A 
HETATM    2  C   UNL     1      28.534  45.921  55.252  1.00  0.00     0.102 A 
HETATM    3  N   UNL     1      28.577  47.248  55.079  1.00  0.00    -0.174 NA
HETATM    4  N   UNL     1      27.525  47.540  54.311  1.00  0.00    -0.288 N 
HETATM    5  H   UNL     1      27.368  48.514  54.066  1.00  0.00     0.188 HD
HETATM    6  C   UNL     1      26.793  46.440  53.967  1.00  0.00     0.120 A 
ENDROOT
BRANCH   1   7
HETATM    7  C   UNL     1      27.055  43.907  54.506  1.00  0.00     0.277 C 
BRANCH   7   8
HETATM    8  N   UNL     1      27.224  43.220  53.165  1.00  0.00    -0.068 N 
HETATM    9  C   UNL     1      27.831  41.845  53.323  1.00  0.00     0.270 C 
HETATM   10  H   UNL     1      27.887  43.792  52.634  1.00  0.00     0.279 HD
BRANCH   8  11
HETATM   11  C   UNL     1      25.901  43.195  52.401  1.00  0.00     0.272 C 
BRANCH  11  12
HETATM   12  C   UNL     1      25.967  43.888  51.020  1.00  0.00     0.082 C 
HETATM   13  C   UNL     1      25.026  45.094  50.962  1.00  0.00     0.039 C 
HETATM   14  C   UNL     1      25.548  45.915  49.789  1.00  0.00     0.003 C 
HETATM   15  C   UNL     1      27.056  45.681  49.769  1.00  0.00     0.003 C 
HETATM   16  C   UNL     1      27.336  44.494  50.695  1.00  0.00     0.039 C 
BRANCH  12  17
HETATM   17  O   UNL     1      25.601  42.948  50.008  1.00  0.00    -0.388 OA
HETATM   18  H   UNL     1      24.908  42.352  50.353  1.00  0.00     0.210 HD
ENDBRANCH  12  17
ENDBRANCH  11  12
ENDBRANCH   8  11
ENDBRANCH   7   8
ENDBRANCH   1   7
BRANCH   2  19
HETATM   19  C   UNL     1      29.536  45.261  56.078  1.00  0.00     0.072 A 
HETATM   20  C   UNL     1      30.372  44.273  55.552  1.00  0.00     0.132 A 
HETATM   21  F   UNL     1      30.243  43.886  54.274  1.00  0.00    -0.205 F 
HETATM   22  C   UNL     1      31.345  43.650  56.336  1.00  0.00     0.043 A 
HETATM   23  C   UNL     1      31.496  44.017  57.672  1.00  0.00     0.006 A 
HETATM   24  C   UNL     1      30.669  44.998  58.216  1.00  0.00     0.043 A 
HETATM   25  C   UNL     1      29.699  45.610  57.421  1.00  0.00     0.132 A 
HETATM   26  F   UNL     1      28.894  46.516  57.995  1.00  0.00    -0.205 F 
ENDBRANCH   2  19
TORSDOF 6
ENDMDL
MODEL 2
REMARK VINA RESULT:      -7.7     13.344     15.844
REMARK  6 active torsions:
REMARK  status: ('A' for Active; 'I' for Inactive)
REMARK    1  A    between atoms: N_2  and  C_4 
REMARK    2  A    between atoms: N_2  and  C_11 
REMARK    3  A    between atoms: C_4  and  C_5 
REMARK    4  A    between atoms: C_5  and  O_6 
REMARK    5  A    between atoms: C_11  and  C_12 
REMARK    6  A    between atoms: C_13  and  C_14 
ROOT
HETATM    1  C   UNL     1      33.237  51.367  41.463  1.00  0.00     0.016 A 
HETATM    2  C   UNL     1      32.846  52.156  40.329  1.00  0.00     0.102 A 
HETATM    3  N   UNL     1      33.906  52.770  39.789  1.00  0.00    -0.174 NA
HETATM    4  N   UNL     1      34.952  52.380  40.520  1.00  0.00    -0.288 N 
HETATM    5  H   UNL     1      35.872  52.732  40.265  1.00  0.00     0.188 HD
HETATM    6  C   UNL     1      34.610  51.530  41.532  1.00  0.00     0.120 A 
ENDROOT
BRANCH   1   7
HETATM    7  C   UNL     1      32.331  50.541  42.310  1.00  0.00     0.277 C 
BRANCH   7   8
HETATM    8  N   UNL     1      31.758  49.305  41.643  1.00  0.00    -0.068 N 
HETATM    9  C   UNL     1      32.839  48.294  41.335  1.00  0.00     0.270 C 
HETATM   10  H   UNL     1      31.365  49.619  40.751  1.00  0.00     0.279 HD
BRANCH   8  11
HETATM   11  C   UNL     1      30.623  48.717  42.480  1.00  0.00     0.272 C 
BRANCH  11  12
HETATM   12  C   UNL     1      29.247  48.754  41.776  1.00  0.00     0.082 C 
HETATM   13  C   UNL     1      28.743  50.192  41.625  1.00  0.00     0.039 C 
HETATM   14  C   UNL     1      27.684  50.100  40.533  1.00  0.00     0.003 C 
HETATM   15  C   UNL     1      28.154  48.985  39.604  1.00  0.00     0.003 C 
HETATM   16  C   UNL     1      29.273  48.237  40.335  1.00  0.00     0.039 C 
BRANCH  12  17
HETATM   17  O   UNL     1      28.309  47.998  42.545  1.00  0.00    -0.388 OA
HETATM   18  H   UNL     1      28.711  47.755  43.401  1.00  0.00     0.210 HD
ENDBRANCH  12  17
ENDBRANCH  11  12
ENDBRANCH   8  11
ENDBRANCH   7   8
ENDBRANCH   1   7
BRANCH   2  19
HETATM   19  C   UNL     1      31.522  52.341  39.748  1.00  0.00     0.072 A 
HETATM   20  C   UNL     1      30.591  53.205  40.327  1.00  0.00     0.132 A 
HETATM   21  F   UNL     1      30.888  53.861  41.459  1.00  0.00    -0.205 F 
HETATM   22  C   UNL     1      29.329  53.398  39.764  1.00  0.00     0.043 A 
HETATM   23  C   UNL     1      28.981  52.721  38.596  1.00  0.00     0.006 A 
HETATM   24  C   UNL     1      29.895  51.851  38.005  1.00  0.00     0.043 A 
HETATM   25  C   UNL     1      31.153  51.666  38.581  1.00  0.00     0.132 A 
HETATM   26  F   UNL     1      31.986  50.786  38.006  1.00  0.00    -0.205 F 
ENDBRANCH   2  19
TORSDOF 6
ENDMDL
MODEL 3
REMARK VINA RESULT:      -7.7     13.143     15.288
REMARK  6 active torsions:
REMARK  status: ('A' for Active; 'I' for Inactive)
REMARK    1  A    between atoms: N_2  and  C_4 
REMARK    2  A    between atoms: N_2  and  C_11 
REMARK    3  A    between atoms: C_4  and  C_5 
REMARK    4  A    between atoms: C_5  and  O_6 
REMARK    5  A    between atoms: C_11  and  C_12 
REMARK    6  A    between atoms: C_13  and  C_14 
ROOT
HETATM    1  C   UNL     1      33.285  50.976  42.098  1.00  0.00     0.016 A 
HETATM    2  C   UNL     1      32.093  50.824  42.884  1.00  0.00     0.102 A 
HETATM    3  N   UNL     1      32.300  51.225  44.144  1.00  0.00    -0.174 NA
HETATM    4  N   UNL     1      33.565  51.648  44.178  1.00  0.00    -0.288 N 
HETATM    5  H   UNL     1      33.925  52.009  45.058  1.00  0.00     0.188 HD
HETATM    6  C   UNL     1      34.201  51.531  42.975  1.00  0.00     0.120 A 
ENDROOT
BRANCH   1   7
HETATM    7  C   UNL     1      33.431  50.641  40.654  1.00  0.00     0.277 C 
BRANCH   7   8
HETATM    8  N   UNL     1      32.682  51.544  39.692  1.00  0.00    -0.068 N 
HETATM    9  C   UNL     1      33.593  52.593  39.097  1.00  0.00     0.270 C 
HETATM   10  H   UNL     1      31.975  52.030  40.251  1.00  0.00     0.279 HD
BRANCH   8  11
HETATM   11  C   UNL     1      31.961  50.720  38.627  1.00  0.00     0.272 C 
BRANCH  11  12
HETATM   12  C   UNL     1      30.649  51.365  38.124  1.00  0.00     0.082 C 
HETATM   13  C   UNL     1      29.454  50.433  38.345  1.00  0.00     0.039 C 
HETATM   14  C   UNL     1      28.245  51.357  38.266  1.00  0.00     0.003 C 
HETATM   15  C   UNL     1      28.722  52.699  38.812  1.00  0.00     0.003 C 
HETATM   16  C   UNL     1      30.251  52.634  38.883  1.00  0.00     0.039 C 
BRANCH  12  17
HETATM   17  O   UNL     1      30.776  51.655  36.730  1.00  0.00    -0.388 OA
HETATM   18  H   UNL     1      30.653  52.613  36.585  1.00  0.00     0.210 HD
ENDBRANCH  12  17
ENDBRANCH  11  12
ENDBRANCH   8  11
ENDBRANCH   7   8
ENDBRANCH   1   7
BRANCH   2  19
HETATM   19  C   UNL     1      30.784  50.322  42.484  1.00  0.00     0.072 A 
HETATM   20  C   UNL     1      29.753  51.192  42.125  1.00  0.00     0.132 A 
HETATM   21  F   UNL     1      29.939  52.520  42.175  1.00  0.00    -0.205 F 
HETATM   22  C   UNL     1      28.504  50.715  41.725  1.00  0.00     0.043 A 
HETATM   23  C   UNL     1      28.271  49.341  41.677  1.00  0.00     0.006 A 
HETATM   24  C   UNL     1      29.286  48.457  42.036  1.00  0.00     0.043 A 
HETATM   25  C   UNL     1      30.530  48.949  42.436  1.00  0.00     0.132 A 
HETATM   26  F   UNL     1      31.465  48.066  42.816  1.00  0.00    -0.205 F 
ENDBRANCH   2  19
TORSDOF 6
ENDMDL
MODEL 4
REMARK VINA RESULT:      -7.6     13.536     15.883
REMARK  6 active torsions:
REMARK  status: ('A' for Active; 'I' for Inactive)
REMARK    1  A    between atoms: N_2  and  C_4 
REMARK    2  A    between atoms: N_2  and  C_11 
REMARK    3  A    between atoms: C_4  and  C_5 
REMARK    4  A    between atoms: C_5  and  O_6 
REMARK    5  A    between atoms: C_11  and  C_12 
REMARK    6  A    between atoms: C_13  and  C_14 
ROOT
HETATM    1  C   UNL     1      27.891  49.028  38.304  1.00  0.00     0.016 A 
HETATM    2  C   UNL     1      27.485  50.329  38.756  1.00  0.00     0.102 A 
HETATM    3  N   UNL     1      26.242  50.609  38.342  1.00  0.00    -0.174 NA
HETATM    4  N   UNL     1      25.839  49.529  37.672  1.00  0.00    -0.288 N 
HETATM    5  H   UNL     1      24.902  49.533  37.277  1.00  0.00     0.188 HD
HETATM    6  C   UNL     1      26.785  48.544  37.626  1.00  0.00     0.120 A 
ENDROOT
BRANCH   1   7
HETATM    7  C   UNL     1      29.202  48.375  38.576  1.00  0.00     0.277 C 
BRANCH   7   8
HETATM    8  N   UNL     1      29.499  48.083  40.033  1.00  0.00    -0.068 N 
HETATM    9  C   UNL     1      28.452  47.176  40.638  1.00  0.00     0.270 C 
HETATM   10  H   UNL     1      29.447  48.983  40.521  1.00  0.00     0.279 HD
BRANCH   8  11
HETATM   11  C   UNL     1      30.916  47.536  40.198  1.00  0.00     0.272 C 
BRANCH  11  12
HETATM   12  C   UNL     1      31.848  48.459  41.016  1.00  0.00     0.082 C 
HETATM   13  C   UNL     1      31.869  49.876  40.438  1.00  0.00     0.039 C 
HETATM   14  C   UNL     1      32.403  50.734  41.579  1.00  0.00     0.003 C 
HETATM   15  C   UNL     1      31.908  50.063  42.857  1.00  0.00     0.003 C 
HETATM   16  C   UNL     1      31.393  48.676  42.462  1.00  0.00     0.039 C 
BRANCH  12  17
HETATM   17  O   UNL     1      33.171  47.917  41.001  1.00  0.00    -0.388 OA
HETATM   18  H   UNL     1      33.792  48.567  41.385  1.00  0.00     0.210 HD
ENDBRANCH  12  17
ENDBRANCH  11  12
ENDBRANCH   8  11
ENDBRANCH   7   8
ENDBRANCH   1   7
BRANCH   2  19
HETATM   19  C   UNL     1      28.223  51.298  39.556  1.00  0.00     0.072 A 
HETATM   20  C   UNL     1      28.227  51.233  40.951  1.00  0.00     0.132 A 
HETATM   21  F   UNL     1      27.515  50.290  41.587  1.00  0.00    -0.205 F 
HETATM   22  C   UNL     1      28.946  52.149  41.720  1.00  0.00     0.043 A 
HETATM   23  C   UNL     1      29.684  53.151  41.092  1.00  0.00     0.006 A 
HETATM   24  C   UNL     1      29.690  53.235  39.701  1.00  0.00     0.043 A 
HETATM   25  C   UNL     1      28.964  52.314  38.945  1.00  0.00     0.132 A 
HETATM   26  F   UNL     1      28.959  52.456  37.611  1.00  0.00    -0.205 F 
ENDBRANCH   2  19
TORSDOF 6
ENDMDL
MODEL 5
REMARK VINA RESULT:      -7.6     13.545     15.837
REMARK  6 active torsions:
REMARK  status: ('A' for Active; 'I' for Inactive)
REMARK    1  A    between atoms: N_2  and  C_4 
REMARK    2  A    between atoms: N_2  and  C_11 
REMARK    3  A    between atoms: C_4  and  C_5 
REMARK    4  A    between atoms: C_5  and  O_6 
REMARK    5  A    between atoms: C_11  and  C_12 
REMARK    6  A    between atoms: C_13  and  C_14 
ROOT
HETATM    1  C   UNL     1      27.870  48.991  38.291  1.00  0.00     0.016 A 
HETATM    2  C   UNL     1      27.480  50.297  38.742  1.00  0.00     0.102 A 
HETATM    3  N   UNL     1      26.240  50.591  38.332  1.00  0.00    -0.174 NA
HETATM    4  N   UNL     1      25.823  49.514  37.665  1.00  0.00    -0.288 N 
HETATM    5  H   UNL     1      24.884  49.528  37.272  1.00  0.00     0.188 HD
HETATM    6  C   UNL     1      26.757  48.519  37.617  1.00  0.00     0.120 A 
ENDROOT
BRANCH   1   7
HETATM    7  C   UNL     1      29.175  48.325  38.559  1.00  0.00     0.277 C 
BRANCH   7   8
HETATM    8  N   UNL     1      29.475  48.035  40.017  1.00  0.00    -0.068 N 
HETATM    9  C   UNL     1      28.438  47.116  40.621  1.00  0.00     0.270 C 
HETATM   10  H   UNL     1      29.414  48.933  40.505  1.00  0.00     0.279 HD
BRANCH   8  11
HETATM   11  C   UNL     1      30.898  47.502  40.181  1.00  0.00     0.272 C 
BRANCH  11  12
HETATM   12  C   UNL     1      31.822  48.438  40.993  1.00  0.00     0.082 C 
HETATM   13  C   UNL     1      31.839  49.850  40.400  1.00  0.00     0.039 C 
HETATM   14  C   UNL     1      32.364  50.722  41.534  1.00  0.00     0.003 C 
HETATM   15  C   UNL     1      31.867  50.063  42.817  1.00  0.00     0.003 C 
HETATM   16  C   UNL     1      31.361  48.668  42.435  1.00  0.00     0.039 C 
BRANCH  12  17
HETATM   17  O   UNL     1      33.148  47.903  40.989  1.00  0.00    -0.388 OA
HETATM   18  H   UNL     1      33.148  47.031  41.429  1.00  0.00     0.210 HD
ENDBRANCH  12  17
ENDBRANCH  11  12
ENDBRANCH   8  11
ENDBRANCH   7   8
ENDBRANCH   1   7
BRANCH   2  19
HETATM   19  C   UNL     1      28.232  51.259  39.538  1.00  0.00     0.072 A 
HETATM   20  C   UNL     1      28.982  52.270  38.935  1.00  0.00     0.132 A 
HETATM   21  F   UNL     1      29.054  52.355  37.597  1.00  0.00    -0.205 F 
HETATM   22  C   UNL     1      29.689  53.203  39.694  1.00  0.00     0.043 A 
HETATM   23  C   UNL     1      29.650  53.136  41.086  1.00  0.00     0.006 A 
HETATM   24  C   UNL     1      28.910  52.132  41.707  1.00  0.00     0.043 A 
HETATM   25  C   UNL     1      28.210  51.204  40.935  1.00  0.00     0.132 A 
HETATM   26  F   UNL     1      27.547  50.226  41.570  1.00  0.00    -0.205 F 
ENDBRANCH   2  19
TORSDOF 6
ENDMDL
MODEL 6
REMARK VINA RESULT:      -7.4      0.905      2.066
REMARK  6 active torsions:
REMARK  status: ('A' for Active; 'I' for Inactive)
REMARK    1  A    between atoms: N_2  and  C_4 
REMARK    2  A    between atoms: N_2  and  C_11 
REMARK    3  A    between atoms: C_4  and  C_5 
REMARK    4  A    between atoms: C_5  and  O_6 
REMARK    5  A    between atoms: C_11  and  C_12 
REMARK    6  A    between atoms: C_13  and  C_14 
ROOT
HETATM    1  C   UNL     1      27.524  45.375  54.608  1.00  0.00     0.016 A 
HETATM    2  C   UNL     1      28.692  45.867  55.282  1.00  0.00     0.102 A 
HETATM    3  N   UNL     1      28.779  47.199  55.171  1.00  0.00    -0.174 NA
HETATM    4  N   UNL     1      27.700  47.569  54.480  1.00  0.00    -0.288 N 
HETATM    5  H   UNL     1      27.569  48.559  54.291  1.00  0.00     0.188 HD
HETATM    6  C   UNL     1      26.906  46.516  54.124  1.00  0.00     0.120 A 
ENDROOT
BRANCH   1   7
HETATM    7  C   UNL     1      27.095  43.951  54.524  1.00  0.00     0.277 C 
BRANCH   7   8
HETATM    8  N   UNL     1      27.149  43.331  53.141  1.00  0.00    -0.068 N 
HETATM    9  C   UNL     1      27.721  41.932  53.185  1.00  0.00     0.270 C 
HETATM   10  H   UNL     1      27.794  43.911  52.594  1.00  0.00     0.279 HD
BRANCH   8  11
HETATM   11  C   UNL     1      25.778  43.385  52.470  1.00  0.00     0.272 C 
BRANCH  11  12
HETATM   12  C   UNL     1      25.730  44.301  51.225  1.00  0.00     0.082 C 
HETATM   13  C   UNL     1      25.251  43.532  49.991  1.00  0.00     0.039 C 
HETATM   14  C   UNL     1      24.804  44.622  49.025  1.00  0.00     0.003 C 
HETATM   15  C   UNL     1      24.274  45.751  49.904  1.00  0.00     0.003 C 
HETATM   16  C   UNL     1      24.722  45.448  51.337  1.00  0.00     0.039 C 
BRANCH  12  17
HETATM   17  O   UNL     1      27.037  44.827  50.982  1.00  0.00    -0.388 OA
HETATM   18  H   UNL     1      27.316  44.597  50.074  1.00  0.00     0.210 HD
ENDBRANCH  12  17
ENDBRANCH  11  12
ENDBRANCH   8  11
ENDBRANCH   7   8
ENDBRANCH   1   7
BRANCH   2  19
HETATM   19  C   UNL     1      29.711  45.128  56.017  1.00  0.00     0.072 A 
HETATM   20  C   UNL     1      29.993  45.418  57.353  1.00  0.00     0.132 A 
HETATM   21  F   UNL     1      29.350  46.414  57.981  1.00  0.00    -0.205 F 
HETATM   22  C   UNL     1      30.955  44.701  58.066  1.00  0.00     0.043 A 
HETATM   23  C   UNL     1      31.654  43.670  57.440  1.00  0.00     0.006 A 
HETATM   24  C   UNL     1      31.390  43.368  56.106  1.00  0.00     0.043 A 
HETATM   25  C   UNL     1      30.426  44.095  55.405  1.00  0.00     0.132 A 
HETATM   26  F   UNL     1      30.234  43.803  54.110  1.00  0.00    -0.205 F 
ENDBRANCH   2  19
TORSDOF 6
ENDMDL
MODEL 7
REMARK VINA RESULT:      -7.4      6.090      7.969
REMARK  6 active torsions:
REMARK  status: ('A' for Active; 'I' for Inactive)
REMARK    1  A    between atoms: N_2  and  C_4 
REMARK    2  A    between atoms: N_2  and  C_11 
REMARK    3  A    between atoms: C_4  and  C_5 
REMARK    4  A    between atoms: C_5  and  O_6 
REMARK    5  A    between atoms: C_11  and  C_12 
REMARK    6  A    between atoms: C_13  and  C_14 
ROOT
HETATM    1  C   UNL     1      21.972  48.259  48.809  1.00  0.00     0.016 A 
HETATM    2  C   UNL     1      22.990  49.147  49.293  1.00  0.00     0.102 A 
HETATM    3  N   UNL     1      22.446  50.190  49.933  1.00  0.00    -0.174 NA
HETATM    4  N   UNL     1      21.129  49.981  49.895  1.00  0.00    -0.288 N 
HETATM    5  H   UNL     1      20.523  50.665  50.341  1.00  0.00     0.188 HD
HETATM    6  C   UNL     1      20.788  48.832  49.241  1.00  0.00     0.120 A 
ENDROOT
BRANCH   1   7
HETATM    7  C   UNL     1      22.199  46.993  48.057  1.00  0.00     0.277 C 
BRANCH   7   8
HETATM    8  N   UNL     1      22.007  45.716  48.852  1.00  0.00    -0.068 N 
HETATM    9  C   UNL     1      20.584  45.215  48.755  1.00  0.00     0.270 C 
HETATM   10  H   UNL     1      22.183  45.960  49.831  1.00  0.00     0.279 HD
BRANCH   8  11
HETATM   11  C   UNL     1      23.030  44.661  48.436  1.00  0.00     0.272 C 
BRANCH  11  12
HETATM   12  C   UNL     1      23.831  44.070  49.619  1.00  0.00     0.082 C 
HETATM   13  C   UNL     1      23.811  42.539  49.591  1.00  0.00     0.039 C 
HETATM   14  C   UNL     1      24.986  42.137  50.473  1.00  0.00     0.003 C 
HETATM   15  C   UNL     1      26.028  43.237  50.289  1.00  0.00     0.003 C 
HETATM   16  C   UNL     1      25.325  44.402  49.585  1.00  0.00     0.039 C 
BRANCH  12  17
HETATM   17  O   UNL     1      23.260  44.532  50.846  1.00  0.00    -0.388 OA
HETATM   18  H   UNL     1      23.913  44.431  51.566  1.00  0.00     0.210 HD
ENDBRANCH  12  17
ENDBRANCH  11  12
ENDBRANCH   8  11
ENDBRANCH   7   8
ENDBRANCH   1   7
BRANCH   2  19
HETATM   19  C   UNL     1      24.439  49.040  49.174  1.00  0.00     0.072 A 
HETATM   20  C   UNL     1      25.157  49.866  48.308  1.00  0.00     0.132 A 
HETATM   21  F   UNL     1      24.518  50.758  47.535  1.00  0.00    -0.205 F 
HETATM   22  C   UNL     1      26.546  49.778  48.203  1.00  0.00     0.043 A 
HETATM   23  C   UNL     1      27.242  48.852  48.979  1.00  0.00     0.006 A 
HETATM   24  C   UNL     1      26.542  48.016  49.847  1.00  0.00     0.043 A 
HETATM   25  C   UNL     1      25.153  48.114  49.939  1.00  0.00     0.132 A 
HETATM   26  F   UNL     1      24.513  47.261  50.753  1.00  0.00    -0.205 F 
ENDBRANCH   2  19
TORSDOF 6
ENDMDL
MODEL 8
REMARK VINA RESULT:      -7.3      1.468      2.685
REMARK  6 active torsions:
REMARK  status: ('A' for Active; 'I' for Inactive)
REMARK    1  A    between atoms: N_2  and  C_4 
REMARK    2  A    between atoms: N_2  and  C_11 
REMARK    3  A    between atoms: C_4  and  C_5 
REMARK    4  A    between atoms: C_5  and  O_6 
REMARK    5  A    between atoms: C_11  and  C_12 
REMARK    6  A    between atoms: C_13  and  C_14 
ROOT
HETATM    1  C   UNL     1      27.352  45.411  54.637  1.00  0.00     0.016 A 
HETATM    2  C   UNL     1      28.589  45.858  55.214  1.00  0.00     0.102 A 
HETATM    3  N   UNL     1      28.745  47.176  55.041  1.00  0.00    -0.174 NA
HETATM    4  N   UNL     1      27.646  47.583  54.403  1.00  0.00    -0.288 N 
HETATM    5  H   UNL     1      27.560  48.572  54.181  1.00  0.00     0.188 HD
HETATM    6  C   UNL     1      26.772  46.567  54.144  1.00  0.00     0.120 A 
ENDROOT
BRANCH   1   7
HETATM    7  C   UNL     1      26.838  44.013  54.641  1.00  0.00     0.277 C 
BRANCH   7   8
HETATM    8  N   UNL     1      26.237  43.532  53.335  1.00  0.00    -0.068 N 
HETATM    9  C   UNL     1      25.055  44.382  52.926  1.00  0.00     0.270 C 
HETATM   10  H   UNL     1      25.889  42.585  53.513  1.00  0.00     0.279 HD
BRANCH   8  11
HETATM   11  C   UNL     1      27.305  43.448  52.246  1.00  0.00     0.272 C 
BRANCH  11  12
HETATM   12  C   UNL     1      27.090  42.284  51.252  1.00  0.00     0.082 C 
HETATM   13  C   UNL     1      27.008  42.794  49.811  1.00  0.00     0.039 C 
HETATM   14  C   UNL     1      27.284  41.558  48.964  1.00  0.00     0.003 C 
HETATM   15  C   UNL     1      28.247  40.708  49.787  1.00  0.00     0.003 C 
HETATM   16  C   UNL     1      28.251  41.286  51.206  1.00  0.00     0.039 C 
BRANCH  12  17
HETATM   17  O   UNL     1      25.879  41.602  51.586  1.00  0.00    -0.388 OA
HETATM   18  H   UNL     1      25.389  41.389  50.768  1.00  0.00     0.210 HD
ENDBRANCH  12  17
ENDBRANCH  11  12
ENDBRANCH   8  11
ENDBRANCH   7   8
ENDBRANCH   1   7
BRANCH   2  19
HETATM   19  C   UNL     1      29.609  45.089  55.915  1.00  0.00     0.072 A 
HETATM   20  C   UNL     1      29.964  45.387  57.232  1.00  0.00     0.132 A 
HETATM   21  F   UNL     1      29.392  46.419  57.871  1.00  0.00    -0.205 F 
HETATM   22  C   UNL     1      30.928  44.642  57.912  1.00  0.00     0.043 A 
HETATM   23  C   UNL     1      31.555  43.572  57.274  1.00  0.00     0.006 A 
HETATM   24  C   UNL     1      31.217  43.262  55.958  1.00  0.00     0.043 A 
HETATM   25  C   UNL     1      30.253  44.017  55.289  1.00  0.00     0.132 A 
HETATM   26  F   UNL     1      29.989  43.714  54.009  1.00  0.00    -0.205 F 
ENDBRANCH   2  19
TORSDOF 6
ENDMDL
MODEL 9
REMARK VINA RESULT:      -7.3      2.287      3.864
REMARK  6 active torsions:
REMARK  status: ('A' for Active; 'I' for Inactive)
REMARK    1  A    between atoms: N_2  and  C_4 
REMARK    2  A    between atoms: N_2  and  C_11 
REMARK    3  A    between atoms: C_4  and  C_5 
REMARK    4  A    between atoms: C_5  and  O_6 
REMARK    5  A    between atoms: C_11  and  C_12 
REMARK    6  A    between atoms: C_13  and  C_14 
ROOT
HETATM    1  C   UNL     1      27.637  42.880  52.068  1.00  0.00     0.016 A 
HETATM    2  C   UNL     1      28.055  42.705  53.430  1.00  0.00     0.102 A 
HETATM    3  N   UNL     1      27.925  41.427  53.807  1.00  0.00    -0.174 NA
HETATM    4  N   UNL     1      27.467  40.785  52.731  1.00  0.00    -0.288 N 
HETATM    5  H   UNL     1      27.306  39.783  52.804  1.00  0.00     0.188 HD
HETATM    6  C   UNL     1      27.285  41.606  51.655  1.00  0.00     0.120 A 
ENDROOT
BRANCH   1   7
HETATM    7  C   UNL     1      27.647  44.160  51.305  1.00  0.00     0.277 C 
BRANCH   7   8
HETATM    8  N   UNL     1      26.285  44.761  51.017  1.00  0.00    -0.068 N 
HETATM    9  C   UNL     1      26.131  46.116  51.668  1.00  0.00     0.270 C 
HETATM   10  H   UNL     1      25.599  44.132  51.446  1.00  0.00     0.279 HD
BRANCH   8  11
HETATM   11  C   UNL     1      26.018  44.798  49.513  1.00  0.00     0.272 C 
BRANCH  11  12
HETATM   12  C   UNL     1      24.794  43.960  49.078  1.00  0.00     0.082 C 
HETATM   13  C   UNL     1      25.177  42.493  48.866  1.00  0.00     0.039 C 
HETATM   14  C   UNL     1      23.847  41.751  48.927  1.00  0.00     0.003 C 
HETATM   15  C   UNL     1      22.984  42.543  49.904  1.00  0.00     0.003 C 
HETATM   16  C   UNL     1      23.686  43.886  50.132  1.00  0.00     0.039 C 
BRANCH  12  17
HETATM   17  O   UNL     1      24.270  44.497  47.861  1.00  0.00    -0.388 OA
HETATM   18  H   UNL     1      24.656  45.380  47.703  1.00  0.00     0.210 HD
ENDBRANCH  12  17
ENDBRANCH  11  12
ENDBRANCH   8  11
ENDBRANCH   7   8
ENDBRANCH   1   7
BRANCH   2  19
HETATM   19  C   UNL     1      28.569  43.694  54.370  1.00  0.00     0.072 A 
HETATM   20  C   UNL     1      29.911  43.700  54.753  1.00  0.00     0.132 A 
HETATM   21  F   UNL     1      30.754  42.765  54.287  1.00  0.00    -0.205 F 
HETATM   22  C   UNL     1      30.410  44.655  55.640  1.00  0.00     0.043 A 
HETATM   23  C   UNL     1      29.560  45.632  56.157  1.00  0.00     0.006 A 
HETATM   24  C   UNL     1      28.216  45.640  55.789  1.00  0.00     0.043 A 
HETATM   25  C   UNL     1      27.730  44.677  54.903  1.00  0.00     0.132 A 
HETATM   26  F   UNL     1      26.422  44.693  54.610  1.00  0.00    -0.205 F 
ENDBRANCH   2  19
TORSDOF 6
ENDMDL
MODEL 10
REMARK VINA RESULT:      -7.3      2.212      4.030
REMARK  6 active torsions:
REMARK  status: ('A' for Active; 'I' for Inactive)
REMARK    1  A    between atoms: N_2  and  C_4 
REMARK    2  A    between atoms: N_2  and  C_11 
REMARK    3  A    between atoms: C_4  and  C_5 
REMARK    4  A    between atoms: C_5  and  O_6 
REMARK    5  A    between atoms: C_11  and  C_12 
REMARK    6  A    between atoms: C_13  and  C_14 
ROOT
HETATM    1  C   UNL     1      27.539  42.961  52.056  1.00  0.00     0.016 A 
HETATM    2  C   UNL     1      28.020  42.748  53.392  1.00  0.00     0.102 A 
HETATM    3  N   UNL     1      27.919  41.457  53.733  1.00  0.00    -0.174 NA
HETATM    4  N   UNL     1      27.420  40.844  52.659  1.00  0.00    -0.288 N 
HETATM    5  H   UNL     1      27.273  39.839  52.707  1.00  0.00     0.188 HD
HETATM    6  C   UNL     1      27.182  41.697  51.619  1.00  0.00     0.120 A 
ENDROOT
BRANCH   1   7
HETATM    7  C   UNL     1      27.502  44.264  51.335  1.00  0.00     0.277 C 
BRANCH   7   8
HETATM    8  N   UNL     1      26.142  44.930  51.255  1.00  0.00    -0.068 N 
HETATM    9  C   UNL     1      26.189  46.346  51.782  1.00  0.00     0.270 C 
HETATM   10  H   UNL     1      25.524  44.392  51.870  1.00  0.00     0.279 HD
BRANCH   8  11
HETATM   11  C   UNL     1      25.584  44.849  49.835  1.00  0.00     0.272 C 
BRANCH  11  12
HETATM   12  C   UNL     1      24.210  44.146  49.746  1.00  0.00     0.082 C 
HETATM   13  C   UNL     1      23.459  44.559  48.477  1.00  0.00     0.039 C 
HETATM   14  C   UNL     1      22.412  43.467  48.294  1.00  0.00     0.003 C 
HETATM   15  C   UNL     1      23.053  42.194  48.841  1.00  0.00     0.003 C 
HETATM   16  C   UNL     1      24.299  42.623  49.621  1.00  0.00     0.039 C 
BRANCH  12  17
HETATM   17  O   UNL     1      23.432  44.493  50.894  1.00  0.00    -0.388 OA
HETATM   18  H   UNL     1      23.807  44.057  51.684  1.00  0.00     0.210 HD
ENDBRANCH  12  17
ENDBRANCH  11  12
ENDBRANCH   8  11
ENDBRANCH   7   8
ENDBRANCH   1   7
BRANCH   2  19
HETATM   19  C   UNL     1      28.566  43.712  54.339  1.00  0.00     0.072 A 
HETATM   20  C   UNL     1      27.758  44.689  54.924  1.00  0.00     0.132 A 
HETATM   21  F   UNL     1      26.460  44.782  54.596  1.00  0.00    -0.205 F 
HETATM   22  C   UNL     1      28.273  45.604  55.844  1.00  0.00     0.043 A 
HETATM   23  C   UNL     1      29.621  45.547  56.197  1.00  0.00     0.006 A 
HETATM   24  C   UNL     1      30.444  44.581  55.621  1.00  0.00     0.043 A 
HETATM   25  C   UNL     1      29.915  43.675  54.700  1.00  0.00     0.132 A 
HETATM   26  F   UNL     1      30.751  42.791  54.135  1.00  0.00    -0.205 F 
ENDBRANCH   2  19
TORSDOF 6
ENDMDL
