MODEL 1
REMARK VINA RESULT:      -9.1      0.000      0.000
REMARK  11 active torsions:
REMARK  status: ('A' for Active; 'I' for Inactive)
REMARK    1  A    between atoms: C_2  and  O_3 
REMARK    2  A    between atoms: O_3  and  C_4 
REMARK    3  A    between atoms: C_4  and  C_5 
REMARK    4  A    between atoms: C_6  and  N_7 
REMARK       I    between atoms: N_7  and  C_8 
REMARK    5  A    between atoms: C_8  and  C_9 
REMARK    6  A    between atoms: C_10  and  N_11 
REMARK    7  A    between atoms: N_11  and  C_12 
REMARK    8  A    between atoms: C_12  and  C_13 
REMARK    9  A    between atoms: C_13  and  C_14 
REMARK   10  A    between atoms: C_14  and  N_15 
REMARK   11  A    between atoms: C_24  and  N_25 
ROOT
HETATM    1  C   UNL     1      27.233  41.788  51.364  1.00  0.00     0.061 A 
HETATM    2  C   UNL     1      26.002  42.363  50.952  1.00  0.00     0.043 A 
HETATM    3  C   UNL     1      25.581  42.075  49.642  1.00  0.00     0.032 A 
HETATM    4  C   UNL     1      26.321  41.241  48.791  1.00  0.00     0.038 A 
HETATM    5  C   UNL     1      27.528  40.693  49.231  1.00  0.00     0.104 A 
HETATM    6  C   UNL     1      27.993  40.964  50.516  1.00  0.00     0.055 A 
ENDROOT
BRANCH   1   7
HETATM    7  C   UNL     1      27.818  42.039  52.705  1.00  0.00     0.258 C 
HETATM    8  N   UNL     1      28.441  43.268  52.826  1.00  0.00    -0.316 N 
HETATM    9  H   UNL     1      28.477  43.873  52.009  1.00  0.00     0.169 HD
HETATM   10  O   UNL     1      27.707  41.155  53.543  1.00  0.00    -0.267 OA
BRANCH   8  11
HETATM   11  C   UNL     1      29.014  43.798  53.975  1.00  0.00     0.094 A 
HETATM   12  C   UNL     1      28.461  44.773  54.800  1.00  0.00     0.080 A 
HETATM   13  C   UNL     1      29.310  45.002  55.957  1.00  0.00    -0.026 A 
HETATM   14  C   UNL     1      30.421  44.179  55.940  1.00  0.00    -0.008 A 
HETATM   15  C   UNL     1      29.076  45.957  57.098  1.00  0.00     0.041 C 
HETATM   16  S   UNL     1      30.501  43.218  54.549  1.00  0.00    -0.075 SA
HETATM   17  C   UNL     1      31.493  44.129  56.986  1.00  0.00     0.047 C 
HETATM   18  C   UNL     1      31.016  44.811  58.275  1.00  0.00     0.005 C 
HETATM   19  C   UNL     1      30.326  46.145  57.974  1.00  0.00     0.005 C 
BRANCH  12  20
HETATM   20  C   UNL     1      27.203  45.444  54.461  1.00  0.00     0.296 C 
HETATM   21  O   UNL     1      26.131  44.844  54.401  1.00  0.00    -0.259 OA
BRANCH  20  22
HETATM   22  O   UNL     1      27.352  46.770  54.199  1.00  0.00    -0.318 OA
BRANCH  22  23
HETATM   23  C   UNL     1      26.223  47.619  54.454  1.00  0.00     0.174 C 
HETATM   24  C   UNL     1      26.475  48.450  55.696  1.00  0.00     0.034 C 
ENDBRANCH  22  23
ENDBRANCH  20  22
ENDBRANCH  12  20
ENDBRANCH   8  11
ENDBRANCH   1   7
BRANCH   2  25
HETATM   25  N   UNL     1      25.345  43.316  51.752  1.00  0.00    -0.389 N 
HETATM   26  H   UNL     1      24.848  42.881  52.532  1.00  0.00     0.159 HD
BRANCH  25  27
HETATM   27  C   UNL     1      24.603  44.418  51.155  1.00  0.00     0.121 C 
BRANCH  27  28
HETATM   28  C   UNL     1      25.518  45.643  51.059  1.00  0.00     0.047 C 
BRANCH  28  29
HETATM   29  C   UNL     1      24.723  46.888  50.670  1.00  0.00     0.236 C 
BRANCH  29  30
HETATM   30  N   UNL     1      25.454  47.692  49.611  1.00  0.00    -0.067 N 
HETATM   31  H   UNL     1      25.611  47.083  48.798  1.00  0.00     0.280 HD
HETATM   32  C   UNL     1      24.683  48.923  49.135  1.00  0.00     0.261 C 
HETATM   33  C   UNL     1      25.515  49.679  48.092  1.00  0.00     0.195 C 
HETATM   34  O   UNL     1      26.788  50.058  48.622  1.00  0.00    -0.388 OA
HETATM   35  C   UNL     1      27.558  48.920  49.024  1.00  0.00     0.195 C 
HETATM   36  C   UNL     1      26.835  48.127  50.117  1.00  0.00     0.261 C 
ENDBRANCH  29  30
ENDBRANCH  28  29
ENDBRANCH  27  28
ENDBRANCH  25  27
ENDBRANCH   2  25
BRANCH   5  37
HETATM   37  N   UNL     1      28.311  39.836  48.333  1.00  0.00    -0.116 N 
HETATM   38  O   UNL     1      29.323  39.296  48.800  1.00  0.00    -0.532 OA
HETATM   39  O   UNL     1      27.915  39.715  47.168  1.00  0.00    -0.532 OA
ENDBRANCH   5  37
TORSDOF 11
ENDMDL
MODEL 2
REMARK VINA RESULT:      -8.9      1.312      1.521
REMARK  11 active torsions:
REMARK  status: ('A' for Active; 'I' for Inactive)
REMARK    1  A    between atoms: C_2  and  O_3 
REMARK    2  A    between atoms: O_3  and  C_4 
REMARK    3  A    between atoms: C_4  and  C_5 
REMARK    4  A    between atoms: C_6  and  N_7 
REMARK       I    between atoms: N_7  and  C_8 
REMARK    5  A    between atoms: C_8  and  C_9 
REMARK    6  A    between atoms: C_10  and  N_11 
REMARK    7  A    between atoms: N_11  and  C_12 
REMARK    8  A    between atoms: C_12  and  C_13 
REMARK    9  A    between atoms: C_13  and  C_14 
REMARK   10  A    between atoms: C_14  and  N_15 
REMARK   11  A    between atoms: C_24  and  N_25 
ROOT
HETATM    1  C   UNL     1      26.484  42.635  50.182  1.00  0.00     0.061 A 
HETATM    2  C   UNL     1      25.320  43.148  49.550  1.00  0.00     0.043 A 
HETATM    3  C   UNL     1      24.628  42.268  48.699  1.00  0.00     0.032 A 
HETATM    4  C   UNL     1      25.046  40.944  48.502  1.00  0.00     0.038 A 
HETATM    5  C   UNL     1      26.196  40.475  49.140  1.00  0.00     0.104 A 
HETATM    6  C   UNL     1      26.923  41.316  49.980  1.00  0.00     0.055 A 
ENDROOT
BRANCH   1   7
HETATM    7  C   UNL     1      27.334  43.464  51.074  1.00  0.00     0.258 C 
HETATM    8  N   UNL     1      27.483  42.946  52.347  1.00  0.00    -0.316 N 
HETATM    9  H   UNL     1      26.994  42.085  52.579  1.00  0.00     0.169 HD
HETATM   10  O   UNL     1      27.793  44.499  50.613  1.00  0.00    -0.267 OA
BRANCH   8  11
HETATM   11  C   UNL     1      28.270  43.467  53.367  1.00  0.00     0.094 A 
HETATM   12  C   UNL     1      27.937  44.523  54.210  1.00  0.00     0.080 A 
HETATM   13  C   UNL     1      28.969  44.719  55.214  1.00  0.00    -0.026 A 
HETATM   14  C   UNL     1      29.987  43.794  55.078  1.00  0.00    -0.008 A 
HETATM   15  C   UNL     1      28.997  45.739  56.322  1.00  0.00     0.041 C 
HETATM   16  S   UNL     1      29.769  42.772  53.747  1.00  0.00    -0.075 SA
HETATM   17  C   UNL     1      31.198  43.686  55.955  1.00  0.00     0.047 C 
HETATM   18  C   UNL     1      30.985  44.463  57.260  1.00  0.00     0.005 C 
HETATM   19  C   UNL     1      30.377  45.844  56.991  1.00  0.00     0.005 C 
BRANCH  12  20
HETATM   20  C   UNL     1      26.705  45.297  54.024  1.00  0.00     0.296 C 
HETATM   21  O   UNL     1      25.589  44.783  54.077  1.00  0.00    -0.259 OA
BRANCH  20  22
HETATM   22  O   UNL     1      26.928  46.613  53.764  1.00  0.00    -0.318 OA
BRANCH  22  23
HETATM   23  C   UNL     1      25.959  47.550  54.254  1.00  0.00     0.174 C 
HETATM   24  C   UNL     1      26.531  48.316  55.430  1.00  0.00     0.034 C 
ENDBRANCH  22  23
ENDBRANCH  20  22
ENDBRANCH  12  20
ENDBRANCH   8  11
ENDBRANCH   1   7
BRANCH   2  25
HETATM   25  N   UNL     1      24.994  44.514  49.632  1.00  0.00    -0.389 N 
HETATM   26  H   UNL     1      25.771  45.109  49.338  1.00  0.00     0.159 HD
BRANCH  25  27
HETATM   27  C   UNL     1      24.278  45.049  50.782  1.00  0.00     0.121 C 
BRANCH  27  28
HETATM   28  C   UNL     1      24.744  46.487  51.036  1.00  0.00     0.047 C 
BRANCH  28  29
HETATM   29  C   UNL     1      24.171  47.439  49.988  1.00  0.00     0.236 C 
BRANCH  29  30
HETATM   30  N   UNL     1      25.278  48.079  49.171  1.00  0.00    -0.067 N 
HETATM   31  H   UNL     1      25.435  47.502  48.336  1.00  0.00     0.280 HD
HETATM   32  C   UNL     1      24.956  49.500  48.709  1.00  0.00     0.261 C 
HETATM   33  C   UNL     1      26.143  50.066  47.920  1.00  0.00     0.195 C 
HETATM   34  O   UNL     1      27.338  50.053  48.705  1.00  0.00    -0.388 OA
HETATM   35  C   UNL     1      27.698  48.727  49.106  1.00  0.00     0.195 C 
HETATM   36  C   UNL     1      26.594  48.093  49.958  1.00  0.00     0.261 C 
ENDBRANCH  29  30
ENDBRANCH  28  29
ENDBRANCH  27  28
ENDBRANCH  25  27
ENDBRANCH   2  25
BRANCH   5  37
HETATM   37  N   UNL     1      26.644  39.095  48.918  1.00  0.00    -0.116 N 
HETATM   38  O   UNL     1      26.183  38.498  47.935  1.00  0.00    -0.532 OA
HETATM   39  O   UNL     1      27.446  38.615  49.728  1.00  0.00    -0.532 OA
ENDBRANCH   5  37
TORSDOF 11
ENDMDL
MODEL 3
REMARK VINA RESULT:      -8.5      2.722      7.428
REMARK  11 active torsions:
REMARK  status: ('A' for Active; 'I' for Inactive)
REMARK    1  A    between atoms: C_2  and  O_3 
REMARK    2  A    between atoms: O_3  and  C_4 
REMARK    3  A    between atoms: C_4  and  C_5 
REMARK    4  A    between atoms: C_6  and  N_7 
REMARK       I    between atoms: N_7  and  C_8 
REMARK    5  A    between atoms: C_8  and  C_9 
REMARK    6  A    between atoms: C_10  and  N_11 
REMARK    7  A    between atoms: N_11  and  C_12 
REMARK    8  A    between atoms: C_12  and  C_13 
REMARK    9  A    between atoms: C_13  and  C_14 
REMARK   10  A    between atoms: C_14  and  N_15 
REMARK   11  A    between atoms: C_24  and  N_25 
ROOT
HETATM    1  C   UNL     1      26.193  42.732  50.647  1.00  0.00     0.061 A 
HETATM    2  C   UNL     1      26.915  42.425  51.831  1.00  0.00     0.043 A 
HETATM    3  C   UNL     1      27.947  41.478  51.710  1.00  0.00     0.032 A 
HETATM    4  C   UNL     1      28.269  40.884  50.482  1.00  0.00     0.038 A 
HETATM    5  C   UNL     1      27.537  41.211  49.338  1.00  0.00     0.104 A 
HETATM    6  C   UNL     1      26.494  42.132  49.413  1.00  0.00     0.055 A 
ENDROOT
BRANCH   1   7
HETATM    7  C   UNL     1      25.053  43.684  50.635  1.00  0.00     0.258 C 
HETATM    8  N   UNL     1      25.200  44.724  49.737  1.00  0.00    -0.316 N 
HETATM    9  H   UNL     1      26.058  44.776  49.193  1.00  0.00     0.169 HD
HETATM   10  O   UNL     1      24.131  43.467  51.408  1.00  0.00    -0.267 OA
BRANCH   8  11
HETATM   11  C   UNL     1      24.271  45.721  49.463  1.00  0.00     0.094 A 
HETATM   12  C   UNL     1      24.364  47.060  49.830  1.00  0.00     0.080 A 
HETATM   13  C   UNL     1      23.249  47.816  49.284  1.00  0.00    -0.026 A 
HETATM   14  C   UNL     1      22.414  47.011  48.532  1.00  0.00    -0.008 A 
HETATM   15  C   UNL     1      22.976  49.290  49.427  1.00  0.00     0.041 C 
HETATM   16  S   UNL     1      22.889  45.387  48.539  1.00  0.00    -0.075 SA
HETATM   17  C   UNL     1      21.184  47.461  47.803  1.00  0.00     0.047 C 
HETATM   18  C   UNL     1      21.175  48.989  47.659  1.00  0.00     0.005 C 
HETATM   19  C   UNL     1      21.557  49.673  48.976  1.00  0.00     0.005 C 
BRANCH  12  20
HETATM   20  C   UNL     1      25.456  47.552  50.675  1.00  0.00     0.296 C 
HETATM   21  O   UNL     1      26.555  47.863  50.218  1.00  0.00    -0.259 OA
BRANCH  20  22
HETATM   22  O   UNL     1      25.136  47.602  51.996  1.00  0.00    -0.318 OA
BRANCH  22  23
HETATM   23  C   UNL     1      25.826  46.699  52.871  1.00  0.00     0.174 C 
HETATM   24  C   UNL     1      26.240  47.423  54.136  1.00  0.00     0.034 C 
ENDBRANCH  22  23
ENDBRANCH  20  22
ENDBRANCH  12  20
ENDBRANCH   8  11
ENDBRANCH   1   7
BRANCH   2  25
HETATM   25  N   UNL     1      26.490  42.908  53.082  1.00  0.00    -0.389 N 
HETATM   26  H   UNL     1      26.022  43.812  53.003  1.00  0.00     0.159 HD
BRANCH  25  27
HETATM   27  C   UNL     1      27.349  42.818  54.255  1.00  0.00     0.121 C 
BRANCH  27  28
HETATM   28  C   UNL     1      28.205  44.085  54.346  1.00  0.00     0.047 C 
BRANCH  28  29
HETATM   29  C   UNL     1      29.692  43.745  54.276  1.00  0.00     0.236 C 
BRANCH  29  30
HETATM   30  N   UNL     1      30.443  44.336  55.455  1.00  0.00    -0.067 N 
HETATM   31  H   UNL     1      31.262  44.841  55.093  1.00  0.00     0.280 HD
HETATM   32  C   UNL     1      29.612  45.318  56.280  1.00  0.00     0.261 C 
HETATM   33  C   UNL     1      30.446  45.836  57.458  1.00  0.00     0.195 C 
HETATM   34  O   UNL     1      30.908  44.758  58.276  1.00  0.00    -0.388 OA
HETATM   35  C   UNL     1      31.739  43.850  57.543  1.00  0.00     0.195 C 
HETATM   36  C   UNL     1      30.970  43.228  56.373  1.00  0.00     0.261 C 
ENDBRANCH  29  30
ENDBRANCH  28  29
ENDBRANCH  27  28
ENDBRANCH  25  27
ENDBRANCH   2  25
BRANCH   5  37
HETATM   37  N   UNL     1      27.862  40.573  48.056  1.00  0.00    -0.116 N 
HETATM   38  O   UNL     1      28.337  41.292  47.166  1.00  0.00    -0.532 OA
HETATM   39  O   UNL     1      27.634  39.363  47.944  1.00  0.00    -0.532 OA
ENDBRANCH   5  37
TORSDOF 11
ENDMDL
MODEL 4
REMARK VINA RESULT:      -8.4      1.962      6.209
REMARK  11 active torsions:
REMARK  status: ('A' for Active; 'I' for Inactive)
REMARK    1  A    between atoms: C_2  and  O_3 
REMARK    2  A    between atoms: O_3  and  C_4 
REMARK    3  A    between atoms: C_4  and  C_5 
REMARK    4  A    between atoms: C_6  and  N_7 
REMARK       I    between atoms: N_7  and  C_8 
REMARK    5  A    between atoms: C_8  and  C_9 
REMARK    6  A    between atoms: C_10  and  N_11 
REMARK    7  A    between atoms: N_11  and  C_12 
REMARK    8  A    between atoms: C_12  and  C_13 
REMARK    9  A    between atoms: C_13  and  C_14 
REMARK   10  A    between atoms: C_14  and  N_15 
REMARK   11  A    between atoms: C_24  and  N_25 
ROOT
HETATM    1  C   UNL     1      24.789  45.433  51.394  1.00  0.00     0.061 A 
HETATM    2  C   UNL     1      24.112  44.503  50.560  1.00  0.00     0.043 A 
HETATM    3  C   UNL     1      23.490  45.025  49.412  1.00  0.00     0.032 A 
HETATM    4  C   UNL     1      23.554  46.388  49.089  1.00  0.00     0.038 A 
HETATM    5  C   UNL     1      24.229  47.273  49.933  1.00  0.00     0.104 A 
HETATM    6  C   UNL     1      24.847  46.803  51.090  1.00  0.00     0.055 A 
ENDROOT
BRANCH   1   7
HETATM    7  C   UNL     1      25.456  45.028  52.657  1.00  0.00     0.258 C 
HETATM    8  N   UNL     1      26.782  45.409  52.739  1.00  0.00    -0.316 N 
HETATM    9  H   UNL     1      27.195  45.892  51.946  1.00  0.00     0.169 HD
HETATM   10  O   UNL     1      24.789  44.404  53.471  1.00  0.00    -0.267 OA
BRANCH   8  11
HETATM   11  C   UNL     1      27.632  45.226  53.823  1.00  0.00     0.094 A 
HETATM   12  C   UNL     1      28.726  44.366  53.880  1.00  0.00     0.080 A 
HETATM   13  C   UNL     1      29.428  44.520  55.142  1.00  0.00    -0.026 A 
HETATM   14  C   UNL     1      28.840  45.489  55.934  1.00  0.00    -0.008 A 
HETATM   15  C   UNL     1      30.666  43.795  55.603  1.00  0.00     0.041 C 
HETATM   16  S   UNL     1      27.444  46.143  55.237  1.00  0.00    -0.075 SA
HETATM   17  C   UNL     1      29.315  45.925  57.286  1.00  0.00     0.047 C 
HETATM   18  C   UNL     1      30.756  45.456  57.525  1.00  0.00     0.005 C 
HETATM   19  C   UNL     1      30.942  43.995  57.102  1.00  0.00     0.005 C 
BRANCH  12  20
HETATM   20  C   UNL     1      29.038  43.446  52.783  1.00  0.00     0.296 C 
HETATM   21  O   UNL     1      30.166  43.352  52.302  1.00  0.00    -0.259 OA
BRANCH  20  22
HETATM   22  O   UNL     1      27.960  42.741  52.345  1.00  0.00    -0.318 OA
BRANCH  22  23
HETATM   23  C   UNL     1      28.123  41.324  52.194  1.00  0.00     0.174 C 
HETATM   24  C   UNL     1      28.400  40.691  53.543  1.00  0.00     0.034 C 
ENDBRANCH  22  23
ENDBRANCH  20  22
ENDBRANCH  12  20
ENDBRANCH   8  11
ENDBRANCH   1   7
BRANCH   2  25
HETATM   25  N   UNL     1      23.923  43.170  50.968  1.00  0.00    -0.389 N 
HETATM   26  H   UNL     1      23.513  43.112  51.902  1.00  0.00     0.159 HD
BRANCH  25  27
HETATM   27  C   UNL     1      24.946  42.160  50.738  1.00  0.00     0.121 C 
BRANCH  27  28
HETATM   28  C   UNL     1      25.369  42.202  49.266  1.00  0.00     0.047 C 
BRANCH  28  29
HETATM   29  C   UNL     1      25.151  40.847  48.596  1.00  0.00     0.236 C 
BRANCH  29  30
HETATM   30  N   UNL     1      26.454  40.077  48.487  1.00  0.00    -0.067 N 
HETATM   31  H   UNL     1      26.427  39.523  47.623  1.00  0.00     0.280 HD
HETATM   32  C   UNL     1      27.692  40.972  48.435  1.00  0.00     0.261 C 
HETATM   33  C   UNL     1      28.952  40.102  48.354  1.00  0.00     0.195 C 
HETATM   34  O   UNL     1      29.030  39.202  49.462  1.00  0.00    -0.388 OA
HETATM   35  C   UNL     1      27.911  38.311  49.505  1.00  0.00     0.195 C 
HETATM   36  C   UNL     1      26.598  39.087  49.649  1.00  0.00     0.261 C 
ENDBRANCH  29  30
ENDBRANCH  28  29
ENDBRANCH  27  28
ENDBRANCH  25  27
ENDBRANCH   2  25
BRANCH   5  37
HETATM   37  N   UNL     1      24.279  48.702  49.603  1.00  0.00    -0.116 N 
HETATM   38  O   UNL     1      25.365  49.163  49.227  1.00  0.00    -0.532 OA
HETATM   39  O   UNL     1      23.237  49.356  49.730  1.00  0.00    -0.532 OA
ENDBRANCH   5  37
TORSDOF 11
ENDMDL
MODEL 5
REMARK VINA RESULT:      -8.3      3.970      6.071
REMARK  11 active torsions:
REMARK  status: ('A' for Active; 'I' for Inactive)
REMARK    1  A    between atoms: C_2  and  O_3 
REMARK    2  A    between atoms: O_3  and  C_4 
REMARK    3  A    between atoms: C_4  and  C_5 
REMARK    4  A    between atoms: C_6  and  N_7 
REMARK       I    between atoms: N_7  and  C_8 
REMARK    5  A    between atoms: C_8  and  C_9 
REMARK    6  A    between atoms: C_10  and  N_11 
REMARK    7  A    between atoms: N_11  and  C_12 
REMARK    8  A    between atoms: C_12  and  C_13 
REMARK    9  A    between atoms: C_13  and  C_14 
REMARK   10  A    between atoms: C_14  and  N_15 
REMARK   11  A    between atoms: C_24  and  N_25 
ROOT
HETATM    1  C   UNL     1      23.880  46.609  49.595  1.00  0.00     0.061 A 
HETATM    2  C   UNL     1      23.021  47.671  49.206  1.00  0.00     0.043 A 
HETATM    3  C   UNL     1      22.068  47.378  48.213  1.00  0.00     0.032 A 
HETATM    4  C   UNL     1      21.951  46.097  47.654  1.00  0.00     0.038 A 
HETATM    5  C   UNL     1      22.813  45.077  48.061  1.00  0.00     0.104 A 
HETATM    6  C   UNL     1      23.783  45.326  49.030  1.00  0.00     0.055 A 
ENDROOT
BRANCH   1   7
HETATM    7  C   UNL     1      24.956  46.786  50.601  1.00  0.00     0.258 C 
HETATM    8  N   UNL     1      25.043  45.755  51.519  1.00  0.00    -0.316 N 
HETATM    9  H   UNL     1      24.369  44.996  51.457  1.00  0.00     0.169 HD
HETATM   10  O   UNL     1      25.632  47.803  50.531  1.00  0.00    -0.267 OA
BRANCH   8  11
HETATM   11  C   UNL     1      25.989  45.620  52.527  1.00  0.00     0.094 A 
HETATM   12  C   UNL     1      27.038  44.705  52.559  1.00  0.00     0.080 A 
HETATM   13  C   UNL     1      27.873  44.928  53.726  1.00  0.00    -0.026 A 
HETATM   14  C   UNL     1      27.420  45.998  54.475  1.00  0.00    -0.008 A 
HETATM   15  C   UNL     1      29.113  44.175  54.130  1.00  0.00     0.041 C 
HETATM   16  S   UNL     1      25.994  46.670  53.859  1.00  0.00    -0.075 SA
HETATM   17  C   UNL     1      28.053  46.524  55.727  1.00  0.00     0.047 C 
HETATM   18  C   UNL     1      29.485  45.993  55.868  1.00  0.00     0.005 C 
HETATM   19  C   UNL     1      29.551  44.491  55.570  1.00  0.00     0.005 C 
BRANCH  12  20
HETATM   20  C   UNL     1      27.188  43.672  51.529  1.00  0.00     0.296 C 
HETATM   21  O   UNL     1      27.323  43.945  50.337  1.00  0.00    -0.259 OA
BRANCH  20  22
HETATM   22  O   UNL     1      27.138  42.406  52.021  1.00  0.00    -0.318 OA
BRANCH  22  23
HETATM   23  C   UNL     1      28.099  41.468  51.517  1.00  0.00     0.174 C 
HETATM   24  C   UNL     1      28.855  40.837  52.668  1.00  0.00     0.034 C 
ENDBRANCH  22  23
ENDBRANCH  20  22
ENDBRANCH  12  20
ENDBRANCH   8  11
ENDBRANCH   1   7
BRANCH   2  25
HETATM   25  N   UNL     1      23.243  48.984  49.658  1.00  0.00    -0.389 N 
HETATM   26  H   UNL     1      22.575  49.256  50.381  1.00  0.00     0.159 HD
BRANCH  25  27
HETATM   27  C   UNL     1      23.535  50.063  48.724  1.00  0.00     0.121 C 
BRANCH  27  28
HETATM   28  C   UNL     1      22.421  51.111  48.807  1.00  0.00     0.047 C 
BRANCH  28  29
HETATM   29  C   UNL     1      21.605  50.939  50.087  1.00  0.00     0.236 C 
BRANCH  29  30
HETATM   30  N   UNL     1      20.121  51.094  49.811  1.00  0.00    -0.067 N 
HETATM   31  H   UNL     1      19.687  51.536  50.631  1.00  0.00     0.280 HD
HETATM   32  C   UNL     1      19.810  51.958  48.589  1.00  0.00     0.261 C 
HETATM   33  C   UNL     1      18.293  52.028  48.381  1.00  0.00     0.195 C 
HETATM   34  O   UNL     1      17.732  50.722  48.227  1.00  0.00    -0.388 OA
HETATM   35  C   UNL     1      17.957  49.906  49.381  1.00  0.00     0.195 C 
HETATM   36  C   UNL     1      19.455  49.723  49.639  1.00  0.00     0.261 C 
ENDBRANCH  29  30
ENDBRANCH  28  29
ENDBRANCH  27  28
ENDBRANCH  25  27
ENDBRANCH   2  25
BRANCH   5  37
HETATM   37  N   UNL     1      22.702  43.743  47.460  1.00  0.00    -0.116 N 
HETATM   38  O   UNL     1      22.008  42.906  48.054  1.00  0.00    -0.532 OA
HETATM   39  O   UNL     1      23.313  43.537  46.405  1.00  0.00    -0.532 OA
ENDBRANCH   5  37
TORSDOF 11
ENDMDL
MODEL 6
REMARK VINA RESULT:      -8.3      2.291      2.822
REMARK  11 active torsions:
REMARK  status: ('A' for Active; 'I' for Inactive)
REMARK    1  A    between atoms: C_2  and  O_3 
REMARK    2  A    between atoms: O_3  and  C_4 
REMARK    3  A    between atoms: C_4  and  C_5 
REMARK    4  A    between atoms: C_6  and  N_7 
REMARK       I    between atoms: N_7  and  C_8 
REMARK    5  A    between atoms: C_8  and  C_9 
REMARK    6  A    between atoms: C_10  and  N_11 
REMARK    7  A    between atoms: N_11  and  C_12 
REMARK    8  A    between atoms: C_12  and  C_13 
REMARK    9  A    between atoms: C_13  and  C_14 
REMARK   10  A    between atoms: C_14  and  N_15 
REMARK   11  A    between atoms: C_24  and  N_25 
ROOT
HETATM    1  C   UNL     1      26.420  42.627  49.793  1.00  0.00     0.061 A 
HETATM    2  C   UNL     1      25.350  43.179  49.040  1.00  0.00     0.043 A 
HETATM    3  C   UNL     1      24.662  42.299  48.186  1.00  0.00     0.032 A 
HETATM    4  C   UNL     1      24.994  40.940  48.098  1.00  0.00     0.038 A 
HETATM    5  C   UNL     1      26.053  40.432  48.854  1.00  0.00     0.104 A 
HETATM    6  C   UNL     1      26.774  41.270  49.702  1.00  0.00     0.055 A 
ENDROOT
BRANCH   1   7
HETATM    7  C   UNL     1      27.257  43.448  50.704  1.00  0.00     0.258 C 
HETATM    8  N   UNL     1      27.418  42.901  51.964  1.00  0.00    -0.316 N 
HETATM    9  H   UNL     1      26.944  42.027  52.175  1.00  0.00     0.169 HD
HETATM   10  O   UNL     1      27.698  44.501  50.268  1.00  0.00    -0.267 OA
BRANCH   8  11
HETATM   11  C   UNL     1      28.197  43.410  52.995  1.00  0.00     0.094 A 
HETATM   12  C   UNL     1      27.847  44.439  53.865  1.00  0.00     0.080 A 
HETATM   13  C   UNL     1      28.878  44.628  54.871  1.00  0.00    -0.026 A 
HETATM   14  C   UNL     1      29.913  43.725  54.710  1.00  0.00    -0.008 A 
HETATM   15  C   UNL     1      28.890  45.620  56.005  1.00  0.00     0.041 C 
HETATM   16  S   UNL     1      29.710  42.734  53.354  1.00  0.00    -0.075 SA
HETATM   17  C   UNL     1      31.127  43.617  55.582  1.00  0.00     0.047 C 
HETATM   18  C   UNL     1      30.903  44.357  56.907  1.00  0.00     0.005 C 
HETATM   19  C   UNL     1      30.270  45.733  56.674  1.00  0.00     0.005 C 
BRANCH  12  20
HETATM   20  C   UNL     1      26.602  45.195  53.701  1.00  0.00     0.296 C 
HETATM   21  O   UNL     1      25.494  44.670  53.799  1.00  0.00    -0.259 OA
BRANCH  20  22
HETATM   22  O   UNL     1      26.801  46.508  53.408  1.00  0.00    -0.318 OA
BRANCH  22  23
HETATM   23  C   UNL     1      25.846  47.446  53.923  1.00  0.00     0.174 C 
HETATM   24  C   UNL     1      26.409  48.131  55.153  1.00  0.00     0.034 C 
ENDBRANCH  22  23
ENDBRANCH  20  22
ENDBRANCH  12  20
ENDBRANCH   8  11
ENDBRANCH   1   7
BRANCH   2  25
HETATM   25  N   UNL     1      25.122  44.567  49.019  1.00  0.00    -0.389 N 
HETATM   26  H   UNL     1      25.991  45.098  49.101  1.00  0.00     0.159 HD
BRANCH  25  27
HETATM   27  C   UNL     1      24.025  45.162  49.771  1.00  0.00     0.121 C 
BRANCH  27  28
HETATM   28  C   UNL     1      24.062  46.683  49.590  1.00  0.00     0.047 C 
BRANCH  28  29
HETATM   29  C   UNL     1      22.871  47.163  48.763  1.00  0.00     0.236 C 
BRANCH  29  30
HETATM   30  N   UNL     1      22.162  48.318  49.447  1.00  0.00    -0.067 N 
HETATM   31  H   UNL     1      22.161  48.139  50.459  1.00  0.00     0.280 HD
HETATM   32  C   UNL     1      22.828  49.673  49.210  1.00  0.00     0.261 C 
HETATM   33  C   UNL     1      22.024  50.771  49.915  1.00  0.00     0.195 C 
HETATM   34  O   UNL     1      20.669  50.792  49.461  1.00  0.00    -0.388 OA
HETATM   35  C   UNL     1      20.000  49.553  49.723  1.00  0.00     0.195 C 
HETATM   36  C   UNL     1      20.696  48.393  49.005  1.00  0.00     0.261 C 
ENDBRANCH  29  30
ENDBRANCH  28  29
ENDBRANCH  27  28
ENDBRANCH  25  27
ENDBRANCH   2  25
BRANCH   5  37
HETATM   37  N   UNL     1      26.412  39.013  48.747  1.00  0.00    -0.116 N 
HETATM   38  O   UNL     1      26.046  38.408  47.730  1.00  0.00    -0.532 OA
HETATM   39  O   UNL     1      27.051  38.511  49.680  1.00  0.00    -0.532 OA
ENDBRANCH   5  37
TORSDOF 11
ENDMDL
MODEL 7
REMARK VINA RESULT:      -8.3      2.279      6.233
REMARK  11 active torsions:
REMARK  status: ('A' for Active; 'I' for Inactive)
REMARK    1  A    between atoms: C_2  and  O_3 
REMARK    2  A    between atoms: O_3  and  C_4 
REMARK    3  A    between atoms: C_4  and  C_5 
REMARK    4  A    between atoms: C_6  and  N_7 
REMARK       I    between atoms: N_7  and  C_8 
REMARK    5  A    between atoms: C_8  and  C_9 
REMARK    6  A    between atoms: C_10  and  N_11 
REMARK    7  A    between atoms: N_11  and  C_12 
REMARK    8  A    between atoms: C_12  and  C_13 
REMARK    9  A    between atoms: C_13  and  C_14 
REMARK   10  A    between atoms: C_14  and  N_15 
REMARK   11  A    between atoms: C_24  and  N_25 
ROOT
HETATM    1  C   UNL     1      25.132  45.389  49.508  1.00  0.00     0.061 A 
HETATM    2  C   UNL     1      24.559  44.355  48.721  1.00  0.00     0.043 A 
HETATM    3  C   UNL     1      23.306  44.626  48.143  1.00  0.00     0.032 A 
HETATM    4  C   UNL     1      22.665  45.861  48.309  1.00  0.00     0.038 A 
HETATM    5  C   UNL     1      23.259  46.855  49.090  1.00  0.00     0.104 A 
HETATM    6  C   UNL     1      24.492  46.625  49.696  1.00  0.00     0.055 A 
ENDROOT
BRANCH   1   7
HETATM    7  C   UNL     1      26.431  45.227  50.209  1.00  0.00     0.258 C 
HETATM    8  N   UNL     1      26.311  44.974  51.563  1.00  0.00    -0.316 N 
HETATM    9  H   UNL     1      25.379  44.949  51.969  1.00  0.00     0.169 HD
HETATM   10  O   UNL     1      27.450  45.343  49.543  1.00  0.00    -0.267 OA
BRANCH   8  11
HETATM   11  C   UNL     1      27.345  44.715  52.454  1.00  0.00     0.094 A 
HETATM   12  C   UNL     1      27.512  45.282  53.714  1.00  0.00     0.080 A 
HETATM   13  C   UNL     1      28.657  44.695  54.389  1.00  0.00    -0.026 A 
HETATM   14  C   UNL     1      29.255  43.720  53.613  1.00  0.00    -0.008 A 
HETATM   15  C   UNL     1      29.176  45.009  55.768  1.00  0.00     0.041 C 
HETATM   16  S   UNL     1      28.533  43.561  52.091  1.00  0.00    -0.075 SA
HETATM   17  C   UNL     1      30.442  42.892  54.004  1.00  0.00     0.047 C 
HETATM   18  C   UNL     1      30.675  42.972  55.518  1.00  0.00     0.005 C 
HETATM   19  C   UNL     1      30.572  44.416  56.021  1.00  0.00     0.005 C 
BRANCH  12  20
HETATM   20  C   UNL     1      26.624  46.340  54.205  1.00  0.00     0.296 C 
HETATM   21  O   UNL     1      25.411  46.179  54.327  1.00  0.00    -0.259 OA
BRANCH  20  22
HETATM   22  O   UNL     1      27.271  47.504  54.480  1.00  0.00    -0.318 OA
BRANCH  22  23
HETATM   23  C   UNL     1      27.228  47.973  55.835  1.00  0.00     0.174 C 
HETATM   24  C   UNL     1      26.197  49.077  55.965  1.00  0.00     0.034 C 
ENDBRANCH  22  23
ENDBRANCH  20  22
ENDBRANCH  12  20
ENDBRANCH   8  11
ENDBRANCH   1   7
BRANCH   2  25
HETATM   25  N   UNL     1      25.134  43.071  48.684  1.00  0.00    -0.389 N 
HETATM   26  H   UNL     1      25.316  42.762  47.728  1.00  0.00     0.159 HD
BRANCH  25  27
HETATM   27  C   UNL     1      24.639  42.000  49.539  1.00  0.00     0.121 C 
BRANCH  27  28
HETATM   28  C   UNL     1      25.823  41.352  50.264  1.00  0.00     0.047 C 
BRANCH  28  29
HETATM   29  C   UNL     1      27.062  41.327  49.372  1.00  0.00     0.236 C 
BRANCH  29  30
HETATM   30  N   UNL     1      27.592  39.914  49.213  1.00  0.00    -0.067 N 
HETATM   31  H   UNL     1      26.804  39.263  49.322  1.00  0.00     0.280 HD
HETATM   32  C   UNL     1      28.237  39.650  47.853  1.00  0.00     0.261 C 
HETATM   33  C   UNL     1      28.762  38.211  47.803  1.00  0.00     0.195 C 
HETATM   34  O   UNL     1      29.697  37.966  48.858  1.00  0.00    -0.388 OA
HETATM   35  C   UNL     1      29.104  38.149  50.148  1.00  0.00     0.195 C 
HETATM   36  C   UNL     1      28.600  39.585  50.320  1.00  0.00     0.261 C 
ENDBRANCH  29  30
ENDBRANCH  28  29
ENDBRANCH  27  28
ENDBRANCH  25  27
ENDBRANCH   2  25
BRANCH   5  37
HETATM   37  N   UNL     1      22.577  48.141  49.280  1.00  0.00    -0.116 N 
HETATM   38  O   UNL     1      23.253  49.087  49.705  1.00  0.00    -0.532 OA
HETATM   39  O   UNL     1      21.370  48.194  49.011  1.00  0.00    -0.532 OA
ENDBRANCH   5  37
TORSDOF 11
ENDMDL
MODEL 8
REMARK VINA RESULT:      -8.3      2.648      8.269
REMARK  11 active torsions:
REMARK  status: ('A' for Active; 'I' for Inactive)
REMARK    1  A    between atoms: C_2  and  O_3 
REMARK    2  A    between atoms: O_3  and  C_4 
REMARK    3  A    between atoms: C_4  and  C_5 
REMARK    4  A    between atoms: C_6  and  N_7 
REMARK       I    between atoms: N_7  and  C_8 
REMARK    5  A    between atoms: C_8  and  C_9 
REMARK    6  A    between atoms: C_10  and  N_11 
REMARK    7  A    between atoms: N_11  and  C_12 
REMARK    8  A    between atoms: C_12  and  C_13 
REMARK    9  A    between atoms: C_13  and  C_14 
REMARK   10  A    between atoms: C_14  and  N_15 
REMARK   11  A    between atoms: C_24  and  N_25 
ROOT
HETATM    1  C   UNL     1      28.200  44.130  53.087  1.00  0.00     0.061 A 
HETATM    2  C   UNL     1      29.084  43.030  53.249  1.00  0.00     0.043 A 
HETATM    3  C   UNL     1      29.840  43.000  54.434  1.00  0.00     0.032 A 
HETATM    4  C   UNL     1      29.711  43.988  55.421  1.00  0.00     0.038 A 
HETATM    5  C   UNL     1      28.831  45.055  55.227  1.00  0.00     0.104 A 
HETATM    6  C   UNL     1      28.074  45.135  54.060  1.00  0.00     0.055 A 
ENDROOT
BRANCH   1   7
HETATM    7  C   UNL     1      27.371  44.310  51.868  1.00  0.00     0.258 C 
HETATM    8  N   UNL     1      26.018  44.440  52.123  1.00  0.00    -0.316 N 
HETATM    9  H   UNL     1      25.700  44.374  53.087  1.00  0.00     0.169 HD
HETATM   10  O   UNL     1      27.948  44.313  50.790  1.00  0.00    -0.267 OA
BRANCH   8  11
HETATM   11  C   UNL     1      25.018  44.685  51.190  1.00  0.00     0.094 A 
HETATM   12  C   UNL     1      24.631  45.929  50.701  1.00  0.00     0.080 A 
HETATM   13  C   UNL     1      23.619  45.779  49.670  1.00  0.00    -0.026 A 
HETATM   14  C   UNL     1      23.332  44.447  49.435  1.00  0.00    -0.008 A 
HETATM   15  C   UNL     1      22.944  46.865  48.874  1.00  0.00     0.041 C 
HETATM   16  S   UNL     1      24.176  43.404  50.466  1.00  0.00    -0.075 SA
HETATM   17  C   UNL     1      22.358  43.924  48.423  1.00  0.00     0.047 C 
HETATM   18  C   UNL     1      22.007  45.016  47.403  1.00  0.00     0.005 C 
HETATM   19  C   UNL     1      21.720  46.352  48.097  1.00  0.00     0.005 C 
BRANCH  12  20
HETATM   20  C   UNL     1      25.198  47.174  51.230  1.00  0.00     0.296 C 
HETATM   21  O   UNL     1      25.263  47.409  52.436  1.00  0.00    -0.259 OA
BRANCH  20  22
HETATM   22  O   UNL     1      25.612  48.033  50.261  1.00  0.00    -0.318 OA
BRANCH  22  23
HETATM   23  C   UNL     1      26.849  47.729  49.601  1.00  0.00     0.174 C 
HETATM   24  C   UNL     1      27.456  48.997  49.035  1.00  0.00     0.034 C 
ENDBRANCH  22  23
ENDBRANCH  20  22
ENDBRANCH  12  20
ENDBRANCH   8  11
ENDBRANCH   1   7
BRANCH   2  25
HETATM   25  N   UNL     1      29.319  42.130  52.193  1.00  0.00    -0.389 N 
HETATM   26  H   UNL     1      29.244  42.584  51.281  1.00  0.00     0.159 HD
BRANCH  25  27
HETATM   27  C   UNL     1      28.747  40.790  52.206  1.00  0.00     0.121 C 
BRANCH  27  28
HETATM   28  C   UNL     1      27.559  40.744  51.239  1.00  0.00     0.047 C 
BRANCH  28  29
HETATM   29  C   UNL     1      27.994  41.115  49.823  1.00  0.00     0.236 C 
BRANCH  29  30
HETATM   30  N   UNL     1      27.874  39.927  48.887  1.00  0.00    -0.067 N 
HETATM   31  H   UNL     1      27.718  40.282  47.936  1.00  0.00     0.280 HD
HETATM   32  C   UNL     1      29.118  39.039  48.861  1.00  0.00     0.261 C 
HETATM   33  C   UNL     1      28.887  37.857  47.912  1.00  0.00     0.195 C 
HETATM   34  O   UNL     1      27.738  37.099  48.302  1.00  0.00    -0.388 OA
HETATM   35  C   UNL     1      26.546  37.891  48.280  1.00  0.00     0.195 C 
HETATM   36  C   UNL     1      26.654  39.072  49.250  1.00  0.00     0.261 C 
ENDBRANCH  29  30
ENDBRANCH  28  29
ENDBRANCH  27  28
ENDBRANCH  25  27
ENDBRANCH   2  25
BRANCH   5  37
HETATM   37  N   UNL     1      28.712  46.099  56.252  1.00  0.00    -0.116 N 
HETATM   38  O   UNL     1      29.394  45.972  57.277  1.00  0.00    -0.532 OA
HETATM   39  O   UNL     1      27.932  47.034  56.029  1.00  0.00    -0.532 OA
ENDBRANCH   5  37
TORSDOF 11
ENDMDL
MODEL 9
REMARK VINA RESULT:      -8.0      2.724      6.864
REMARK  11 active torsions:
REMARK  status: ('A' for Active; 'I' for Inactive)
REMARK    1  A    between atoms: C_2  and  O_3 
REMARK    2  A    between atoms: O_3  and  C_4 
REMARK    3  A    between atoms: C_4  and  C_5 
REMARK    4  A    between atoms: C_6  and  N_7 
REMARK       I    between atoms: N_7  and  C_8 
REMARK    5  A    between atoms: C_8  and  C_9 
REMARK    6  A    between atoms: C_10  and  N_11 
REMARK    7  A    between atoms: N_11  and  C_12 
REMARK    8  A    between atoms: C_12  and  C_13 
REMARK    9  A    between atoms: C_13  and  C_14 
REMARK   10  A    between atoms: C_14  and  N_15 
REMARK   11  A    between atoms: C_24  and  N_25 
ROOT
HETATM    1  C   UNL     1      27.010  45.308  53.721  1.00  0.00     0.061 A 
HETATM    2  C   UNL     1      26.458  46.581  53.418  1.00  0.00     0.043 A 
HETATM    3  C   UNL     1      26.792  47.634  54.288  1.00  0.00     0.032 A 
HETATM    4  C   UNL     1      27.648  47.448  55.384  1.00  0.00     0.038 A 
HETATM    5  C   UNL     1      28.172  46.181  55.651  1.00  0.00     0.104 A 
HETATM    6  C   UNL     1      27.854  45.104  54.825  1.00  0.00     0.055 A 
ENDROOT
BRANCH   1   7
HETATM    7  C   UNL     1      26.710  44.099  52.912  1.00  0.00     0.258 C 
HETATM    8  N   UNL     1      27.807  43.581  52.249  1.00  0.00    -0.316 N 
HETATM    9  H   UNL     1      28.697  44.065  52.336  1.00  0.00     0.169 HD
HETATM   10  O   UNL     1      25.554  43.701  52.901  1.00  0.00    -0.267 OA
BRANCH   8  11
HETATM   11  C   UNL     1      27.840  42.427  51.477  1.00  0.00     0.094 A 
HETATM   12  C   UNL     1      27.330  42.278  50.190  1.00  0.00     0.080 A 
HETATM   13  C   UNL     1      27.637  40.956  49.671  1.00  0.00    -0.026 A 
HETATM   14  C   UNL     1      28.368  40.213  50.579  1.00  0.00    -0.008 A 
HETATM   15  C   UNL     1      27.285  40.391  48.319  1.00  0.00     0.041 C 
HETATM   16  S   UNL     1      28.615  41.028  52.041  1.00  0.00    -0.075 SA
HETATM   17  C   UNL     1      28.877  38.820  50.366  1.00  0.00     0.047 C 
HETATM   18  C   UNL     1      28.835  38.456  48.877  1.00  0.00     0.005 C 
HETATM   19  C   UNL     1      27.504  38.872  48.241  1.00  0.00     0.005 C 
BRANCH  12  20
HETATM   20  C   UNL     1      26.577  43.350  49.533  1.00  0.00     0.296 C 
HETATM   21  O   UNL     1      27.044  44.475  49.361  1.00  0.00    -0.259 OA
BRANCH  20  22
HETATM   22  O   UNL     1      25.321  42.981  49.164  1.00  0.00    -0.318 OA
BRANCH  22  23
HETATM   23  C   UNL     1      24.255  43.891  49.469  1.00  0.00     0.174 C 
HETATM   24  C   UNL     1      23.671  44.447  48.186  1.00  0.00     0.034 C 
ENDBRANCH  22  23
ENDBRANCH  20  22
ENDBRANCH  12  20
ENDBRANCH   8  11
ENDBRANCH   1   7
BRANCH   2  25
HETATM   25  N   UNL     1      25.485  46.727  52.412  1.00  0.00    -0.389 N 
HETATM   26  H   UNL     1      24.846  45.931  52.382  1.00  0.00     0.159 HD
BRANCH  25  27
HETATM   27  C   UNL     1      25.840  47.217  51.087  1.00  0.00     0.121 C 
BRANCH  27  28
HETATM   28  C   UNL     1      24.558  47.503  50.299  1.00  0.00     0.047 C 
BRANCH  28  29
HETATM   29  C   UNL     1      24.804  48.553  49.219  1.00  0.00     0.236 C 
BRANCH  29  30
HETATM   30  N   UNL     1      23.503  48.973  48.560  1.00  0.00    -0.067 N 
HETATM   31  H   UNL     1      23.670  49.061  47.550  1.00  0.00     0.280 HD
HETATM   32  C   UNL     1      22.363  47.976  48.764  1.00  0.00     0.261 C 
HETATM   33  C   UNL     1      21.092  48.502  48.088  1.00  0.00     0.195 C 
HETATM   34  O   UNL     1      20.731  49.789  48.597  1.00  0.00    -0.388 OA
HETATM   35  C   UNL     1      21.757  50.760  48.369  1.00  0.00     0.195 C 
HETATM   36  C   UNL     1      23.061  50.353  49.062  1.00  0.00     0.261 C 
ENDBRANCH  29  30
ENDBRANCH  28  29
ENDBRANCH  27  28
ENDBRANCH  25  27
ENDBRANCH   2  25
BRANCH   5  37
HETATM   37  N   UNL     1      29.050  45.983  56.809  1.00  0.00    -0.116 N 
HETATM   38  O   UNL     1      30.212  45.616  56.587  1.00  0.00    -0.532 OA
HETATM   39  O   UNL     1      28.573  46.187  57.932  1.00  0.00    -0.532 OA
ENDBRANCH   5  37
TORSDOF 11
ENDMDL
MODEL 10
REMARK VINA RESULT:      -7.9      2.834      6.377
REMARK  11 active torsions:
REMARK  status: ('A' for Active; 'I' for Inactive)
REMARK    1  A    between atoms: C_2  and  O_3 
REMARK    2  A    between atoms: O_3  and  C_4 
REMARK    3  A    between atoms: C_4  and  C_5 
REMARK    4  A    between atoms: C_6  and  N_7 
REMARK       I    between atoms: N_7  and  C_8 
REMARK    5  A    between atoms: C_8  and  C_9 
REMARK    6  A    between atoms: C_10  and  N_11 
REMARK    7  A    between atoms: N_11  and  C_12 
REMARK    8  A    between atoms: C_12  and  C_13 
REMARK    9  A    between atoms: C_13  and  C_14 
REMARK   10  A    between atoms: C_14  and  N_15 
REMARK   11  A    between atoms: C_24  and  N_25 
ROOT
HETATM    1  C   UNL     1      25.658  43.543  49.498  1.00  0.00     0.061 A 
HETATM    2  C   UNL     1      25.740  42.319  48.781  1.00  0.00     0.043 A 
HETATM    3  C   UNL     1      24.600  41.941  48.051  1.00  0.00     0.032 A 
HETATM    4  C   UNL     1      23.449  42.740  48.007  1.00  0.00     0.038 A 
HETATM    5  C   UNL     1      23.404  43.938  48.724  1.00  0.00     0.104 A 
HETATM    6  C   UNL     1      24.505  44.345  49.476  1.00  0.00     0.055 A 
ENDROOT
BRANCH   1   7
HETATM    7  C   UNL     1      26.771  44.045  50.343  1.00  0.00     0.258 C 
HETATM    8  N   UNL     1      26.668  43.693  51.676  1.00  0.00    -0.316 N 
HETATM    9  H   UNL     1      25.853  43.162  51.973  1.00  0.00     0.169 HD
HETATM   10  O   UNL     1      27.637  44.712  49.795  1.00  0.00    -0.267 OA
BRANCH   8  11
HETATM   11  C   UNL     1      27.590  43.964  52.679  1.00  0.00     0.094 A 
HETATM   12  C   UNL     1      27.482  44.949  53.657  1.00  0.00     0.080 A 
HETATM   13  C   UNL     1      28.594  44.867  54.588  1.00  0.00    -0.026 A 
HETATM   14  C   UNL     1      29.444  43.824  54.269  1.00  0.00    -0.008 A 
HETATM   15  C   UNL     1      28.852  45.730  55.795  1.00  0.00     0.041 C 
HETATM   16  S   UNL     1      28.984  43.014  52.856  1.00  0.00    -0.075 SA
HETATM   17  C   UNL     1      30.676  43.433  55.027  1.00  0.00     0.047 C 
HETATM   18  C   UNL     1      30.672  44.070  56.422  1.00  0.00     0.005 C 
HETATM   19  C   UNL     1      30.272  45.547  56.357  1.00  0.00     0.005 C 
BRANCH  12  20
HETATM   20  C   UNL     1      26.377  45.913  53.658  1.00  0.00     0.296 C 
HETATM   21  O   UNL     1      25.440  45.842  54.451  1.00  0.00    -0.259 OA
BRANCH  20  22
HETATM   22  O   UNL     1      26.487  46.861  52.688  1.00  0.00    -0.318 OA
BRANCH  22  23
HETATM   23  C   UNL     1      25.351  47.057  51.834  1.00  0.00     0.174 C 
HETATM   24  C   UNL     1      25.803  47.599  50.493  1.00  0.00     0.034 C 
ENDBRANCH  22  23
ENDBRANCH  20  22
ENDBRANCH  12  20
ENDBRANCH   8  11
ENDBRANCH   1   7
BRANCH   2  25
HETATM   25  N   UNL     1      26.836  41.453  48.952  1.00  0.00    -0.389 N 
HETATM   26  H   UNL     1      27.230  41.156  48.058  1.00  0.00     0.159 HD
BRANCH  25  27
HETATM   27  C   UNL     1      26.801  40.381  49.937  1.00  0.00     0.121 C 
BRANCH  27  28
HETATM   28  C   UNL     1      28.217  40.152  50.478  1.00  0.00     0.047 C 
BRANCH  28  29
HETATM   29  C   UNL     1      28.711  38.749  50.133  1.00  0.00     0.236 C 
BRANCH  29  30
HETATM   30  N   UNL     1      27.930  38.165  48.971  1.00  0.00    -0.067 N 
HETATM   31  H   UNL     1      27.226  38.855  48.680  1.00  0.00     0.280 HD
HETATM   32  C   UNL     1      28.795  37.833  47.756  1.00  0.00     0.261 C 
HETATM   33  C   UNL     1      27.920  37.226  46.652  1.00  0.00     0.195 C 
HETATM   34  O   UNL     1      27.239  36.058  47.117  1.00  0.00    -0.388 OA
HETATM   35  C   UNL     1      26.375  36.349  48.221  1.00  0.00     0.195 C 
HETATM   36  C   UNL     1      27.169  36.907  49.406  1.00  0.00     0.261 C 
ENDBRANCH  29  30
ENDBRANCH  28  29
ENDBRANCH  27  28
ENDBRANCH  25  27
ENDBRANCH   2  25
BRANCH   5  37
HETATM   37  N   UNL     1      22.192  44.764  48.694  1.00  0.00    -0.116 N 
HETATM   38  O   UNL     1      22.337  45.992  48.751  1.00  0.00    -0.532 OA
HETATM   39  O   UNL     1      21.103  44.180  48.620  1.00  0.00    -0.532 OA
ENDBRANCH   5  37
TORSDOF 11
ENDMDL
