MODEL 1
REMARK VINA RESULT:     -10.6      0.000      0.000
REMARK  7 active torsions:
REMARK  status: ('A' for Active; 'I' for Inactive)
REMARK    1  A    between atoms: C_4  and  N_5 
REMARK    2  A    between atoms: C_6  and  S_7 
REMARK    3  A    between atoms: S_7  and  C_8 
REMARK    4  A    between atoms: C_8  and  C_9 
REMARK       I    between atoms: C_9  and  N_10 
REMARK    5  A    between atoms: N_10  and  C_11 
REMARK    6  A    between atoms: C_14  and  C_15 
REMARK       I    between atoms: C_15  and  N_16 
REMARK    7  A    between atoms: C_23  and  C_24 
ROOT
HETATM    1  N   UNL     1      24.960  45.883  50.570  1.00  0.00    -0.271 N 
HETATM    2  C   UNL     1      24.189  44.871  50.016  1.00  0.00     0.197 A 
HETATM    3  N   UNL     1      23.743  44.071  50.956  1.00  0.00    -0.122 NA
HETATM    4  N   UNL     1      24.217  44.528  52.152  1.00  0.00    -0.128 NA
HETATM    5  C   UNL     1      25.002  45.566  51.927  1.00  0.00     0.171 A 
ENDROOT
BRANCH   2   6
HETATM    6  S   UNL     1      23.693  44.767  48.355  1.00  0.00    -0.080 SA
BRANCH   6   7
HETATM    7  C   UNL     1      21.899  45.025  48.526  1.00  0.00     0.185 C 
BRANCH   7   8
HETATM    8  C   UNL     1      21.529  46.468  48.208  1.00  0.00     0.231 C 
HETATM    9  N   UNL     1      20.695  47.044  49.154  1.00  0.00    -0.327 N 
HETATM   10  H   UNL     1      20.369  46.426  49.888  1.00  0.00     0.169 HD
HETATM   11  O   UNL     1      22.004  47.033  47.227  1.00  0.00    -0.272 OA
BRANCH   9  12
HETATM   12  C   UNL     1      20.177  48.355  49.167  1.00  0.00     0.034 A 
HETATM   13  C   UNL     1      20.946  49.498  49.393  1.00  0.00     0.030 A 
HETATM   14  C   UNL     1      20.358  50.771  49.377  1.00  0.00     0.019 A 
HETATM   15  C   UNL     1      18.987  50.913  49.142  1.00  0.00     0.032 A 
HETATM   16  C   UNL     1      18.215  49.769  48.907  1.00  0.00     0.019 A 
HETATM   17  C   UNL     1      18.806  48.501  48.923  1.00  0.00     0.030 A 
BRANCH  15  18
HETATM   18  C   UNL     1      18.311  52.237  49.105  1.00  0.00     0.249 C 
HETATM   19  N   UNL     1      18.552  53.048  48.031  1.00  0.00    -0.366 N 
HETATM   20  H   UNL     1      19.294  52.885  47.368  1.00  0.00     0.159 HD
HETATM   21  H   UNL     1      18.152  53.978  48.072  1.00  0.00     0.159 HD
HETATM   22  O   UNL     1      17.584  52.611  50.017  1.00  0.00    -0.268 OA
ENDBRANCH  15  18
ENDBRANCH   9  12
ENDBRANCH   7   8
ENDBRANCH   6   7
ENDBRANCH   2   6
BRANCH   1  23
HETATM   23  C   UNL     1      25.467  47.046  49.931  1.00  0.00     0.044 A 
HETATM   24  C   UNL     1      24.603  48.061  49.501  1.00  0.00     0.037 A 
HETATM   25  C   UNL     1      25.114  49.210  48.881  1.00  0.00    -0.060 A 
HETATM   26  C   UNL     1      24.200  50.318  48.447  1.00  0.00     0.048 C 
HETATM   27  C   UNL     1      26.498  49.342  48.718  1.00  0.00     0.007 A 
HETATM   28  C   UNL     1      27.361  48.333  49.147  1.00  0.00     0.003 A 
HETATM   29  C   UNL     1      26.850  47.186  49.752  1.00  0.00     0.030 A 
ENDBRANCH   1  23
BRANCH   5  30
HETATM   30  C   UNL     1      25.844  46.164  53.014  1.00  0.00     0.040 A 
HETATM   31  C   UNL     1      26.983  45.558  53.633  1.00  0.00     0.006 A 
HETATM   32  C   UNL     1      27.473  46.467  54.574  1.00  0.00     0.043 A 
HETATM   33  C   UNL     1      27.638  44.314  53.506  1.00  0.00     0.015 A 
HETATM   34  C   UNL     1      28.578  46.196  55.390  1.00  0.00     0.030 A 
HETATM   35  N   UNL     1      26.680  47.588  54.506  1.00  0.00    -0.364 N 
HETATM   36  C   UNL     1      29.205  44.956  55.243  1.00  0.00     0.002 A 
HETATM   37  C   UNL     1      28.744  44.027  54.315  1.00  0.00     0.001 A 
HETATM   38  H   UNL     1      26.816  48.419  55.065  1.00  0.00     0.165 HD
HETATM   39  C   UNL     1      25.700  47.421  53.562  1.00  0.00     0.104 A 
ENDBRANCH   5  30
TORSDOF 7
ENDMDL
MODEL 2
REMARK VINA RESULT:     -10.3      4.137      8.095
REMARK  7 active torsions:
REMARK  status: ('A' for Active; 'I' for Inactive)
REMARK    1  A    between atoms: C_4  and  N_5 
REMARK    2  A    between atoms: C_6  and  S_7 
REMARK    3  A    between atoms: S_7  and  C_8 
REMARK    4  A    between atoms: C_8  and  C_9 
REMARK       I    between atoms: C_9  and  N_10 
REMARK    5  A    between atoms: N_10  and  C_11 
REMARK    6  A    between atoms: C_14  and  C_15 
REMARK       I    between atoms: C_15  and  N_16 
REMARK    7  A    between atoms: C_23  and  C_24 
ROOT
HETATM    1  N   UNL     1      25.124  45.670  50.799  1.00  0.00    -0.271 N 
HETATM    2  C   UNL     1      24.443  44.575  50.286  1.00  0.00     0.197 A 
HETATM    3  N   UNL     1      24.066  43.776  51.256  1.00  0.00    -0.122 NA
HETATM    4  N   UNL     1      24.497  44.317  52.433  1.00  0.00    -0.128 NA
HETATM    5  C   UNL     1      25.190  45.410  52.167  1.00  0.00     0.171 A 
ENDROOT
BRANCH   2   6
HETATM    6  S   UNL     1      23.962  44.366  48.630  1.00  0.00    -0.080 SA
BRANCH   6   7
HETATM    7  C   UNL     1      23.551  42.592  48.624  1.00  0.00     0.185 C 
BRANCH   7   8
HETATM    8  C   UNL     1      24.810  41.747  48.485  1.00  0.00     0.231 C 
HETATM    9  N   UNL     1      25.259  41.225  49.688  1.00  0.00    -0.327 N 
HETATM   10  H   UNL     1      24.756  41.529  50.515  1.00  0.00     0.169 HD
HETATM   11  O   UNL     1      25.299  41.532  47.379  1.00  0.00    -0.272 OA
BRANCH   9  12
HETATM   12  C   UNL     1      26.381  40.401  49.909  1.00  0.00     0.034 A 
HETATM   13  C   UNL     1      27.558  40.830  50.526  1.00  0.00     0.030 A 
HETATM   14  C   UNL     1      28.627  39.945  50.721  1.00  0.00     0.019 A 
HETATM   15  C   UNL     1      28.533  38.617  50.292  1.00  0.00     0.032 A 
HETATM   16  C   UNL     1      27.351  38.182  49.682  1.00  0.00     0.019 A 
HETATM   17  C   UNL     1      26.286  39.070  49.488  1.00  0.00     0.030 A 
BRANCH  15  18
HETATM   18  C   UNL     1      29.631  37.632  50.481  1.00  0.00     0.249 C 
HETATM   19  N   UNL     1      29.323  36.436  51.066  1.00  0.00    -0.366 N 
HETATM   20  H   UNL     1      28.451  36.258  51.541  1.00  0.00     0.159 HD
HETATM   21  H   UNL     1      30.102  35.819  51.264  1.00  0.00     0.159 HD
HETATM   22  O   UNL     1      30.784  37.887  50.154  1.00  0.00    -0.268 OA
ENDBRANCH  15  18
ENDBRANCH   9  12
ENDBRANCH   7   8
ENDBRANCH   6   7
ENDBRANCH   2   6
BRANCH   1  23
HETATM   23  C   UNL     1      25.530  46.848  50.116  1.00  0.00     0.044 A 
HETATM   24  C   UNL     1      24.590  47.810  49.727  1.00  0.00     0.037 A 
HETATM   25  C   UNL     1      25.002  48.974  49.063  1.00  0.00    -0.060 A 
HETATM   26  C   UNL     1      24.007  50.027  48.672  1.00  0.00     0.048 C 
HETATM   27  C   UNL     1      26.365  49.173  48.812  1.00  0.00     0.007 A 
HETATM   28  C   UNL     1      27.303  48.216  49.199  1.00  0.00     0.003 A 
HETATM   29  C   UNL     1      26.890  47.055  49.850  1.00  0.00     0.030 A 
ENDBRANCH   1  23
BRANCH   5  30
HETATM   30  C   UNL     1      25.976  46.119  53.229  1.00  0.00     0.040 A 
HETATM   31  C   UNL     1      27.134  45.617  53.903  1.00  0.00     0.006 A 
HETATM   32  C   UNL     1      27.553  46.608  54.794  1.00  0.00     0.043 A 
HETATM   33  C   UNL     1      27.861  44.408  53.862  1.00  0.00     0.015 A 
HETATM   34  C   UNL     1      28.656  46.450  55.642  1.00  0.00     0.030 A 
HETATM   35  N   UNL     1      26.700  47.676  54.645  1.00  0.00    -0.364 N 
HETATM   36  C   UNL     1      29.355  45.241  55.581  1.00  0.00     0.002 A 
HETATM   37  C   UNL     1      28.965  44.234  54.704  1.00  0.00     0.001 A 
HETATM   38  H   UNL     1      26.778  48.545  55.155  1.00  0.00     0.165 HD
HETATM   39  C   UNL     1      25.750  47.396  53.697  1.00  0.00     0.104 A 
ENDBRANCH   5  30
TORSDOF 7
ENDMDL
MODEL 3
REMARK VINA RESULT:      -9.3      2.204      3.456
REMARK  7 active torsions:
REMARK  status: ('A' for Active; 'I' for Inactive)
REMARK    1  A    between atoms: C_4  and  N_5 
REMARK    2  A    between atoms: C_6  and  S_7 
REMARK    3  A    between atoms: S_7  and  C_8 
REMARK    4  A    between atoms: C_8  and  C_9 
REMARK       I    between atoms: C_9  and  N_10 
REMARK    5  A    between atoms: N_10  and  C_11 
REMARK    6  A    between atoms: C_14  and  C_15 
REMARK       I    between atoms: C_15  and  N_16 
REMARK    7  A    between atoms: C_23  and  C_24 
ROOT
HETATM    1  N   UNL     1      26.696  44.049  51.325  1.00  0.00    -0.271 N 
HETATM    2  C   UNL     1      26.578  42.858  50.622  1.00  0.00     0.197 A 
HETATM    3  N   UNL     1      26.892  41.842  51.391  1.00  0.00    -0.122 NA
HETATM    4  N   UNL     1      27.237  42.337  52.616  1.00  0.00    -0.128 NA
HETATM    5  C   UNL     1      27.192  43.657  52.566  1.00  0.00     0.171 A 
ENDROOT
BRANCH   2   6
HETATM    6  S   UNL     1      25.913  42.683  49.027  1.00  0.00    -0.080 SA
BRANCH   6   7
HETATM    7  C   UNL     1      24.260  42.032  49.424  1.00  0.00     0.185 C 
BRANCH   7   8
HETATM    8  C   UNL     1      23.282  43.169  49.690  1.00  0.00     0.231 C 
HETATM    9  N   UNL     1      22.968  43.902  48.556  1.00  0.00    -0.327 N 
HETATM   10  H   UNL     1      23.478  43.653  47.716  1.00  0.00     0.169 HD
HETATM   11  O   UNL     1      22.804  43.333  50.809  1.00  0.00    -0.272 OA
BRANCH   9  12
HETATM   12  C   UNL     1      22.096  45.004  48.452  1.00  0.00     0.034 A 
HETATM   13  C   UNL     1      20.719  44.936  48.671  1.00  0.00     0.030 A 
HETATM   14  C   UNL     1      19.919  46.082  48.561  1.00  0.00     0.019 A 
HETATM   15  C   UNL     1      20.490  47.313  48.221  1.00  0.00     0.032 A 
HETATM   16  C   UNL     1      21.871  47.386  48.009  1.00  0.00     0.019 A 
HETATM   17  C   UNL     1      22.666  46.239  48.120  1.00  0.00     0.030 A 
BRANCH  15  18
HETATM   18  C   UNL     1      19.692  48.562  48.099  1.00  0.00     0.249 C 
HETATM   19  N   UNL     1      19.086  48.818  46.901  1.00  0.00    -0.366 N 
HETATM   20  H   UNL     1      19.298  48.316  46.052  1.00  0.00     0.159 HD
HETATM   21  H   UNL     1      18.624  49.715  46.814  1.00  0.00     0.159 HD
HETATM   22  O   UNL     1      19.601  49.357  49.026  1.00  0.00    -0.268 OA
ENDBRANCH  15  18
ENDBRANCH   9  12
ENDBRANCH   7   8
ENDBRANCH   6   7
ENDBRANCH   2   6
BRANCH   1  23
HETATM   23  C   UNL     1      26.276  45.346  50.925  1.00  0.00     0.044 A 
HETATM   24  C   UNL     1      27.118  46.168  50.165  1.00  0.00     0.037 A 
HETATM   25  C   UNL     1      26.690  47.442  49.765  1.00  0.00    -0.060 A 
HETATM   26  C   UNL     1      27.571  48.318  48.924  1.00  0.00     0.048 C 
HETATM   27  C   UNL     1      25.404  47.874  50.115  1.00  0.00     0.007 A 
HETATM   28  C   UNL     1      24.564  47.056  50.870  1.00  0.00     0.003 A 
HETATM   29  C   UNL     1      24.995  45.794  51.276  1.00  0.00     0.030 A 
ENDBRANCH   1  23
BRANCH   5  30
HETATM   30  C   UNL     1      27.719  44.502  53.687  1.00  0.00     0.040 A 
HETATM   31  C   UNL     1      28.887  44.238  54.471  1.00  0.00     0.006 A 
HETATM   32  C   UNL     1      29.016  45.288  55.383  1.00  0.00     0.043 A 
HETATM   33  C   UNL     1      29.841  43.198  54.513  1.00  0.00     0.015 A 
HETATM   34  C   UNL     1      30.044  45.349  56.331  1.00  0.00     0.030 A 
HETATM   35  N   UNL     1      27.985  46.165  55.142  1.00  0.00    -0.364 N 
HETATM   36  C   UNL     1      30.972  44.304  56.351  1.00  0.00     0.002 A 
HETATM   37  C   UNL     1      30.874  43.243  55.455  1.00  0.00     0.001 A 
HETATM   38  H   UNL     1      27.841  47.029  55.645  1.00  0.00     0.165 HD
HETATM   39  C   UNL     1      27.201  45.707  54.115  1.00  0.00     0.104 A 
ENDBRANCH   5  30
TORSDOF 7
ENDMDL
MODEL 4
REMARK VINA RESULT:      -9.2     10.975     12.124
REMARK  7 active torsions:
REMARK  status: ('A' for Active; 'I' for Inactive)
REMARK    1  A    between atoms: C_4  and  N_5 
REMARK    2  A    between atoms: C_6  and  S_7 
REMARK    3  A    between atoms: S_7  and  C_8 
REMARK    4  A    between atoms: C_8  and  C_9 
REMARK       I    between atoms: C_9  and  N_10 
REMARK    5  A    between atoms: N_10  and  C_11 
REMARK    6  A    between atoms: C_14  and  C_15 
REMARK       I    between atoms: C_15  and  N_16 
REMARK    7  A    between atoms: C_23  and  C_24 
ROOT
HETATM    1  N   UNL     1      31.109  48.964  40.650  1.00  0.00    -0.271 N 
HETATM    2  C   UNL     1      31.242  47.768  39.958  1.00  0.00     0.197 A 
HETATM    3  N   UNL     1      32.230  47.061  40.454  1.00  0.00    -0.122 NA
HETATM    4  N   UNL     1      32.782  47.776  41.477  1.00  0.00    -0.128 NA
HETATM    5  C   UNL     1      32.167  48.943  41.557  1.00  0.00     0.171 A 
ENDROOT
BRANCH   2   6
HETATM    6  S   UNL     1      30.147  47.170  38.749  1.00  0.00    -0.080 SA
BRANCH   6   7
HETATM    7  C   UNL     1      29.094  46.083  39.762  1.00  0.00     0.185 C 
BRANCH   7   8
HETATM    8  C   UNL     1      27.820  46.804  40.180  1.00  0.00     0.231 C 
HETATM    9  N   UNL     1      27.135  47.375  39.119  1.00  0.00    -0.327 N 
HETATM   10  H   UNL     1      27.596  47.319  38.217  1.00  0.00     0.169 HD
HETATM   11  O   UNL     1      27.452  46.793  41.352  1.00  0.00    -0.272 OA
BRANCH   9  12
HETATM   12  C   UNL     1      25.927  48.099  39.157  1.00  0.00     0.034 A 
HETATM   13  C   UNL     1      24.756  47.636  39.760  1.00  0.00     0.030 A 
HETATM   14  C   UNL     1      23.595  48.423  39.769  1.00  0.00     0.019 A 
HETATM   15  C   UNL     1      23.592  49.684  39.163  1.00  0.00     0.032 A 
HETATM   16  C   UNL     1      24.767  50.154  38.566  1.00  0.00     0.019 A 
HETATM   17  C   UNL     1      25.923  49.365  38.560  1.00  0.00     0.030 A 
BRANCH  15  18
HETATM   18  C   UNL     1      22.394  50.565  39.149  1.00  0.00     0.249 C 
HETATM   19  N   UNL     1      22.253  51.468  40.165  1.00  0.00    -0.366 N 
HETATM   20  H   UNL     1      22.804  51.444  41.010  1.00  0.00     0.159 HD
HETATM   21  H   UNL     1      21.388  51.994  40.182  1.00  0.00     0.159 HD
HETATM   22  O   UNL     1      21.540  50.471  38.276  1.00  0.00    -0.268 OA
ENDBRANCH  15  18
ENDBRANCH   9  12
ENDBRANCH   7   8
ENDBRANCH   6   7
ENDBRANCH   2   6
BRANCH   1  23
HETATM   23  C   UNL     1      30.061  49.918  40.557  1.00  0.00     0.044 A 
HETATM   24  C   UNL     1      30.023  50.839  39.502  1.00  0.00     0.037 A 
HETATM   25  C   UNL     1      28.978  51.769  39.413  1.00  0.00    -0.060 A 
HETATM   26  C   UNL     1      28.911  52.739  38.269  1.00  0.00     0.048 C 
HETATM   27  C   UNL     1      27.961  51.752  40.375  1.00  0.00     0.007 A 
HETATM   28  C   UNL     1      27.996  50.835  41.425  1.00  0.00     0.003 A 
HETATM   29  C   UNL     1      29.042  49.918  41.519  1.00  0.00     0.030 A 
ENDBRANCH   1  23
BRANCH   5  30
HETATM   30  C   UNL     1      32.680  50.041  42.441  1.00  0.00     0.040 A 
HETATM   31  C   UNL     1      34.013  50.561  42.460  1.00  0.00     0.006 A 
HETATM   32  C   UNL     1      34.043  51.580  43.415  1.00  0.00     0.043 A 
HETATM   33  C   UNL     1      35.209  50.253  41.777  1.00  0.00     0.015 A 
HETATM   34  C   UNL     1      35.203  52.303  43.719  1.00  0.00     0.030 A 
HETATM   35  N   UNL     1      32.774  51.692  43.931  1.00  0.00    -0.364 N 
HETATM   36  C   UNL     1      36.373  51.974  43.027  1.00  0.00     0.002 A 
HETATM   37  C   UNL     1      36.378  50.965  42.069  1.00  0.00     0.001 A 
HETATM   38  H   UNL     1      32.499  52.365  44.632  1.00  0.00     0.165 HD
HETATM   39  C   UNL     1      31.940  50.775  43.344  1.00  0.00     0.104 A 
ENDBRANCH   5  30
TORSDOF 7
ENDMDL
MODEL 5
REMARK VINA RESULT:      -9.0      1.971      3.081
REMARK  7 active torsions:
REMARK  status: ('A' for Active; 'I' for Inactive)
REMARK    1  A    between atoms: C_4  and  N_5 
REMARK    2  A    between atoms: C_6  and  S_7 
REMARK    3  A    between atoms: S_7  and  C_8 
REMARK    4  A    between atoms: C_8  and  C_9 
REMARK       I    between atoms: C_9  and  N_10 
REMARK    5  A    between atoms: N_10  and  C_11 
REMARK    6  A    between atoms: C_14  and  C_15 
REMARK       I    between atoms: C_15  and  N_16 
REMARK    7  A    between atoms: C_23  and  C_24 
ROOT
HETATM    1  N   UNL     1      24.741  43.651  50.385  1.00  0.00    -0.271 N 
HETATM    2  C   UNL     1      23.508  43.332  49.833  1.00  0.00     0.197 A 
HETATM    3  N   UNL     1      23.366  42.030  49.757  1.00  0.00    -0.122 NA
HETATM    4  N   UNL     1      24.505  41.457  50.244  1.00  0.00    -0.128 NA
HETATM    5  C   UNL     1      25.360  42.415  50.556  1.00  0.00     0.171 A 
ENDROOT
BRANCH   2   6
HETATM    6  S   UNL     1      22.233  44.458  49.480  1.00  0.00    -0.080 SA
BRANCH   6   7
HETATM    7  C   UNL     1      22.915  45.282  48.007  1.00  0.00     0.185 C 
BRANCH   7   8
HETATM    8  C   UNL     1      22.158  46.569  47.709  1.00  0.00     0.231 C 
HETATM    9  N   UNL     1      21.836  47.295  48.846  1.00  0.00    -0.327 N 
HETATM   10  H   UNL     1      22.065  46.853  49.730  1.00  0.00     0.169 HD
HETATM   11  O   UNL     1      21.937  46.911  46.551  1.00  0.00    -0.272 OA
BRANCH   9  12
HETATM   12  C   UNL     1      21.152  48.525  48.923  1.00  0.00     0.034 A 
HETATM   13  C   UNL     1      21.781  49.763  49.062  1.00  0.00     0.030 A 
HETATM   14  C   UNL     1      21.030  50.946  49.118  1.00  0.00     0.019 A 
HETATM   15  C   UNL     1      19.634  50.900  49.044  1.00  0.00     0.032 A 
HETATM   16  C   UNL     1      19.001  49.661  48.896  1.00  0.00     0.019 A 
HETATM   17  C   UNL     1      19.755  48.483  48.840  1.00  0.00     0.030 A 
BRANCH  15  18
HETATM   18  C   UNL     1      18.787  52.122  49.089  1.00  0.00     0.249 C 
HETATM   19  N   UNL     1      18.730  52.902  47.969  1.00  0.00    -0.366 N 
HETATM   20  H   UNL     1      19.366  52.805  47.191  1.00  0.00     0.159 HD
HETATM   21  H   UNL     1      18.220  53.773  48.053  1.00  0.00     0.159 HD
HETATM   22  O   UNL     1      18.179  52.443  50.104  1.00  0.00    -0.268 OA
ENDBRANCH  15  18
ENDBRANCH   9  12
ENDBRANCH   7   8
ENDBRANCH   6   7
ENDBRANCH   2   6
BRANCH   1  23
HETATM   23  C   UNL     1      25.207  44.925  50.809  1.00  0.00     0.044 A 
HETATM   24  C   UNL     1      25.898  45.764  49.926  1.00  0.00     0.037 A 
HETATM   25  C   UNL     1      26.344  47.024  50.351  1.00  0.00    -0.060 A 
HETATM   26  C   UNL     1      27.057  47.944  49.404  1.00  0.00     0.048 C 
HETATM   27  C   UNL     1      26.071  47.442  51.659  1.00  0.00     0.007 A 
HETATM   28  C   UNL     1      25.381  46.608  52.539  1.00  0.00     0.003 A 
HETATM   29  C   UNL     1      24.949  45.352  52.119  1.00  0.00     0.030 A 
ENDBRANCH   1  23
BRANCH   5  30
HETATM   30  C   UNL     1      26.782  42.109  50.920  1.00  0.00     0.040 A 
HETATM   31  C   UNL     1      27.445  42.480  52.133  1.00  0.00     0.006 A 
HETATM   32  C   UNL     1      28.746  41.977  52.061  1.00  0.00     0.043 A 
HETATM   33  C   UNL     1      27.077  43.214  53.281  1.00  0.00     0.015 A 
HETATM   34  C   UNL     1      29.693  42.171  53.074  1.00  0.00     0.030 A 
HETATM   35  N   UNL     1      28.857  41.305  50.867  1.00  0.00    -0.364 N 
HETATM   36  C   UNL     1      29.301  42.905  54.197  1.00  0.00     0.002 A 
HETATM   37  C   UNL     1      28.012  43.419  54.302  1.00  0.00     0.001 A 
HETATM   38  H   UNL     1      29.689  40.822  50.558  1.00  0.00     0.165 HD
HETATM   39  C   UNL     1      27.676  41.369  50.174  1.00  0.00     0.104 A 
ENDBRANCH   5  30
TORSDOF 7
ENDMDL
MODEL 6
REMARK VINA RESULT:      -8.9      5.430      9.499
REMARK  7 active torsions:
REMARK  status: ('A' for Active; 'I' for Inactive)
REMARK    1  A    between atoms: C_4  and  N_5 
REMARK    2  A    between atoms: C_6  and  S_7 
REMARK    3  A    between atoms: S_7  and  C_8 
REMARK    4  A    between atoms: C_8  and  C_9 
REMARK       I    between atoms: C_9  and  N_10 
REMARK    5  A    between atoms: N_10  and  C_11 
REMARK    6  A    between atoms: C_14  and  C_15 
REMARK       I    between atoms: C_15  and  N_16 
REMARK    7  A    between atoms: C_23  and  C_24 
ROOT
HETATM    1  N   UNL     1      17.803  51.019  48.529  1.00  0.00    -0.271 N 
HETATM    2  C   UNL     1      17.098  52.011  49.196  1.00  0.00     0.197 A 
HETATM    3  N   UNL     1      17.796  52.463  50.210  1.00  0.00    -0.122 NA
HETATM    4  N   UNL     1      18.974  51.773  50.246  1.00  0.00    -0.128 NA
HETATM    5  C   UNL     1      18.958  50.860  49.291  1.00  0.00     0.171 A 
ENDROOT
BRANCH   2   6
HETATM    6  S   UNL     1      15.603  52.721  48.669  1.00  0.00    -0.080 SA
BRANCH   6   7
HETATM    7  C   UNL     1      14.563  52.432  50.136  1.00  0.00     0.185 C 
BRANCH   7   8
HETATM    8  C   UNL     1      14.167  53.751  50.785  1.00  0.00     0.231 C 
HETATM    9  N   UNL     1      15.248  54.571  51.072  1.00  0.00    -0.327 N 
HETATM   10  H   UNL     1      16.163  54.169  50.897  1.00  0.00     0.169 HD
HETATM   11  O   UNL     1      12.984  54.034  50.955  1.00  0.00    -0.272 OA
BRANCH   9  12
HETATM   12  C   UNL     1      15.232  55.851  51.661  1.00  0.00     0.034 A 
HETATM   13  C   UNL     1      15.259  57.044  50.938  1.00  0.00     0.030 A 
HETATM   14  C   UNL     1      15.226  58.282  51.597  1.00  0.00     0.019 A 
HETATM   15  C   UNL     1      15.174  58.337  52.993  1.00  0.00     0.032 A 
HETATM   16  C   UNL     1      15.138  57.142  53.720  1.00  0.00     0.019 A 
HETATM   17  C   UNL     1      15.171  55.910  53.058  1.00  0.00     0.030 A 
BRANCH  15  18
HETATM   18  C   UNL     1      15.129  59.620  53.745  1.00  0.00     0.249 C 
HETATM   19  N   UNL     1      16.158  59.895  54.602  1.00  0.00    -0.366 N 
HETATM   20  H   UNL     1      16.837  59.208  54.893  1.00  0.00     0.159 HD
HETATM   21  H   UNL     1      16.061  60.730  55.167  1.00  0.00     0.159 HD
HETATM   22  O   UNL     1      14.190  60.398  53.629  1.00  0.00    -0.268 OA
ENDBRANCH  15  18
ENDBRANCH   9  12
ENDBRANCH   7   8
ENDBRANCH   6   7
ENDBRANCH   2   6
BRANCH   1  23
HETATM   23  C   UNL     1      17.489  50.409  47.284  1.00  0.00     0.044 A 
HETATM   24  C   UNL     1      18.068  50.871  46.095  1.00  0.00     0.037 A 
HETATM   25  C   UNL     1      17.760  50.255  44.873  1.00  0.00    -0.060 A 
HETATM   26  C   UNL     1      18.399  50.721  43.598  1.00  0.00     0.048 C 
HETATM   27  C   UNL     1      16.888  49.160  44.859  1.00  0.00     0.007 A 
HETATM   28  C   UNL     1      16.313  48.697  46.042  1.00  0.00     0.003 A 
HETATM   29  C   UNL     1      16.610  49.318  47.254  1.00  0.00     0.030 A 
ENDBRANCH   1  23
BRANCH   5  30
HETATM   30  C   UNL     1      20.016  49.801  49.201  1.00  0.00     0.040 A 
HETATM   31  C   UNL     1      21.383  49.998  48.828  1.00  0.00     0.006 A 
HETATM   32  C   UNL     1      22.012  48.753  48.896  1.00  0.00     0.043 A 
HETATM   33  C   UNL     1      22.150  51.109  48.416  1.00  0.00     0.015 A 
HETATM   34  C   UNL     1      23.362  48.564  48.574  1.00  0.00     0.030 A 
HETATM   35  N   UNL     1      21.071  47.845  49.321  1.00  0.00    -0.364 N 
HETATM   36  C   UNL     1      24.095  49.682  48.167  1.00  0.00     0.002 A 
HETATM   37  C   UNL     1      23.500  50.938  48.088  1.00  0.00     0.001 A 
HETATM   38  H   UNL     1      21.253  46.864  49.477  1.00  0.00     0.165 HD
HETATM   39  C   UNL     1      19.865  48.467  49.517  1.00  0.00     0.104 A 
ENDBRANCH   5  30
TORSDOF 7
ENDMDL
MODEL 7
REMARK VINA RESULT:      -8.8      2.682      8.338
REMARK  7 active torsions:
REMARK  status: ('A' for Active; 'I' for Inactive)
REMARK    1  A    between atoms: C_4  and  N_5 
REMARK    2  A    between atoms: C_6  and  S_7 
REMARK    3  A    between atoms: S_7  and  C_8 
REMARK    4  A    between atoms: C_8  and  C_9 
REMARK       I    between atoms: C_9  and  N_10 
REMARK    5  A    between atoms: N_10  and  C_11 
REMARK    6  A    between atoms: C_14  and  C_15 
REMARK       I    between atoms: C_15  and  N_16 
REMARK    7  A    between atoms: C_23  and  C_24 
ROOT
HETATM    1  N   UNL     1      21.386  46.994  48.194  1.00  0.00    -0.271 N 
HETATM    2  C   UNL     1      21.314  45.772  47.539  1.00  0.00     0.197 A 
HETATM    3  N   UNL     1      20.062  45.437  47.334  1.00  0.00    -0.122 NA
HETATM    4  N   UNL     1      19.276  46.423  47.858  1.00  0.00    -0.128 NA
HETATM    5  C   UNL     1      20.053  47.321  48.436  1.00  0.00     0.171 A 
ENDROOT
BRANCH   2   6
HETATM    6  S   UNL     1      22.662  44.892  46.886  1.00  0.00    -0.080 SA
BRANCH   6   7
HETATM    7  C   UNL     1      22.450  43.289  47.724  1.00  0.00     0.185 C 
BRANCH   7   8
HETATM    8  C   UNL     1      23.103  43.310  49.100  1.00  0.00     0.231 C 
HETATM    9  N   UNL     1      24.374  43.864  49.099  1.00  0.00    -0.327 N 
HETATM   10  H   UNL     1      24.746  44.110  48.188  1.00  0.00     0.169 HD
HETATM   11  O   UNL     1      22.489  42.918  50.089  1.00  0.00    -0.272 OA
BRANCH   9  12
HETATM   12  C   UNL     1      25.241  44.042  50.195  1.00  0.00     0.034 A 
HETATM   13  C   UNL     1      26.631  43.940  50.117  1.00  0.00     0.030 A 
HETATM   14  C   UNL     1      27.429  44.144  51.253  1.00  0.00     0.019 A 
HETATM   15  C   UNL     1      26.840  44.444  52.485  1.00  0.00     0.032 A 
HETATM   16  C   UNL     1      25.447  44.555  52.564  1.00  0.00     0.019 A 
HETATM   17  C   UNL     1      24.655  44.351  51.428  1.00  0.00     0.030 A 
BRANCH  15  18
HETATM   18  C   UNL     1      27.635  44.679  53.720  1.00  0.00     0.249 C 
HETATM   19  N   UNL     1      26.984  45.171  54.816  1.00  0.00    -0.366 N 
HETATM   20  H   UNL     1      26.052  45.557  54.782  1.00  0.00     0.159 HD
HETATM   21  H   UNL     1      27.561  45.406  55.614  1.00  0.00     0.159 HD
HETATM   22  O   UNL     1      28.842  44.469  53.754  1.00  0.00    -0.268 OA
ENDBRANCH  15  18
ENDBRANCH   9  12
ENDBRANCH   7   8
ENDBRANCH   6   7
ENDBRANCH   2   6
BRANCH   1  23
HETATM   23  C   UNL     1      22.537  47.792  48.434  1.00  0.00     0.044 A 
HETATM   24  C   UNL     1      23.557  47.340  49.280  1.00  0.00     0.037 A 
HETATM   25  C   UNL     1      24.694  48.130  49.502  1.00  0.00    -0.060 A 
HETATM   26  C   UNL     1      25.808  47.641  50.381  1.00  0.00     0.048 C 
HETATM   27  C   UNL     1      24.807  49.365  48.851  1.00  0.00     0.007 A 
HETATM   28  C   UNL     1      23.793  49.816  48.008  1.00  0.00     0.003 A 
HETATM   29  C   UNL     1      22.658  49.034  47.797  1.00  0.00     0.030 A 
ENDBRANCH   1  23
BRANCH   5  30
HETATM   30  C   UNL     1      19.486  48.418  49.287  1.00  0.00     0.040 A 
HETATM   31  C   UNL     1      19.273  49.776  48.887  1.00  0.00     0.006 A 
HETATM   32  C   UNL     1      18.712  50.443  49.979  1.00  0.00     0.043 A 
HETATM   33  C   UNL     1      19.520  50.515  47.711  1.00  0.00     0.015 A 
HETATM   34  C   UNL     1      18.389  51.805  49.954  1.00  0.00     0.030 A 
HETATM   35  N   UNL     1      18.566  49.520  50.988  1.00  0.00    -0.364 N 
HETATM   36  C   UNL     1      18.648  52.511  48.776  1.00  0.00     0.002 A 
HETATM   37  C   UNL     1      19.204  51.878  47.669  1.00  0.00     0.001 A 
HETATM   38  H   UNL     1      18.166  49.722  51.894  1.00  0.00     0.165 HD
HETATM   39  C   UNL     1      19.020  48.293  50.579  1.00  0.00     0.104 A 
ENDBRANCH   5  30
TORSDOF 7
ENDMDL
MODEL 8
REMARK VINA RESULT:      -8.8      3.324      9.804
REMARK  7 active torsions:
REMARK  status: ('A' for Active; 'I' for Inactive)
REMARK    1  A    between atoms: C_4  and  N_5 
REMARK    2  A    between atoms: C_6  and  S_7 
REMARK    3  A    between atoms: S_7  and  C_8 
REMARK    4  A    between atoms: C_8  and  C_9 
REMARK       I    between atoms: C_9  and  N_10 
REMARK    5  A    between atoms: N_10  and  C_11 
REMARK    6  A    between atoms: C_14  and  C_15 
REMARK       I    between atoms: C_15  and  N_16 
REMARK    7  A    between atoms: C_23  and  C_24 
ROOT
HETATM    1  N   UNL     1      22.224  46.864  48.451  1.00  0.00    -0.271 N 
HETATM    2  C   UNL     1      23.023  45.887  49.029  1.00  0.00     0.197 A 
HETATM    3  N   UNL     1      22.768  44.715  48.497  1.00  0.00    -0.122 NA
HETATM    4  N   UNL     1      21.787  44.886  47.563  1.00  0.00    -0.128 NA
HETATM    5  C   UNL     1      21.405  46.151  47.577  1.00  0.00     0.171 A 
ENDROOT
BRANCH   2   6
HETATM    6  S   UNL     1      24.325  46.171  50.143  1.00  0.00    -0.080 SA
BRANCH   6   7
HETATM    7  C   UNL     1      24.736  44.462  50.618  1.00  0.00     0.185 C 
BRANCH   7   8
HETATM    8  C   UNL     1      25.391  44.427  51.992  1.00  0.00     0.231 C 
HETATM    9  N   UNL     1      26.774  44.509  51.946  1.00  0.00    -0.327 N 
HETATM   10  H   UNL     1      27.185  44.500  51.019  1.00  0.00     0.169 HD
HETATM   11  O   UNL     1      24.705  44.392  53.011  1.00  0.00    -0.272 OA
BRANCH   9  12
HETATM   12  C   UNL     1      27.678  44.513  53.028  1.00  0.00     0.034 A 
HETATM   13  C   UNL     1      27.644  45.439  54.072  1.00  0.00     0.030 A 
HETATM   14  C   UNL     1      28.572  45.368  55.122  1.00  0.00     0.019 A 
HETATM   15  C   UNL     1      29.551  44.370  55.132  1.00  0.00     0.032 A 
HETATM   16  C   UNL     1      29.582  43.436  54.091  1.00  0.00     0.019 A 
HETATM   17  C   UNL     1      28.654  43.510  53.046  1.00  0.00     0.030 A 
BRANCH  15  18
HETATM   18  C   UNL     1      30.555  44.242  56.223  1.00  0.00     0.249 C 
HETATM   19  N   UNL     1      30.624  45.244  57.149  1.00  0.00    -0.366 N 
HETATM   20  H   UNL     1      30.175  46.140  57.033  1.00  0.00     0.159 HD
HETATM   21  H   UNL     1      31.372  45.178  57.828  1.00  0.00     0.159 HD
HETATM   22  O   UNL     1      31.320  43.286  56.281  1.00  0.00    -0.268 OA
ENDBRANCH  15  18
ENDBRANCH   9  12
ENDBRANCH   7   8
ENDBRANCH   6   7
ENDBRANCH   2   6
BRANCH   1  23
HETATM   23  C   UNL     1      22.315  48.274  48.604  1.00  0.00     0.044 A 
HETATM   24  C   UNL     1      21.305  48.989  49.259  1.00  0.00     0.037 A 
HETATM   25  C   UNL     1      21.409  50.378  49.416  1.00  0.00    -0.060 A 
HETATM   26  C   UNL     1      20.348  51.149  50.145  1.00  0.00     0.048 C 
HETATM   27  C   UNL     1      22.545  51.038  48.931  1.00  0.00     0.007 A 
HETATM   28  C   UNL     1      23.552  50.328  48.280  1.00  0.00     0.003 A 
HETATM   29  C   UNL     1      23.442  48.948  48.115  1.00  0.00     0.030 A 
ENDBRANCH   1  23
BRANCH   5  30
HETATM   30  C   UNL     1      20.199  46.615  46.817  1.00  0.00     0.040 A 
HETATM   31  C   UNL     1      18.935  46.984  47.378  1.00  0.00     0.006 A 
HETATM   32  C   UNL     1      18.111  47.369  46.317  1.00  0.00     0.043 A 
HETATM   33  C   UNL     1      18.396  47.010  48.682  1.00  0.00     0.015 A 
HETATM   34  C   UNL     1      16.783  47.776  46.495  1.00  0.00     0.030 A 
HETATM   35  N   UNL     1      18.855  47.265  45.166  1.00  0.00    -0.364 N 
HETATM   36  C   UNL     1      16.277  47.789  47.798  1.00  0.00     0.002 A 
HETATM   37  C   UNL     1      17.070  47.413  48.877  1.00  0.00     0.001 A 
HETATM   38  H   UNL     1      18.517  47.498  44.243  1.00  0.00     0.165 HD
HETATM   39  C   UNL     1      20.119  46.820  45.456  1.00  0.00     0.104 A 
ENDBRANCH   5  30
TORSDOF 7
ENDMDL
MODEL 9
REMARK VINA RESULT:      -8.7     10.834     12.118
REMARK  7 active torsions:
REMARK  status: ('A' for Active; 'I' for Inactive)
REMARK    1  A    between atoms: C_4  and  N_5 
REMARK    2  A    between atoms: C_6  and  S_7 
REMARK    3  A    between atoms: S_7  and  C_8 
REMARK    4  A    between atoms: C_8  and  C_9 
REMARK       I    between atoms: C_9  and  N_10 
REMARK    5  A    between atoms: N_10  and  C_11 
REMARK    6  A    between atoms: C_14  and  C_15 
REMARK       I    between atoms: C_15  and  N_16 
REMARK    7  A    between atoms: C_23  and  C_24 
ROOT
HETATM    1  N   UNL     1      31.402  48.847  40.046  1.00  0.00    -0.271 N 
HETATM    2  C   UNL     1      30.994  47.585  39.637  1.00  0.00     0.197 A 
HETATM    3  N   UNL     1      31.715  46.660  40.225  1.00  0.00    -0.122 NA
HETATM    4  N   UNL     1      32.625  47.287  41.027  1.00  0.00    -0.128 NA
HETATM    5  C   UNL     1      32.494  48.592  40.873  1.00  0.00     0.171 A 
ENDROOT
BRANCH   2   6
HETATM    6  S   UNL     1      29.602  47.237  38.658  1.00  0.00    -0.080 SA
BRANCH   6   7
HETATM    7  C   UNL     1      28.439  46.650  39.930  1.00  0.00     0.185 C 
BRANCH   7   8
HETATM    8  C   UNL     1      27.328  47.667  40.155  1.00  0.00     0.231 C 
HETATM    9  N   UNL     1      26.305  47.583  39.223  1.00  0.00    -0.327 N 
HETATM   10  H   UNL     1      26.453  46.924  38.467  1.00  0.00     0.169 HD
HETATM   11  O   UNL     1      27.359  48.422  41.124  1.00  0.00    -0.272 OA
BRANCH   9  12
HETATM   12  C   UNL     1      25.134  48.363  39.150  1.00  0.00     0.034 A 
HETATM   13  C   UNL     1      24.985  49.475  38.319  1.00  0.00     0.030 A 
HETATM   14  C   UNL     1      23.781  50.194  38.293  1.00  0.00     0.019 A 
HETATM   15  C   UNL     1      22.713  49.811  39.109  1.00  0.00     0.032 A 
HETATM   16  C   UNL     1      22.856  48.692  39.937  1.00  0.00     0.019 A 
HETATM   17  C   UNL     1      24.059  47.977  39.959  1.00  0.00     0.030 A 
BRANCH  15  18
HETATM   18  C   UNL     1      21.411  50.530  39.117  1.00  0.00     0.249 C 
HETATM   19  N   UNL     1      21.016  51.124  40.283  1.00  0.00    -0.366 N 
HETATM   20  H   UNL     1      21.456  50.946  41.174  1.00  0.00     0.159 HD
HETATM   21  H   UNL     1      20.088  51.530  40.289  1.00  0.00     0.159 HD
HETATM   22  O   UNL     1      20.694  50.569  38.125  1.00  0.00    -0.268 OA
ENDBRANCH  15  18
ENDBRANCH   9  12
ENDBRANCH   7   8
ENDBRANCH   6   7
ENDBRANCH   2   6
BRANCH   1  23
HETATM   23  C   UNL     1      30.770  50.095  39.796  1.00  0.00     0.044 A 
HETATM   24  C   UNL     1      29.772  50.575  40.653  1.00  0.00     0.037 A 
HETATM   25  C   UNL     1      29.162  51.813  40.404  1.00  0.00    -0.060 A 
HETATM   26  C   UNL     1      28.114  52.351  41.333  1.00  0.00     0.048 C 
HETATM   27  C   UNL     1      29.578  52.572  39.304  1.00  0.00     0.007 A 
HETATM   28  C   UNL     1      30.573  52.097  38.451  1.00  0.00     0.003 A 
HETATM   29  C   UNL     1      31.170  50.861  38.693  1.00  0.00     0.030 A 
ENDBRANCH   1  23
BRANCH   5  30
HETATM   30  C   UNL     1      33.487  49.554  41.455  1.00  0.00     0.040 A 
HETATM   31  C   UNL     1      33.278  50.407  42.585  1.00  0.00     0.006 A 
HETATM   32  C   UNL     1      34.464  51.116  42.791  1.00  0.00     0.043 A 
HETATM   33  C   UNL     1      32.189  50.668  43.445  1.00  0.00     0.015 A 
HETATM   34  C   UNL     1      34.615  52.066  43.807  1.00  0.00     0.030 A 
HETATM   35  N   UNL     1      35.363  50.687  41.843  1.00  0.00    -0.364 N 
HETATM   36  C   UNL     1      33.519  52.305  44.641  1.00  0.00     0.002 A 
HETATM   37  C   UNL     1      32.323  51.616  44.465  1.00  0.00     0.001 A 
HETATM   38  H   UNL     1      36.314  51.019  41.766  1.00  0.00     0.165 HD
HETATM   39  C   UNL     1      34.788  49.739  41.037  1.00  0.00     0.104 A 
ENDBRANCH   5  30
TORSDOF 7
ENDMDL
MODEL 10
REMARK VINA RESULT:      -8.7     19.803     21.488
REMARK  7 active torsions:
REMARK  status: ('A' for Active; 'I' for Inactive)
REMARK    1  A    between atoms: C_4  and  N_5 
REMARK    2  A    between atoms: C_6  and  S_7 
REMARK    3  A    between atoms: S_7  and  C_8 
REMARK    4  A    between atoms: C_8  and  C_9 
REMARK       I    between atoms: C_9  and  N_10 
REMARK    5  A    between atoms: N_10  and  C_11 
REMARK    6  A    between atoms: C_14  and  C_15 
REMARK       I    between atoms: C_15  and  N_16 
REMARK    7  A    between atoms: C_23  and  C_24 
ROOT
HETATM    1  N   UNL     1      38.318  46.057  64.820  1.00  0.00    -0.271 N 
HETATM    2  C   UNL     1      37.853  45.305  63.749  1.00  0.00     0.197 A 
HETATM    3  N   UNL     1      36.619  45.642  63.458  1.00  0.00    -0.122 NA
HETATM    4  N   UNL     1      36.233  46.615  64.335  1.00  0.00    -0.128 NA
HETATM    5  C   UNL     1      37.214  46.819  65.196  1.00  0.00     0.171 A 
ENDROOT
BRANCH   2   6
HETATM    6  S   UNL     1      38.806  44.222  62.782  1.00  0.00    -0.080 SA
BRANCH   6   7
HETATM    7  C   UNL     1      37.948  42.648  63.102  1.00  0.00     0.185 C 
BRANCH   7   8
HETATM    8  C   UNL     1      37.395  42.614  64.520  1.00  0.00     0.231 C 
HETATM    9  N   UNL     1      36.046  42.926  64.594  1.00  0.00    -0.327 N 
HETATM   10  H   UNL     1      35.614  43.216  63.724  1.00  0.00     0.169 HD
HETATM   11  O   UNL     1      38.108  42.273  65.460  1.00  0.00    -0.272 OA
BRANCH   9  12
HETATM   12  C   UNL     1      35.231  42.977  65.742  1.00  0.00     0.034 A 
HETATM   13  C   UNL     1      35.336  43.954  66.734  1.00  0.00     0.030 A 
HETATM   14  C   UNL     1      34.478  43.944  67.843  1.00  0.00     0.019 A 
HETATM   15  C   UNL     1      33.507  42.946  67.975  1.00  0.00     0.032 A 
HETATM   16  C   UNL     1      33.394  41.970  66.979  1.00  0.00     0.019 A 
HETATM   17  C   UNL     1      34.253  41.985  65.873  1.00  0.00     0.030 A 
BRANCH  15  18
HETATM   18  C   UNL     1      32.565  42.890  69.125  1.00  0.00     0.249 C 
HETATM   19  N   UNL     1      31.262  42.566  68.868  1.00  0.00    -0.366 N 
HETATM   20  H   UNL     1      30.866  42.548  67.940  1.00  0.00     0.159 HD
HETATM   21  H   UNL     1      30.622  42.621  69.651  1.00  0.00     0.159 HD
HETATM   22  O   UNL     1      32.928  43.155  70.265  1.00  0.00    -0.268 OA
ENDBRANCH  15  18
ENDBRANCH   9  12
ENDBRANCH   7   8
ENDBRANCH   6   7
ENDBRANCH   2   6
BRANCH   1  23
HETATM   23  C   UNL     1      39.644  46.136  65.324  1.00  0.00     0.044 A 
HETATM   24  C   UNL     1      40.111  45.204  66.259  1.00  0.00     0.037 A 
HETATM   25  C   UNL     1      41.426  45.285  66.741  1.00  0.00    -0.060 A 
HETATM   26  C   UNL     1      41.947  44.273  67.719  1.00  0.00     0.048 C 
HETATM   27  C   UNL     1      42.271  46.292  66.261  1.00  0.00     0.007 A 
HETATM   28  C   UNL     1      41.808  47.220  65.328  1.00  0.00     0.003 A 
HETATM   29  C   UNL     1      40.498  47.146  64.858  1.00  0.00     0.030 A 
ENDBRANCH   1  23
BRANCH   5  30
HETATM   30  C   UNL     1      37.023  47.675  66.413  1.00  0.00     0.040 A 
HETATM   31  C   UNL     1      37.297  49.076  66.515  1.00  0.00     0.006 A 
HETATM   32  C   UNL     1      36.958  49.468  67.812  1.00  0.00     0.043 A 
HETATM   33  C   UNL     1      37.822  50.051  65.640  1.00  0.00     0.015 A 
HETATM   34  C   UNL     1      37.118  50.779  68.276  1.00  0.00     0.030 A 
HETATM   35  N   UNL     1      36.472  48.356  68.459  1.00  0.00    -0.364 N 
HETATM   36  C   UNL     1      37.642  51.723  67.388  1.00  0.00     0.002 A 
HETATM   37  C   UNL     1      37.989  51.367  66.089  1.00  0.00     0.001 A 
HETATM   38  H   UNL     1      36.133  48.351  69.411  1.00  0.00     0.165 HD
HETATM   39  C   UNL     1      36.497  47.270  67.622  1.00  0.00     0.104 A 
ENDBRANCH   5  30
TORSDOF 7
ENDMDL
