MODEL 1
REMARK VINA RESULT:      -8.4      0.000      0.000
REMARK  9 active torsions:
REMARK  status: ('A' for Active; 'I' for Inactive)
REMARK    1  A    between atoms: C_2  and  O_3 
REMARK    2  A    between atoms: O_3  and  C_4 
REMARK    3  A    between atoms: C_4  and  C_5 
REMARK    4  A    between atoms: C_7  and  C_8 
REMARK       I    between atoms: C_8  and  N_9 
REMARK    5  A    between atoms: N_9  and  N_10 
REMARK    6  A    between atoms: N_10  and  C_11 
REMARK    7  A    between atoms: C_11  and  N_12 
REMARK    8  A    between atoms: N_12  and  C_13 
REMARK    9  A    between atoms: C_13  and  C_14 
ROOT
HETATM    1  C   UNL     1      23.796  49.364  48.150  1.00  0.00     0.293 C 
HETATM    2  N   UNL     1      22.462  48.980  48.184  1.00  0.00    -0.262 N 
HETATM    3  O   UNL     1      24.089  50.259  47.354  1.00  0.00    -0.264 OA
HETATM    4  H   UNL     1      21.894  49.617  47.624  1.00  0.00     0.190 HD
ENDROOT
BRANCH   1   5
HETATM    5  C   UNL     1      24.785  48.678  48.961  1.00  0.00     0.145 A 
HETATM    6  O   UNL     1      24.323  47.647  49.746  1.00  0.00    -0.307 OA
HETATM    7  C   UNL     1      25.359  47.180  50.493  1.00  0.00     0.078 A 
HETATM    8  C   UNL     1      26.506  47.877  50.185  1.00  0.00     0.038 A 
HETATM    9  C   UNL     1      26.137  48.836  49.207  1.00  0.00     0.045 A 
BRANCH   7  10
HETATM   10  C   UNL     1      25.051  46.078  51.440  1.00  0.00     0.240 C 
BRANCH  10  11
HETATM   11  O   UNL     1      25.629  46.446  52.693  1.00  0.00    -0.345 OA
BRANCH  11  12
HETATM   12  C   UNL     1      26.664  45.679  53.149  1.00  0.00     0.069 A 
HETATM   13  C   UNL     1      27.153  44.518  52.548  1.00  0.00     0.038 A 
HETATM   14  C   UNL     1      28.234  43.834  53.119  1.00  0.00     0.022 A 
HETATM   15  C   UNL     1      28.822  44.312  54.288  1.00  0.00     0.011 A 
HETATM   16  C   UNL     1      28.341  45.468  54.895  1.00  0.00     0.022 A 
HETATM   17 BR   UNL     1      30.281  43.386  55.052  1.00  0.00    -0.051 Br
HETATM   18  C   UNL     1      27.264  46.149  54.321  1.00  0.00     0.038 A 
ENDBRANCH  11  12
ENDBRANCH  10  11
ENDBRANCH   7  10
ENDBRANCH   1   5
BRANCH   2  19
HETATM   19  N   UNL     1      21.808  48.520  49.356  1.00  0.00    -0.274 N 
HETATM   20  H   UNL     1      22.417  48.026  50.011  1.00  0.00     0.189 HD
BRANCH  19  21
HETATM   21  C   UNL     1      20.523  48.047  49.231  1.00  0.00     0.186 C 
HETATM   22  S   UNL     1      19.961  47.114  47.958  1.00  0.00    -0.040 SA
BRANCH  21  23
HETATM   23  N   UNL     1      19.633  48.355  50.209  1.00  0.00    -0.364 N 
HETATM   24  H   UNL     1      19.222  47.529  50.634  1.00  0.00     0.162 HD
BRANCH  23  25
HETATM   25  C   UNL     1      19.051  49.636  50.601  1.00  0.00     0.154 C 
BRANCH  25  26
HETATM   26  C   UNL     1      18.502  50.462  49.431  1.00  0.00     0.139 C 
HETATM   27  O   UNL     1      17.316  51.168  49.869  1.00  0.00    -0.384 OA
HETATM   28  C   UNL     1      17.541  52.575  49.695  1.00  0.00     0.168 C 
HETATM   29  C   UNL     1      18.586  52.687  48.612  1.00  0.00     0.029 C 
HETATM   30  C   UNL     1      19.485  51.522  48.942  1.00  0.00     0.035 C 
ENDBRANCH  25  26
ENDBRANCH  23  25
ENDBRANCH  21  23
ENDBRANCH  19  21
ENDBRANCH   2  19
TORSDOF 9
ENDMDL
MODEL 2
REMARK VINA RESULT:      -8.1      1.757      2.509
REMARK  9 active torsions:
REMARK  status: ('A' for Active; 'I' for Inactive)
REMARK    1  A    between atoms: C_2  and  O_3 
REMARK    2  A    between atoms: O_3  and  C_4 
REMARK    3  A    between atoms: C_4  and  C_5 
REMARK    4  A    between atoms: C_7  and  C_8 
REMARK       I    between atoms: C_8  and  N_9 
REMARK    5  A    between atoms: N_9  and  N_10 
REMARK    6  A    between atoms: N_10  and  C_11 
REMARK    7  A    between atoms: C_11  and  N_12 
REMARK    8  A    between atoms: N_12  and  C_13 
REMARK    9  A    between atoms: C_13  and  C_14 
ROOT
HETATM    1  C   UNL     1      25.037  47.897  49.897  1.00  0.00     0.293 C 
HETATM    2  N   UNL     1      23.939  48.250  49.124  1.00  0.00    -0.262 N 
HETATM    3  O   UNL     1      26.066  48.552  49.718  1.00  0.00    -0.264 OA
HETATM    4  H   UNL     1      24.126  49.113  48.613  1.00  0.00     0.190 HD
ENDROOT
BRANCH   1   5
HETATM    5  C   UNL     1      24.972  46.765  50.802  1.00  0.00     0.145 A 
HETATM    6  O   UNL     1      25.486  46.960  52.063  1.00  0.00    -0.307 OA
HETATM    7  C   UNL     1      25.420  45.782  52.740  1.00  0.00     0.078 A 
HETATM    8  C   UNL     1      24.841  44.820  51.944  1.00  0.00     0.038 A 
HETATM    9  C   UNL     1      24.556  45.449  50.704  1.00  0.00     0.045 A 
BRANCH   7  10
HETATM   10  C   UNL     1      25.966  45.779  54.122  1.00  0.00     0.240 C 
BRANCH  10  11
HETATM   11  O   UNL     1      27.294  46.296  54.035  1.00  0.00    -0.345 OA
BRANCH  11  12
HETATM   12  C   UNL     1      28.282  45.575  54.645  1.00  0.00     0.069 A 
HETATM   13  C   UNL     1      28.731  44.310  54.264  1.00  0.00     0.038 A 
HETATM   14  C   UNL     1      29.766  43.688  54.974  1.00  0.00     0.022 A 
HETATM   15  C   UNL     1      30.349  44.333  56.063  1.00  0.00     0.011 A 
HETATM   16  C   UNL     1      29.909  45.595  56.450  1.00  0.00     0.022 A 
HETATM   17 BR   UNL     1      31.746  43.490  57.016  1.00  0.00    -0.051 Br
HETATM   18  C   UNL     1      28.877  46.213  55.738  1.00  0.00     0.038 A 
ENDBRANCH  11  12
ENDBRANCH  10  11
ENDBRANCH   7  10
ENDBRANCH   1   5
BRANCH   2  19
HETATM   19  N   UNL     1      22.596  48.136  49.570  1.00  0.00    -0.274 N 
HETATM   20  H   UNL     1      22.492  48.094  50.586  1.00  0.00     0.189 HD
BRANCH  19  21
HETATM   21  C   UNL     1      21.737  47.359  48.829  1.00  0.00     0.186 C 
HETATM   22  S   UNL     1      22.208  46.203  47.712  1.00  0.00    -0.040 SA
BRANCH  21  23
HETATM   23  N   UNL     1      20.403  47.536  49.008  1.00  0.00    -0.364 N 
HETATM   24  H   UNL     1      20.030  46.949  49.749  1.00  0.00     0.162 HD
BRANCH  23  25
HETATM   25  C   UNL     1      19.420  48.263  48.209  1.00  0.00     0.154 C 
BRANCH  25  26
HETATM   26  C   UNL     1      19.057  49.646  48.765  1.00  0.00     0.139 C 
HETATM   27  O   UNL     1      19.866  49.908  49.938  1.00  0.00    -0.384 OA
HETATM   28  C   UNL     1      20.627  51.102  49.700  1.00  0.00     0.168 C 
HETATM   29  C   UNL     1      19.846  51.881  48.670  1.00  0.00     0.029 C 
HETATM   30  C   UNL     1      19.340  50.775  47.779  1.00  0.00     0.035 C 
ENDBRANCH  25  26
ENDBRANCH  23  25
ENDBRANCH  21  23
ENDBRANCH  19  21
ENDBRANCH   2  19
TORSDOF 9
ENDMDL
MODEL 3
REMARK VINA RESULT:      -8.0      4.547      9.839
REMARK  9 active torsions:
REMARK  status: ('A' for Active; 'I' for Inactive)
REMARK    1  A    between atoms: C_2  and  O_3 
REMARK    2  A    between atoms: O_3  and  C_4 
REMARK    3  A    between atoms: C_4  and  C_5 
REMARK    4  A    between atoms: C_7  and  C_8 
REMARK       I    between atoms: C_8  and  N_9 
REMARK    5  A    between atoms: N_9  and  N_10 
REMARK    6  A    between atoms: N_10  and  C_11 
REMARK    7  A    between atoms: C_11  and  N_12 
REMARK    8  A    between atoms: N_12  and  C_13 
REMARK    9  A    between atoms: C_13  and  C_14 
ROOT
HETATM    1  C   UNL     1      26.728  48.120  49.493  1.00  0.00     0.293 C 
HETATM    2  N   UNL     1      26.737  47.658  50.803  1.00  0.00    -0.262 N 
HETATM    3  O   UNL     1      27.714  47.842  48.808  1.00  0.00    -0.264 OA
HETATM    4  H   UNL     1      27.523  47.025  50.952  1.00  0.00     0.190 HD
ENDROOT
BRANCH   1   5
HETATM    5  C   UNL     1      25.640  48.948  49.007  1.00  0.00     0.145 A 
HETATM    6  O   UNL     1      24.391  48.680  49.519  1.00  0.00    -0.307 OA
HETATM    7  C   UNL     1      23.490  49.487  48.895  1.00  0.00     0.078 A 
HETATM    8  C   UNL     1      24.141  50.303  47.998  1.00  0.00     0.038 A 
HETATM    9  C   UNL     1      25.515  49.958  48.069  1.00  0.00     0.045 A 
BRANCH   7  10
HETATM   10  C   UNL     1      22.067  49.320  49.288  1.00  0.00     0.240 C 
BRANCH  10  11
HETATM   11  O   UNL     1      21.636  50.583  49.796  1.00  0.00    -0.345 OA
BRANCH  11  12
HETATM   12  C   UNL     1      20.327  50.920  49.594  1.00  0.00     0.069 A 
HETATM   13  C   UNL     1      19.228  50.392  50.274  1.00  0.00     0.038 A 
HETATM   14  C   UNL     1      17.936  50.839  49.973  1.00  0.00     0.022 A 
HETATM   15  C   UNL     1      17.745  51.813  48.994  1.00  0.00     0.011 A 
HETATM   16  C   UNL     1      18.834  52.345  48.311  1.00  0.00     0.022 A 
HETATM   17 BR   UNL     1      15.999  52.413  48.595  1.00  0.00    -0.051 Br
HETATM   18  C   UNL     1      20.123  51.898  48.615  1.00  0.00     0.038 A 
ENDBRANCH  11  12
ENDBRANCH  10  11
ENDBRANCH   7  10
ENDBRANCH   1   5
BRANCH   2  19
HETATM   19  N   UNL     1      25.565  47.283  51.510  1.00  0.00    -0.274 N 
HETATM   20  H   UNL     1      24.793  47.948  51.428  1.00  0.00     0.189 HD
BRANCH  19  21
HETATM   21  C   UNL     1      25.720  46.665  52.728  1.00  0.00     0.186 C 
HETATM   22  S   UNL     1      26.021  47.453  54.175  1.00  0.00    -0.040 SA
BRANCH  21  23
HETATM   23  N   UNL     1      25.624  45.311  52.772  1.00  0.00    -0.364 N 
HETATM   24  H   UNL     1      24.787  44.997  53.255  1.00  0.00     0.162 HD
BRANCH  23  25
HETATM   25  C   UNL     1      26.590  44.274  52.420  1.00  0.00     0.154 C 
BRANCH  25  26
HETATM   26  C   UNL     1      27.221  43.566  53.626  1.00  0.00     0.139 C 
HETATM   27  O   UNL     1      27.554  42.207  53.252  1.00  0.00    -0.384 OA
HETATM   28  C   UNL     1      28.966  42.024  53.437  1.00  0.00     0.168 C 
HETATM   29  C   UNL     1      29.373  43.042  54.474  1.00  0.00     0.029 C 
HETATM   30  C   UNL     1      28.519  44.222  54.087  1.00  0.00     0.035 C 
ENDBRANCH  25  26
ENDBRANCH  23  25
ENDBRANCH  21  23
ENDBRANCH  19  21
ENDBRANCH   2  19
TORSDOF 9
ENDMDL
MODEL 4
REMARK VINA RESULT:      -7.9      4.099      9.039
REMARK  9 active torsions:
REMARK  status: ('A' for Active; 'I' for Inactive)
REMARK    1  A    between atoms: C_2  and  O_3 
REMARK    2  A    between atoms: O_3  and  C_4 
REMARK    3  A    between atoms: C_4  and  C_5 
REMARK    4  A    between atoms: C_7  and  C_8 
REMARK       I    between atoms: C_8  and  N_9 
REMARK    5  A    between atoms: N_9  and  N_10 
REMARK    6  A    between atoms: N_10  and  C_11 
REMARK    7  A    between atoms: C_11  and  N_12 
REMARK    8  A    between atoms: N_12  and  C_13 
REMARK    9  A    between atoms: C_13  and  C_14 
ROOT
HETATM    1  C   UNL     1      26.258  48.266  49.381  1.00  0.00     0.293 C 
HETATM    2  N   UNL     1      26.132  47.638  50.613  1.00  0.00    -0.262 N 
HETATM    3  O   UNL     1      27.367  48.204  48.845  1.00  0.00    -0.264 OA
HETATM    4  H   UNL     1      26.968  47.091  50.821  1.00  0.00     0.190 HD
ENDROOT
BRANCH   1   5
HETATM    5  C   UNL     1      25.151  49.013  48.813  1.00  0.00     0.145 A 
HETATM    6  O   UNL     1      23.923  48.392  48.826  1.00  0.00    -0.307 OA
HETATM    7  C   UNL     1      23.031  49.193  48.185  1.00  0.00     0.078 A 
HETATM    8  C   UNL     1      23.655  50.349  47.774  1.00  0.00     0.038 A 
HETATM    9  C   UNL     1      25.011  50.233  48.175  1.00  0.00     0.045 A 
BRANCH   7  10
HETATM   10  C   UNL     1      21.644  48.676  48.062  1.00  0.00     0.240 C 
BRANCH  10  11
HETATM   11  O   UNL     1      21.043  48.814  49.350  1.00  0.00    -0.345 OA
BRANCH  11  12
HETATM   12  C   UNL     1      20.020  49.712  49.466  1.00  0.00     0.069 A 
HETATM   13  C   UNL     1      20.142  51.054  49.827  1.00  0.00     0.038 A 
HETATM   14  C   UNL     1      19.006  51.870  49.895  1.00  0.00     0.022 A 
HETATM   15  C   UNL     1      17.750  51.341  49.601  1.00  0.00     0.011 A 
HETATM   16  C   UNL     1      17.618  50.004  49.240  1.00  0.00     0.022 A 
HETATM   17 BR   UNL     1      16.221  52.447  49.692  1.00  0.00    -0.051 Br
HETATM   18  C   UNL     1      18.755  49.194  49.171  1.00  0.00     0.038 A 
ENDBRANCH  11  12
ENDBRANCH  10  11
ENDBRANCH   7  10
ENDBRANCH   1   5
BRANCH   2  19
HETATM   19  N   UNL     1      24.931  47.032  51.065  1.00  0.00    -0.274 N 
HETATM   20  H   UNL     1      24.523  47.472  51.893  1.00  0.00     0.189 HD
BRANCH  19  21
HETATM   21  C   UNL     1      24.830  45.664  50.980  1.00  0.00     0.186 C 
HETATM   22  S   UNL     1      24.829  44.787  49.553  1.00  0.00    -0.040 SA
BRANCH  21  23
HETATM   23  N   UNL     1      24.723  44.960  52.137  1.00  0.00    -0.364 N 
HETATM   24  H   UNL     1      23.836  45.119  52.607  1.00  0.00     0.162 HD
BRANCH  23  25
HETATM   25  C   UNL     1      25.715  44.190  52.881  1.00  0.00     0.154 C 
BRANCH  25  26
HETATM   26  C   UNL     1      27.051  44.918  53.087  1.00  0.00     0.139 C 
HETATM   27  O   UNL     1      26.784  46.281  53.499  1.00  0.00    -0.384 OA
HETATM   28  C   UNL     1      27.403  46.492  54.777  1.00  0.00     0.168 C 
HETATM   29  C   UNL     1      28.528  45.489  54.853  1.00  0.00     0.029 C 
HETATM   30  C   UNL     1      27.905  44.290  54.184  1.00  0.00     0.035 C 
ENDBRANCH  25  26
ENDBRANCH  23  25
ENDBRANCH  21  23
ENDBRANCH  19  21
ENDBRANCH   2  19
TORSDOF 9
ENDMDL
MODEL 5
REMARK VINA RESULT:      -7.5      2.573      4.215
REMARK  9 active torsions:
REMARK  status: ('A' for Active; 'I' for Inactive)
REMARK    1  A    between atoms: C_2  and  O_3 
REMARK    2  A    between atoms: O_3  and  C_4 
REMARK    3  A    between atoms: C_4  and  C_5 
REMARK    4  A    between atoms: C_7  and  C_8 
REMARK       I    between atoms: C_8  and  N_9 
REMARK    5  A    between atoms: N_9  and  N_10 
REMARK    6  A    between atoms: N_10  and  C_11 
REMARK    7  A    between atoms: C_11  and  N_12 
REMARK    8  A    between atoms: N_12  and  C_13 
REMARK    9  A    between atoms: C_13  and  C_14 
ROOT
HETATM    1  C   UNL     1      24.060  49.395  48.380  1.00  0.00     0.293 C 
HETATM    2  N   UNL     1      22.798  48.844  48.198  1.00  0.00    -0.262 N 
HETATM    3  O   UNL     1      24.290  50.447  47.780  1.00  0.00    -0.264 OA
HETATM    4  H   UNL     1      22.197  49.492  47.689  1.00  0.00     0.190 HD
ENDROOT
BRANCH   1   5
HETATM    5  C   UNL     1      25.060  48.709  49.176  1.00  0.00     0.145 A 
HETATM    6  O   UNL     1      24.611  48.080  50.315  1.00  0.00    -0.307 OA
HETATM    7  C   UNL     1      25.684  47.568  50.974  1.00  0.00     0.078 A 
HETATM    8  C   UNL     1      26.834  47.830  50.264  1.00  0.00     0.038 A 
HETATM    9  C   UNL     1      26.435  48.560  49.115  1.00  0.00     0.045 A 
BRANCH   7  10
HETATM   10  C   UNL     1      25.405  46.876  52.259  1.00  0.00     0.240 C 
BRANCH  10  11
HETATM   11  O   UNL     1      25.863  45.532  52.104  1.00  0.00    -0.345 OA
BRANCH  11  12
HETATM   12  C   UNL     1      26.902  45.134  52.897  1.00  0.00     0.069 A 
HETATM   13  C   UNL     1      27.236  45.667  54.143  1.00  0.00     0.038 A 
HETATM   14  C   UNL     1      28.324  45.154  54.859  1.00  0.00     0.022 A 
HETATM   15  C   UNL     1      29.077  44.108  54.327  1.00  0.00     0.011 A 
HETATM   16  C   UNL     1      28.752  43.570  53.085  1.00  0.00     0.022 A 
HETATM   17 BR   UNL     1      30.543  43.418  55.297  1.00  0.00    -0.051 Br
HETATM   18  C   UNL     1      27.664  44.084  52.375  1.00  0.00     0.038 A 
ENDBRANCH  11  12
ENDBRANCH  10  11
ENDBRANCH   7  10
ENDBRANCH   1   5
BRANCH   2  19
HETATM   19  N   UNL     1      22.115  48.103  49.197  1.00  0.00    -0.274 N 
HETATM   20  H   UNL     1      22.713  47.477  49.740  1.00  0.00     0.189 HD
BRANCH  19  21
HETATM   21  C   UNL     1      20.849  47.651  48.908  1.00  0.00     0.186 C 
HETATM   22  S   UNL     1      19.432  48.478  49.245  1.00  0.00    -0.040 SA
BRANCH  21  23
HETATM   23  N   UNL     1      20.728  46.441  48.303  1.00  0.00    -0.364 N 
HETATM   24  H   UNL     1      20.448  46.520  47.330  1.00  0.00     0.162 HD
BRANCH  23  25
HETATM   25  C   UNL     1      20.747  45.090  48.858  1.00  0.00     0.154 C 
BRANCH  25  26
HETATM   26  C   UNL     1      22.001  44.280  48.499  1.00  0.00     0.139 C 
HETATM   27  O   UNL     1      23.031  45.189  48.040  1.00  0.00    -0.384 OA
HETATM   28  C   UNL     1      24.173  45.042  48.897  1.00  0.00     0.168 C 
HETATM   29  C   UNL     1      24.069  43.651  49.475  1.00  0.00     0.029 C 
HETATM   30  C   UNL     1      22.582  43.528  49.692  1.00  0.00     0.035 C 
ENDBRANCH  25  26
ENDBRANCH  23  25
ENDBRANCH  21  23
ENDBRANCH  19  21
ENDBRANCH   2  19
TORSDOF 9
ENDMDL
MODEL 6
REMARK VINA RESULT:      -7.5      2.407      3.280
REMARK  9 active torsions:
REMARK  status: ('A' for Active; 'I' for Inactive)
REMARK    1  A    between atoms: C_2  and  O_3 
REMARK    2  A    between atoms: O_3  and  C_4 
REMARK    3  A    between atoms: C_4  and  C_5 
REMARK    4  A    between atoms: C_7  and  C_8 
REMARK       I    between atoms: C_8  and  N_9 
REMARK    5  A    between atoms: N_9  and  N_10 
REMARK    6  A    between atoms: N_10  and  C_11 
REMARK    7  A    between atoms: C_11  and  N_12 
REMARK    8  A    between atoms: N_12  and  C_13 
REMARK    9  A    between atoms: C_13  and  C_14 
ROOT
HETATM    1  C   UNL     1      22.876  45.266  48.517  1.00  0.00     0.293 C 
HETATM    2  N   UNL     1      22.177  46.440  48.760  1.00  0.00    -0.262 N 
HETATM    3  O   UNL     1      22.713  44.750  47.410  1.00  0.00    -0.264 OA
HETATM    4  H   UNL     1      21.731  46.773  47.904  1.00  0.00     0.190 HD
ENDROOT
BRANCH   1   5
HETATM    5  C   UNL     1      23.687  44.658  49.556  1.00  0.00     0.145 A 
HETATM    6  O   UNL     1      24.968  45.141  49.693  1.00  0.00    -0.307 OA
HETATM    7  C   UNL     1      25.603  44.407  50.646  1.00  0.00     0.078 A 
HETATM    8  C   UNL     1      24.742  43.463  51.156  1.00  0.00     0.038 A 
HETATM    9  C   UNL     1      23.517  43.623  50.459  1.00  0.00     0.045 A 
BRANCH   7  10
HETATM   10  C   UNL     1      27.023  44.755  50.915  1.00  0.00     0.240 C 
BRANCH  10  11
HETATM   11  O   UNL     1      27.652  43.560  51.380  1.00  0.00    -0.345 OA
BRANCH  11  12
HETATM   12  C   UNL     1      28.364  43.646  52.543  1.00  0.00     0.069 A 
HETATM   13  C   UNL     1      28.007  44.383  53.673  1.00  0.00     0.038 A 
HETATM   14  C   UNL     1      28.828  44.372  54.808  1.00  0.00     0.022 A 
HETATM   15  C   UNL     1      30.004  43.624  54.810  1.00  0.00     0.011 A 
HETATM   16  C   UNL     1      30.368  42.886  53.688  1.00  0.00     0.022 A 
HETATM   17 BR   UNL     1      31.106  43.611  56.344  1.00  0.00    -0.051 Br
HETATM   18  C   UNL     1      29.546  42.898  52.558  1.00  0.00     0.038 A 
ENDBRANCH  11  12
ENDBRANCH  10  11
ENDBRANCH   7  10
ENDBRANCH   1   5
BRANCH   2  19
HETATM   19  N   UNL     1      22.663  47.485  49.589  1.00  0.00    -0.274 N 
HETATM   20  H   UNL     1      22.345  47.434  50.560  1.00  0.00     0.189 HD
BRANCH  19  21
HETATM   21  C   UNL     1      22.774  48.741  49.041  1.00  0.00     0.186 C 
HETATM   22  S   UNL     1      24.217  49.485  48.627  1.00  0.00    -0.040 SA
BRANCH  21  23
HETATM   23  N   UNL     1      21.632  49.441  48.814  1.00  0.00    -0.364 N 
HETATM   24  H   UNL     1      20.822  49.015  49.255  1.00  0.00     0.162 HD
BRANCH  23  25
HETATM   25  C   UNL     1      21.361  50.558  47.913  1.00  0.00     0.154 C 
BRANCH  25  26
HETATM   26  C   UNL     1      20.411  51.615  48.491  1.00  0.00     0.139 C 
HETATM   27  O   UNL     1      19.203  51.648  47.692  1.00  0.00    -0.384 OA
HETATM   28  C   UNL     1      18.090  51.355  48.550  1.00  0.00     0.168 C 
HETATM   29  C   UNL     1      18.536  51.742  49.939  1.00  0.00     0.029 C 
HETATM   30  C   UNL     1      19.980  51.307  49.921  1.00  0.00     0.035 C 
ENDBRANCH  25  26
ENDBRANCH  23  25
ENDBRANCH  21  23
ENDBRANCH  19  21
ENDBRANCH   2  19
TORSDOF 9
ENDMDL
MODEL 7
REMARK VINA RESULT:      -7.4      1.867      2.656
REMARK  9 active torsions:
REMARK  status: ('A' for Active; 'I' for Inactive)
REMARK    1  A    between atoms: C_2  and  O_3 
REMARK    2  A    between atoms: O_3  and  C_4 
REMARK    3  A    between atoms: C_4  and  C_5 
REMARK    4  A    between atoms: C_7  and  C_8 
REMARK       I    between atoms: C_8  and  N_9 
REMARK    5  A    between atoms: N_9  and  N_10 
REMARK    6  A    between atoms: N_10  and  C_11 
REMARK    7  A    between atoms: C_11  and  N_12 
REMARK    8  A    between atoms: N_12  and  C_13 
REMARK    9  A    between atoms: C_13  and  C_14 
ROOT
HETATM    1  C   UNL     1      25.075  47.825  49.648  1.00  0.00     0.293 C 
HETATM    2  N   UNL     1      24.103  48.688  49.159  1.00  0.00    -0.262 N 
HETATM    3  O   UNL     1      26.246  48.190  49.522  1.00  0.00    -0.264 OA
HETATM    4  H   UNL     1      24.522  49.578  48.889  1.00  0.00     0.190 HD
ENDROOT
BRANCH   1   5
HETATM    5  C   UNL     1      24.709  46.534  50.201  1.00  0.00     0.145 A 
HETATM    6  O   UNL     1      25.292  46.195  51.401  1.00  0.00    -0.307 OA
HETATM    7  C   UNL     1      24.905  44.932  51.724  1.00  0.00     0.078 A 
HETATM    8  C   UNL     1      24.049  44.447  50.761  1.00  0.00     0.038 A 
HETATM    9  C   UNL     1      23.925  45.472  49.787  1.00  0.00     0.045 A 
BRANCH   7  10
HETATM   10  C   UNL     1      25.464  44.367  52.979  1.00  0.00     0.240 C 
BRANCH  10  11
HETATM   11  O   UNL     1      26.714  43.769  52.634  1.00  0.00    -0.345 OA
BRANCH  11  12
HETATM   12  C   UNL     1      27.732  43.889  53.538  1.00  0.00     0.069 A 
HETATM   13  C   UNL     1      27.985  44.997  54.348  1.00  0.00     0.038 A 
HETATM   14  C   UNL     1      29.060  44.981  55.245  1.00  0.00     0.022 A 
HETATM   15  C   UNL     1      29.880  43.856  55.330  1.00  0.00     0.011 A 
HETATM   16  C   UNL     1      29.635  42.747  54.526  1.00  0.00     0.022 A 
HETATM   17 BR   UNL     1      31.328  43.839  56.543  1.00  0.00    -0.051 Br
HETATM   18  C   UNL     1      28.560  42.766  53.634  1.00  0.00     0.038 A 
ENDBRANCH  11  12
ENDBRANCH  10  11
ENDBRANCH   7  10
ENDBRANCH   1   5
BRANCH   2  19
HETATM   19  N   UNL     1      22.811  48.820  49.733  1.00  0.00    -0.274 N 
HETATM   20  H   UNL     1      22.283  47.946  49.783  1.00  0.00     0.189 HD
BRANCH  19  21
HETATM   21  C   UNL     1      22.096  49.959  49.449  1.00  0.00     0.186 C 
HETATM   22  S   UNL     1      22.325  50.927  48.102  1.00  0.00    -0.040 SA
BRANCH  21  23
HETATM   23  N   UNL     1      21.128  50.337  50.323  1.00  0.00    -0.364 N 
HETATM   24  H   UNL     1      21.205  49.862  51.217  1.00  0.00     0.162 HD
BRANCH  23  25
HETATM   25  C   UNL     1      19.926  51.143  50.126  1.00  0.00     0.154 C 
BRANCH  25  26
HETATM   26  C   UNL     1      18.635  50.325  49.990  1.00  0.00     0.139 C 
HETATM   27  O   UNL     1      17.501  51.195  50.221  1.00  0.00    -0.384 OA
HETATM   28  C   UNL     1      16.674  51.175  49.047  1.00  0.00     0.168 C 
HETATM   29  C   UNL     1      16.969  49.860  48.367  1.00  0.00     0.029 C 
HETATM   30  C   UNL     1      18.453  49.731  48.597  1.00  0.00     0.035 C 
ENDBRANCH  25  26
ENDBRANCH  23  25
ENDBRANCH  21  23
ENDBRANCH  19  21
ENDBRANCH   2  19
TORSDOF 9
ENDMDL
MODEL 8
REMARK VINA RESULT:      -7.3      4.739      8.419
REMARK  9 active torsions:
REMARK  status: ('A' for Active; 'I' for Inactive)
REMARK    1  A    between atoms: C_2  and  O_3 
REMARK    2  A    between atoms: O_3  and  C_4 
REMARK    3  A    between atoms: C_4  and  C_5 
REMARK    4  A    between atoms: C_7  and  C_8 
REMARK       I    between atoms: C_8  and  N_9 
REMARK    5  A    between atoms: N_9  and  N_10 
REMARK    6  A    between atoms: N_10  and  C_11 
REMARK    7  A    between atoms: C_11  and  N_12 
REMARK    8  A    between atoms: N_12  and  C_13 
REMARK    9  A    between atoms: C_13  and  C_14 
ROOT
HETATM    1  C   UNL     1      23.935  45.328  49.132  1.00  0.00     0.293 C 
HETATM    2  N   UNL     1      24.387  44.290  48.328  1.00  0.00    -0.262 N 
HETATM    3  O   UNL     1      22.826  45.790  48.857  1.00  0.00    -0.264 OA
HETATM    4  H   UNL     1      23.644  43.974  47.703  1.00  0.00     0.190 HD
ENDROOT
BRANCH   1   5
HETATM    5  C   UNL     1      24.776  45.872  50.182  1.00  0.00     0.145 A 
HETATM    6  O   UNL     1      25.399  44.959  51.001  1.00  0.00    -0.307 OA
HETATM    7  C   UNL     1      26.070  45.639  51.969  1.00  0.00     0.078 A 
HETATM    8  C   UNL     1      25.916  46.993  51.777  1.00  0.00     0.038 A 
HETATM    9  C   UNL     1      25.088  47.142  50.635  1.00  0.00     0.045 A 
BRANCH   7  10
HETATM   10  C   UNL     1      26.784  44.820  52.982  1.00  0.00     0.240 C 
BRANCH  10  11
HETATM   11  O   UNL     1      27.337  45.736  53.928  1.00  0.00    -0.345 OA
BRANCH  11  12
HETATM   12  C   UNL     1      28.390  45.293  54.678  1.00  0.00     0.069 A 
HETATM   13  C   UNL     1      28.996  45.982  55.731  1.00  0.00     0.038 A 
HETATM   14  C   UNL     1      30.064  45.403  56.427  1.00  0.00     0.022 A 
HETATM   15  C   UNL     1      30.525  44.137  56.069  1.00  0.00     0.011 A 
HETATM   16  C   UNL     1      29.928  43.443  55.021  1.00  0.00     0.022 A 
HETATM   17 BR   UNL     1      31.965  43.360  57.012  1.00  0.00    -0.051 Br
HETATM   18  C   UNL     1      28.860  44.023  54.330  1.00  0.00     0.038 A 
ENDBRANCH  11  12
ENDBRANCH  10  11
ENDBRANCH   7  10
ENDBRANCH   1   5
BRANCH   2  19
HETATM   19  N   UNL     1      25.218  43.239  48.797  1.00  0.00    -0.274 N 
HETATM   20  H   UNL     1      26.190  43.302  48.488  1.00  0.00     0.189 HD
BRANCH  19  21
HETATM   21  C   UNL     1      24.675  41.979  48.878  1.00  0.00     0.186 C 
HETATM   22  S   UNL     1      23.123  41.567  48.401  1.00  0.00    -0.040 SA
BRANCH  21  23
HETATM   23  N   UNL     1      25.449  40.983  49.383  1.00  0.00    -0.364 N 
HETATM   24  H   UNL     1      24.952  40.409  50.058  1.00  0.00     0.162 HD
BRANCH  23  25
HETATM   25  C   UNL     1      26.882  40.732  49.259  1.00  0.00     0.154 C 
BRANCH  25  26
HETATM   26  C   UNL     1      27.338  39.386  49.838  1.00  0.00     0.139 C 
HETATM   27  O   UNL     1      27.180  38.362  48.826  1.00  0.00    -0.384 OA
HETATM   28  C   UNL     1      28.465  37.770  48.585  1.00  0.00     0.168 C 
HETATM   29  C   UNL     1      29.260  37.996  49.847  1.00  0.00     0.029 C 
HETATM   30  C   UNL     1      28.810  39.381  50.239  1.00  0.00     0.035 C 
ENDBRANCH  25  26
ENDBRANCH  23  25
ENDBRANCH  21  23
ENDBRANCH  19  21
ENDBRANCH   2  19
TORSDOF 9
ENDMDL
MODEL 9
REMARK VINA RESULT:      -7.3     11.205     12.321
REMARK  9 active torsions:
REMARK  status: ('A' for Active; 'I' for Inactive)
REMARK    1  A    between atoms: C_2  and  O_3 
REMARK    2  A    between atoms: O_3  and  C_4 
REMARK    3  A    between atoms: C_4  and  C_5 
REMARK    4  A    between atoms: C_7  and  C_8 
REMARK       I    between atoms: C_8  and  N_9 
REMARK    5  A    between atoms: N_9  and  N_10 
REMARK    6  A    between atoms: N_10  and  C_11 
REMARK    7  A    between atoms: C_11  and  N_12 
REMARK    8  A    between atoms: N_12  and  C_13 
REMARK    9  A    between atoms: C_13  and  C_14 
ROOT
HETATM    1  C   UNL     1      28.338  46.399  39.352  1.00  0.00     0.293 C 
HETATM    2  N   UNL     1      27.273  46.279  40.235  1.00  0.00    -0.262 N 
HETATM    3  O   UNL     1      28.271  45.728  38.320  1.00  0.00    -0.264 OA
HETATM    4  H   UNL     1      26.516  45.742  39.810  1.00  0.00     0.190 HD
ENDROOT
BRANCH   1   5
HETATM    5  C   UNL     1      29.489  47.216  39.686  1.00  0.00     0.145 A 
HETATM    6  O   UNL     1      29.680  47.487  41.022  1.00  0.00    -0.307 OA
HETATM    7  C   UNL     1      30.745  48.325  41.141  1.00  0.00     0.078 A 
HETATM    8  C   UNL     1      31.272  48.587  39.897  1.00  0.00     0.038 A 
HETATM    9  C   UNL     1      30.469  47.878  38.967  1.00  0.00     0.045 A 
BRANCH   7  10
HETATM   10  C   UNL     1      31.091  48.766  42.517  1.00  0.00     0.240 C 
BRANCH  10  11
HETATM   11  O   UNL     1      31.123  50.193  42.490  1.00  0.00    -0.345 OA
BRANCH  11  12
HETATM   12  C   UNL     1      32.263  50.798  42.942  1.00  0.00     0.069 A 
HETATM   13  C   UNL     1      32.392  51.527  44.125  1.00  0.00     0.038 A 
HETATM   14  C   UNL     1      33.627  52.085  44.475  1.00  0.00     0.022 A 
HETATM   15  C   UNL     1      34.731  51.912  43.642  1.00  0.00     0.011 A 
HETATM   16  C   UNL     1      34.612  51.187  42.460  1.00  0.00     0.022 A 
HETATM   17 BR   UNL     1      36.396  52.666  44.120  1.00  0.00    -0.051 Br
HETATM   18  C   UNL     1      33.378  50.630  42.115  1.00  0.00     0.038 A 
ENDBRANCH  11  12
ENDBRANCH  10  11
ENDBRANCH   7  10
ENDBRANCH   1   5
BRANCH   2  19
HETATM   19  N   UNL     1      26.819  47.338  41.065  1.00  0.00    -0.274 N 
HETATM   20  H   UNL     1      26.632  47.064  42.032  1.00  0.00     0.189 HD
BRANCH  19  21
HETATM   21  C   UNL     1      25.973  48.270  40.512  1.00  0.00     0.186 C 
HETATM   22  S   UNL     1      24.414  47.960  39.983  1.00  0.00    -0.040 SA
BRANCH  21  23
HETATM   23  N   UNL     1      26.427  49.543  40.379  1.00  0.00    -0.364 N 
HETATM   24  H   UNL     1      25.990  50.032  39.604  1.00  0.00     0.162 HD
BRANCH  23  25
HETATM   25  C   UNL     1      27.539  50.232  41.028  1.00  0.00     0.154 C 
BRANCH  25  26
HETATM   26  C   UNL     1      27.888  51.590  40.404  1.00  0.00     0.139 C 
HETATM   27  O   UNL     1      28.213  52.524  41.463  1.00  0.00    -0.384 OA
HETATM   28  C   UNL     1      29.552  52.997  41.247  1.00  0.00     0.168 C 
HETATM   29  C   UNL     1      29.806  52.833  39.768  1.00  0.00     0.029 C 
HETATM   30  C   UNL     1      29.106  51.527  39.488  1.00  0.00     0.035 C 
ENDBRANCH  25  26
ENDBRANCH  23  25
ENDBRANCH  21  23
ENDBRANCH  19  21
ENDBRANCH   2  19
TORSDOF 9
ENDMDL
MODEL 10
REMARK VINA RESULT:      -7.3      3.121      4.475
REMARK  9 active torsions:
REMARK  status: ('A' for Active; 'I' for Inactive)
REMARK    1  A    between atoms: C_2  and  O_3 
REMARK    2  A    between atoms: O_3  and  C_4 
REMARK    3  A    between atoms: C_4  and  C_5 
REMARK    4  A    between atoms: C_7  and  C_8 
REMARK       I    between atoms: C_8  and  N_9 
REMARK    5  A    between atoms: N_9  and  N_10 
REMARK    6  A    between atoms: N_10  and  C_11 
REMARK    7  A    between atoms: C_11  and  N_12 
REMARK    8  A    between atoms: N_12  and  C_13 
REMARK    9  A    between atoms: C_13  and  C_14 
ROOT
HETATM    1  C   UNL     1      26.053  47.935  49.692  1.00  0.00     0.293 C 
HETATM    2  N   UNL     1      24.872  48.519  49.252  1.00  0.00    -0.262 N 
HETATM    3  O   UNL     1      27.070  48.626  49.611  1.00  0.00    -0.264 OA
HETATM    4  H   UNL     1      25.018  49.509  49.054  1.00  0.00     0.190 HD
ENDROOT
BRANCH   1   5
HETATM    5  C   UNL     1      26.073  46.556  50.144  1.00  0.00     0.145 A 
HETATM    6  O   UNL     1      26.302  46.356  51.486  1.00  0.00    -0.307 OA
HETATM    7  C   UNL     1      26.370  45.016  51.714  1.00  0.00     0.078 A 
HETATM    8  C   UNL     1      26.161  44.333  50.537  1.00  0.00     0.038 A 
HETATM    9  C   UNL     1      25.972  45.318  49.534  1.00  0.00     0.045 A 
BRANCH   7  10
HETATM   10  C   UNL     1      26.650  44.595  53.111  1.00  0.00     0.240 C 
BRANCH  10  11
HETATM   11  O   UNL     1      27.484  45.605  53.680  1.00  0.00    -0.345 OA
BRANCH  11  12
HETATM   12  C   UNL     1      28.489  45.188  54.507  1.00  0.00     0.069 A 
HETATM   13  C   UNL     1      28.998  45.890  55.600  1.00  0.00     0.038 A 
HETATM   14  C   UNL     1      30.026  45.337  56.374  1.00  0.00     0.022 A 
HETATM   15  C   UNL     1      30.542  44.082  56.053  1.00  0.00     0.011 A 
HETATM   16  C   UNL     1      30.041  43.375  54.965  1.00  0.00     0.022 A 
HETATM   17 BR   UNL     1      31.927  43.340  57.101  1.00  0.00    -0.051 Br
HETATM   18  C   UNL     1      29.014  43.929  54.196  1.00  0.00     0.038 A 
ENDBRANCH  11  12
ENDBRANCH  10  11
ENDBRANCH   7  10
ENDBRANCH   1   5
BRANCH   2  19
HETATM   19  N   UNL     1      23.600  48.234  49.813  1.00  0.00    -0.274 N 
HETATM   20  H   UNL     1      23.532  47.317  50.258  1.00  0.00     0.189 HD
BRANCH  19  21
HETATM   21  C   UNL     1      22.487  48.677  49.138  1.00  0.00     0.186 C 
HETATM   22  S   UNL     1      21.802  50.197  49.307  1.00  0.00    -0.040 SA
BRANCH  21  23
HETATM   23  N   UNL     1      21.890  47.826  48.265  1.00  0.00    -0.364 N 
HETATM   24  H   UNL     1      22.203  47.968  47.309  1.00  0.00     0.162 HD
BRANCH  23  25
HETATM   25  C   UNL     1      20.772  46.904  48.444  1.00  0.00     0.154 C 
BRANCH  25  26
HETATM   26  C   UNL     1      21.101  45.443  48.111  1.00  0.00     0.139 C 
HETATM   27  O   UNL     1      21.188  45.298  46.672  1.00  0.00    -0.384 OA
HETATM   28  C   UNL     1      22.501  44.817  46.348  1.00  0.00     0.168 C 
HETATM   29  C   UNL     1      22.988  44.104  47.587  1.00  0.00     0.029 C 
HETATM   30  C   UNL     1      22.445  44.994  48.676  1.00  0.00     0.035 C 
ENDBRANCH  25  26
ENDBRANCH  23  25
ENDBRANCH  21  23
ENDBRANCH  19  21
ENDBRANCH   2  19
TORSDOF 9
ENDMDL
