MODEL 1
REMARK VINA RESULT:      -8.4      0.000      0.000
REMARK  3 active torsions:
REMARK  status: ('A' for Active; 'I' for Inactive)
REMARK    1  A    between atoms: C_4  and  N_5 
REMARK       I    between atoms: N_5  and  C_6 
REMARK    2  A    between atoms: C_6  and  C_7 
REMARK    3  A    between atoms: C_7  and  C_8 
ROOT
HETATM    1  C   UNL     1      25.718  44.445  51.193  1.00  0.00     0.286 C 
HETATM    2  N   UNL     1      27.235  44.665  51.308  1.00  0.00    -0.056 N 
HETATM    3  H   UNL     1      27.582  44.870  50.362  1.00  0.00     0.278 HD
HETATM    4  H   UNL     1      27.412  45.559  51.816  1.00  0.00     0.278 HD
HETATM    5  C   UNL     1      28.066  43.561  51.885  1.00  0.00     0.209 C 
HETATM    6  C   UNL     1      27.596  42.202  51.320  1.00  0.00     0.115 C 
HETATM    7  N   UNL     1      26.160  42.013  51.478  1.00  0.00    -0.353 N 
HETATM    8  C   UNL     1      25.230  42.999  51.309  1.00  0.00     0.249 C 
HETATM    9  O   UNL     1      24.039  42.715  51.258  1.00  0.00    -0.271 OA
HETATM   10  C   UNL     1      28.040  43.626  53.412  1.00  0.00     0.035 C 
HETATM   11  C   UNL     1      28.817  42.460  54.019  1.00  0.00     0.002 C 
HETATM   12  C   UNL     1      28.316  41.116  53.499  1.00  0.00     0.002 C 
HETATM   13  C   UNL     1      28.364  41.049  51.973  1.00  0.00     0.027 C 
HETATM   14  H   UNL     1      25.772  41.072  51.444  1.00  0.00     0.163 HD
ENDROOT
BRANCH   1  15
HETATM   15  C   UNL     1      24.950  45.342  52.171  1.00  0.00     0.146 C 
BRANCH  15  16
HETATM   16  C   UNL     1      25.207  46.749  51.718  1.00  0.00     0.224 C 
HETATM   17  N   UNL     1      24.939  46.977  50.390  1.00  0.00    -0.327 N 
HETATM   18  H   UNL     1      24.376  46.296  49.886  1.00  0.00     0.169 HD
HETATM   19  O   UNL     1      25.814  47.481  52.501  1.00  0.00    -0.273 OA
BRANCH  17  20
HETATM   20  C   UNL     1      25.421  48.048  49.607  1.00  0.00     0.034 A 
HETATM   21  C   UNL     1      24.598  48.944  48.919  1.00  0.00     0.029 A 
HETATM   22  C   UNL     1      25.150  50.022  48.224  1.00  0.00     0.002 A 
HETATM   23  C   UNL     1      26.529  50.213  48.207  1.00  0.00     0.000 A 
HETATM   24  C   UNL     1      27.358  49.319  48.876  1.00  0.00     0.002 A 
HETATM   25  C   UNL     1      26.809  48.237  49.567  1.00  0.00     0.029 A 
ENDBRANCH  17  20
ENDBRANCH  15  16
ENDBRANCH   1  15
TORSDOF 3
ENDMDL
MODEL 2
REMARK VINA RESULT:      -8.4      4.391      6.539
REMARK  3 active torsions:
REMARK  status: ('A' for Active; 'I' for Inactive)
REMARK    1  A    between atoms: C_4  and  N_5 
REMARK       I    between atoms: N_5  and  C_6 
REMARK    2  A    between atoms: C_6  and  C_7 
REMARK    3  A    between atoms: C_7  and  C_8 
ROOT
HETATM    1  C   UNL     1      27.499  42.335  52.616  1.00  0.00     0.286 C 
HETATM    2  N   UNL     1      26.331  41.844  51.746  1.00  0.00    -0.056 N 
HETATM    3  H   UNL     1      25.767  41.212  52.329  1.00  0.00     0.278 HD
HETATM    4  H   UNL     1      25.678  42.639  51.572  1.00  0.00     0.278 HD
HETATM    5  C   UNL     1      26.652  41.140  50.465  1.00  0.00     0.209 C 
HETATM    6  C   UNL     1      27.822  40.155  50.687  1.00  0.00     0.115 C 
HETATM    7  N   UNL     1      28.966  40.801  51.317  1.00  0.00    -0.353 N 
HETATM    8  C   UNL     1      28.874  41.736  52.308  1.00  0.00     0.249 C 
HETATM    9  O   UNL     1      29.878  42.077  52.924  1.00  0.00    -0.271 OA
HETATM   10  C   UNL     1      26.920  42.160  49.358  1.00  0.00     0.035 C 
HETATM   11  C   UNL     1      27.328  41.461  48.061  1.00  0.00     0.002 C 
HETATM   12  C   UNL     1      28.516  40.528  48.274  1.00  0.00     0.002 C 
HETATM   13  C   UNL     1      28.236  39.498  49.367  1.00  0.00     0.027 C 
HETATM   14  H   UNL     1      29.888  40.375  51.240  1.00  0.00     0.163 HD
ENDROOT
BRANCH   1  15
HETATM   15  C   UNL     1      27.581  43.866  52.625  1.00  0.00     0.146 C 
BRANCH  15  16
HETATM   16  C   UNL     1      27.828  44.250  54.055  1.00  0.00     0.224 C 
HETATM   17  N   UNL     1      29.082  44.750  54.301  1.00  0.00    -0.327 N 
HETATM   18  H   UNL     1      29.646  45.054  53.512  1.00  0.00     0.169 HD
HETATM   19  O   UNL     1      26.984  43.891  54.877  1.00  0.00    -0.273 OA
BRANCH  17  20
HETATM   20  C   UNL     1      29.721  44.837  55.557  1.00  0.00     0.034 A 
HETATM   21  C   UNL     1      29.406  45.790  56.529  1.00  0.00     0.029 A 
HETATM   22  C   UNL     1      30.035  45.765  57.776  1.00  0.00     0.002 A 
HETATM   23  C   UNL     1      30.985  44.789  58.062  1.00  0.00     0.000 A 
HETATM   24  C   UNL     1      31.317  43.844  57.097  1.00  0.00     0.002 A 
HETATM   25  C   UNL     1      30.694  43.871  55.847  1.00  0.00     0.029 A 
ENDBRANCH  17  20
ENDBRANCH  15  16
ENDBRANCH   1  15
TORSDOF 3
ENDMDL
MODEL 3
REMARK VINA RESULT:      -8.3      2.622      6.608
REMARK  3 active torsions:
REMARK  status: ('A' for Active; 'I' for Inactive)
REMARK    1  A    between atoms: C_4  and  N_5 
REMARK       I    between atoms: N_5  and  C_6 
REMARK    2  A    between atoms: C_6  and  C_7 
REMARK    3  A    between atoms: C_7  and  C_8 
ROOT
HETATM    1  C   UNL     1      26.786  42.606  51.440  1.00  0.00     0.286 C 
HETATM    2  N   UNL     1      25.988  43.358  52.516  1.00  0.00    -0.056 N 
HETATM    3  H   UNL     1      25.222  42.739  52.811  1.00  0.00     0.278 HD
HETATM    4  H   UNL     1      26.568  43.432  53.381  1.00  0.00     0.278 HD
HETATM    5  C   UNL     1      25.405  44.691  52.162  1.00  0.00     0.209 C 
HETATM    6  C   UNL     1      24.789  44.633  50.746  1.00  0.00     0.115 C 
HETATM    7  N   UNL     1      25.730  44.112  49.763  1.00  0.00    -0.353 N 
HETATM    8  C   UNL     1      26.599  43.085  49.998  1.00  0.00     0.249 C 
HETATM    9  O   UNL     1      27.207  42.572  49.064  1.00  0.00    -0.271 OA
HETATM   10  C   UNL     1      26.462  45.785  52.320  1.00  0.00     0.035 C 
HETATM   11  C   UNL     1      25.909  47.141  51.886  1.00  0.00     0.002 C 
HETATM   12  C   UNL     1      25.347  47.094  50.468  1.00  0.00     0.002 C 
HETATM   13  C   UNL     1      24.278  46.012  50.321  1.00  0.00     0.027 C 
HETATM   14  H   UNL     1      25.580  44.305  48.775  1.00  0.00     0.163 HD
ENDROOT
BRANCH   1  15
HETATM   15  C   UNL     1      28.278  42.554  51.788  1.00  0.00     0.146 C 
BRANCH  15  16
HETATM   16  C   UNL     1      28.356  42.789  53.268  1.00  0.00     0.224 C 
HETATM   17  N   UNL     1      29.162  43.839  53.635  1.00  0.00    -0.327 N 
HETATM   18  H   UNL     1      29.435  44.512  52.924  1.00  0.00     0.169 HD
HETATM   19  O   UNL     1      27.878  41.916  53.994  1.00  0.00    -0.273 OA
BRANCH  17  20
HETATM   20  C   UNL     1      29.721  44.064  54.912  1.00  0.00     0.034 A 
HETATM   21  C   UNL     1      30.678  43.234  55.502  1.00  0.00     0.029 A 
HETATM   22  C   UNL     1      31.235  43.564  56.740  1.00  0.00     0.002 A 
HETATM   23  C   UNL     1      30.840  44.724  57.400  1.00  0.00     0.000 A 
HETATM   24  C   UNL     1      29.876  45.549  56.829  1.00  0.00     0.002 A 
HETATM   25  C   UNL     1      29.313  45.218  55.594  1.00  0.00     0.029 A 
ENDBRANCH  17  20
ENDBRANCH  15  16
ENDBRANCH   1  15
TORSDOF 3
ENDMDL
MODEL 4
REMARK VINA RESULT:      -8.1      3.551      6.353
REMARK  3 active torsions:
REMARK  status: ('A' for Active; 'I' for Inactive)
REMARK    1  A    between atoms: C_4  and  N_5 
REMARK       I    between atoms: N_5  and  C_6 
REMARK    2  A    between atoms: C_6  and  C_7 
REMARK    3  A    between atoms: C_7  and  C_8 
ROOT
HETATM    1  C   UNL     1      26.884  43.753  51.511  1.00  0.00     0.286 C 
HETATM    2  N   UNL     1      26.052  42.476  51.704  1.00  0.00    -0.056 N 
HETATM    3  H   UNL     1      26.713  41.714  51.905  1.00  0.00     0.278 HD
HETATM    4  H   UNL     1      25.513  42.552  52.595  1.00  0.00     0.278 HD
HETATM    5  C   UNL     1      25.157  42.039  50.586  1.00  0.00     0.209 C 
HETATM    6  C   UNL     1      25.891  42.199  49.236  1.00  0.00     0.115 C 
HETATM    7  N   UNL     1      26.444  43.537  49.071  1.00  0.00    -0.353 N 
HETATM    8  C   UNL     1      27.029  44.257  50.073  1.00  0.00     0.249 C 
HETATM    9  O   UNL     1      27.649  45.282  49.808  1.00  0.00    -0.271 OA
HETATM   10  C   UNL     1      23.830  42.795  50.650  1.00  0.00     0.035 C 
HETATM   11  C   UNL     1      22.935  42.422  49.470  1.00  0.00     0.002 C 
HETATM   12  C   UNL     1      23.644  42.630  48.135  1.00  0.00     0.002 C 
HETATM   13  C   UNL     1      24.960  41.855  48.070  1.00  0.00     0.027 C 
HETATM   14  H   UNL     1      26.669  43.874  48.137  1.00  0.00     0.163 HD
ENDROOT
BRANCH   1  15
HETATM   15  C   UNL     1      26.386  44.885  52.418  1.00  0.00     0.146 C 
BRANCH  15  16
HETATM   16  C   UNL     1      26.985  44.614  53.767  1.00  0.00     0.224 C 
HETATM   17  N   UNL     1      28.259  45.099  53.933  1.00  0.00    -0.327 N 
HETATM   18  H   UNL     1      28.603  45.791  53.272  1.00  0.00     0.169 HD
HETATM   19  O   UNL     1      26.379  43.825  54.493  1.00  0.00    -0.273 OA
BRANCH  17  20
HETATM   20  C   UNL     1      29.194  44.691  54.908  1.00  0.00     0.034 A 
HETATM   21  C   UNL     1      29.925  43.502  54.839  1.00  0.00     0.029 A 
HETATM   22  C   UNL     1      30.885  43.203  55.809  1.00  0.00     0.002 A 
HETATM   23  C   UNL     1      31.122  44.089  56.856  1.00  0.00     0.000 A 
HETATM   24  C   UNL     1      30.390  45.268  56.943  1.00  0.00     0.002 A 
HETATM   25  C   UNL     1      29.425  45.566  55.977  1.00  0.00     0.029 A 
ENDBRANCH  17  20
ENDBRANCH  15  16
ENDBRANCH   1  15
TORSDOF 3
ENDMDL
MODEL 5
REMARK VINA RESULT:      -8.0      5.255      9.393
REMARK  3 active torsions:
REMARK  status: ('A' for Active; 'I' for Inactive)
REMARK    1  A    between atoms: C_4  and  N_5 
REMARK       I    between atoms: N_5  and  C_6 
REMARK    2  A    between atoms: C_6  and  C_7 
REMARK    3  A    between atoms: C_7  and  C_8 
ROOT
HETATM    1  C   UNL     1      20.447  49.506  49.706  1.00  0.00     0.286 C 
HETATM    2  N   UNL     1      20.782  50.635  48.719  1.00  0.00    -0.056 N 
HETATM    3  H   UNL     1      21.526  51.200  49.149  1.00  0.00     0.278 HD
HETATM    4  H   UNL     1      21.258  50.227  47.884  1.00  0.00     0.278 HD
HETATM    5  C   UNL     1      19.679  51.554  48.295  1.00  0.00     0.209 C 
HETATM    6  C   UNL     1      18.810  51.928  49.517  1.00  0.00     0.115 C 
HETATM    7  N   UNL     1      18.360  50.749  50.247  1.00  0.00    -0.353 N 
HETATM    8  C   UNL     1      19.127  49.641  50.469  1.00  0.00     0.249 C 
HETATM    9  O   UNL     1      18.749  48.785  51.262  1.00  0.00    -0.271 OA
HETATM   10  C   UNL     1      18.880  50.925  47.153  1.00  0.00     0.035 C 
HETATM   11  C   UNL     1      17.701  51.813  46.761  1.00  0.00     0.002 C 
HETATM   12  C   UNL     1      16.816  52.138  47.961  1.00  0.00     0.002 C 
HETATM   13  C   UNL     1      17.615  52.785  49.091  1.00  0.00     0.027 C 
HETATM   14  H   UNL     1      17.552  50.820  50.863  1.00  0.00     0.163 HD
ENDROOT
BRANCH   1  15
HETATM   15  C   UNL     1      20.526  48.133  49.029  1.00  0.00     0.146 C 
BRANCH  15  16
HETATM   16  C   UNL     1      21.933  48.013  48.521  1.00  0.00     0.224 C 
HETATM   17  N   UNL     1      22.900  48.146  49.487  1.00  0.00    -0.327 N 
HETATM   18  H   UNL     1      22.625  48.064  50.462  1.00  0.00     0.169 HD
HETATM   19  O   UNL     1      22.083  48.022  47.298  1.00  0.00    -0.273 OA
BRANCH  17  20
HETATM   20  C   UNL     1      24.262  48.452  49.277  1.00  0.00     0.034 A 
HETATM   21  C   UNL     1      24.710  49.534  48.513  1.00  0.00     0.029 A 
HETATM   22  C   UNL     1      26.075  49.812  48.412  1.00  0.00     0.002 A 
HETATM   23  C   UNL     1      27.005  49.012  49.071  1.00  0.00     0.000 A 
HETATM   24  C   UNL     1      26.570  47.924  49.821  1.00  0.00     0.002 A 
HETATM   25  C   UNL     1      25.206  47.640  49.919  1.00  0.00     0.029 A 
ENDBRANCH  17  20
ENDBRANCH  15  16
ENDBRANCH   1  15
TORSDOF 3
ENDMDL
MODEL 6
REMARK VINA RESULT:      -7.7      2.704      6.264
REMARK  3 active torsions:
REMARK  status: ('A' for Active; 'I' for Inactive)
REMARK    1  A    between atoms: C_4  and  N_5 
REMARK       I    between atoms: N_5  and  C_6 
REMARK    2  A    between atoms: C_6  and  C_7 
REMARK    3  A    between atoms: C_7  and  C_8 
ROOT
HETATM    1  C   UNL     1      26.016  45.610  51.991  1.00  0.00     0.286 C 
HETATM    2  N   UNL     1      26.208  44.148  51.560  1.00  0.00    -0.056 N 
HETATM    3  H   UNL     1      27.187  44.048  51.260  1.00  0.00     0.278 HD
HETATM    4  H   UNL     1      26.162  43.535  52.403  1.00  0.00     0.278 HD
HETATM    5  C   UNL     1      25.328  43.610  50.474  1.00  0.00     0.209 C 
HETATM    6  C   UNL     1      25.184  44.659  49.349  1.00  0.00     0.115 C 
HETATM    7  N   UNL     1      24.772  45.959  49.864  1.00  0.00    -0.353 N 
HETATM    8  C   UNL     1      25.225  46.503  51.032  1.00  0.00     0.249 C 
HETATM    9  O   UNL     1      24.991  47.679  51.290  1.00  0.00    -0.271 OA
HETATM   10  C   UNL     1      23.989  43.160  51.058  1.00  0.00     0.035 C 
HETATM   11  C   UNL     1      23.047  42.683  49.954  1.00  0.00     0.002 C 
HETATM   12  C   UNL     1      22.866  43.741  48.870  1.00  0.00     0.002 C 
HETATM   13  C   UNL     1      24.207  44.173  48.276  1.00  0.00     0.027 C 
HETATM   14  H   UNL     1      24.347  46.636  49.233  1.00  0.00     0.163 HD
ENDROOT
BRANCH   1  15
HETATM   15  C   UNL     1      25.427  45.701  53.403  1.00  0.00     0.146 C 
BRANCH  15  16
HETATM   16  C   UNL     1      26.383  44.957  54.289  1.00  0.00     0.224 C 
HETATM   17  N   UNL     1      27.620  45.541  54.408  1.00  0.00    -0.327 N 
HETATM   18  H   UNL     1      27.728  46.510  54.119  1.00  0.00     0.169 HD
HETATM   19  O   UNL     1      26.046  43.825  54.639  1.00  0.00    -0.273 OA
BRANCH  17  20
HETATM   20  C   UNL     1      28.808  44.913  54.841  1.00  0.00     0.034 A 
HETATM   21  C   UNL     1      29.549  45.326  55.952  1.00  0.00     0.029 A 
HETATM   22  C   UNL     1      30.675  44.607  56.358  1.00  0.00     0.002 A 
HETATM   23  C   UNL     1      31.072  43.471  55.659  1.00  0.00     0.000 A 
HETATM   24  C   UNL     1      30.351  43.060  54.543  1.00  0.00     0.002 A 
HETATM   25  C   UNL     1      29.227  43.781  54.131  1.00  0.00     0.029 A 
ENDBRANCH  17  20
ENDBRANCH  15  16
ENDBRANCH   1  15
TORSDOF 3
ENDMDL
MODEL 7
REMARK VINA RESULT:      -7.7      5.094      8.517
REMARK  3 active torsions:
REMARK  status: ('A' for Active; 'I' for Inactive)
REMARK    1  A    between atoms: C_4  and  N_5 
REMARK       I    between atoms: N_5  and  C_6 
REMARK    2  A    between atoms: C_6  and  C_7 
REMARK    3  A    between atoms: C_7  and  C_8 
ROOT
HETATM    1  C   UNL     1      20.904  49.188  49.145  1.00  0.00     0.286 C 
HETATM    2  N   UNL     1      19.737  49.440  50.112  1.00  0.00    -0.056 N 
HETATM    3  H   UNL     1      19.982  48.991  51.004  1.00  0.00     0.278 HD
HETATM    4  H   UNL     1      19.715  50.453  50.363  1.00  0.00     0.278 HD
HETATM    5  C   UNL     1      18.373  48.971  49.709  1.00  0.00     0.209 C 
HETATM    6  C   UNL     1      18.468  47.564  49.079  1.00  0.00     0.115 C 
HETATM    7  N   UNL     1      19.457  47.511  48.010  1.00  0.00    -0.353 N 
HETATM    8  C   UNL     1      20.663  48.152  48.044  1.00  0.00     0.249 C 
HETATM    9  O   UNL     1      21.518  47.893  47.204  1.00  0.00    -0.271 OA
HETATM   10  C   UNL     1      17.711  50.003  48.796  1.00  0.00     0.035 C 
HETATM   11  C   UNL     1      16.350  49.505  48.310  1.00  0.00     0.002 C 
HETATM   12  C   UNL     1      16.456  48.138  47.641  1.00  0.00     0.002 C 
HETATM   13  C   UNL     1      17.099  47.106  48.567  1.00  0.00     0.027 C 
HETATM   14  H   UNL     1      19.407  46.766  47.318  1.00  0.00     0.163 HD
ENDROOT
BRANCH   1  15
HETATM   15  C   UNL     1      21.414  50.498  48.534  1.00  0.00     0.146 C 
BRANCH  15  16
HETATM   16  C   UNL     1      22.855  50.601  48.940  1.00  0.00     0.224 C 
HETATM   17  N   UNL     1      23.710  49.816  48.206  1.00  0.00    -0.327 N 
HETATM   18  H   UNL     1      23.380  49.435  47.323  1.00  0.00     0.169 HD
HETATM   19  O   UNL     1      23.091  51.194  49.993  1.00  0.00    -0.273 OA
BRANCH  17  20
HETATM   20  C   UNL     1      25.012  49.417  48.578  1.00  0.00     0.034 A 
HETATM   21  C   UNL     1      26.172  50.110  48.222  1.00  0.00     0.029 A 
HETATM   22  C   UNL     1      27.420  49.690  48.689  1.00  0.00     0.002 A 
HETATM   23  C   UNL     1      27.520  48.574  49.515  1.00  0.00     0.000 A 
HETATM   24  C   UNL     1      26.373  47.868  49.863  1.00  0.00     0.002 A 
HETATM   25  C   UNL     1      25.125  48.282  49.392  1.00  0.00     0.029 A 
ENDBRANCH  17  20
ENDBRANCH  15  16
ENDBRANCH   1  15
TORSDOF 3
ENDMDL
MODEL 8
REMARK VINA RESULT:      -7.6      8.625     11.338
REMARK  3 active torsions:
REMARK  status: ('A' for Active; 'I' for Inactive)
REMARK    1  A    between atoms: C_4  and  N_5 
REMARK       I    between atoms: N_5  and  C_6 
REMARK    2  A    between atoms: C_6  and  C_7 
REMARK    3  A    between atoms: C_7  and  C_8 
ROOT
HETATM    1  C   UNL     1      18.277  50.271  49.321  1.00  0.00     0.286 C 
HETATM    2  N   UNL     1      18.992  50.379  47.965  1.00  0.00    -0.056 N 
HETATM    3  H   UNL     1      18.481  49.776  47.307  1.00  0.00     0.278 HD
HETATM    4  H   UNL     1      18.835  51.332  47.572  1.00  0.00     0.278 HD
HETATM    5  C   UNL     1      20.444  50.020  47.902  1.00  0.00     0.209 C 
HETATM    6  C   UNL     1      20.704  48.742  48.731  1.00  0.00     0.115 C 
HETATM    7  N   UNL     1      20.175  48.853  50.084  1.00  0.00    -0.353 N 
HETATM    8  C   UNL     1      18.987  49.449  50.400  1.00  0.00     0.249 C 
HETATM    9  O   UNL     1      18.518  49.320  51.526  1.00  0.00    -0.271 OA
HETATM   10  C   UNL     1      21.299  51.210  48.336  1.00  0.00     0.035 C 
HETATM   11  C   UNL     1      22.781  50.837  48.355  1.00  0.00     0.002 C 
HETATM   12  C   UNL     1      23.042  49.605  49.217  1.00  0.00     0.002 C 
HETATM   13  C   UNL     1      22.199  48.413  48.764  1.00  0.00     0.027 C 
HETATM   14  H   UNL     1      20.535  48.241  50.814  1.00  0.00     0.163 HD
ENDROOT
BRANCH   1  15
HETATM   15  C   UNL     1      17.911  51.656  49.869  1.00  0.00     0.146 C 
BRANCH  15  16
HETATM   16  C   UNL     1      16.590  52.001  49.246  1.00  0.00     0.224 C 
HETATM   17  N   UNL     1      16.175  53.290  49.471  1.00  0.00    -0.327 N 
HETATM   18  H   UNL     1      16.857  53.968  49.803  1.00  0.00     0.169 HD
HETATM   19  O   UNL     1      15.931  51.065  48.792  1.00  0.00    -0.273 OA
BRANCH  17  20
HETATM   20  C   UNL     1      14.857  53.782  49.349  1.00  0.00     0.034 A 
HETATM   21  C   UNL     1      14.331  54.319  48.171  1.00  0.00     0.029 A 
HETATM   22  C   UNL     1      12.994  54.719  48.110  1.00  0.00     0.002 A 
HETATM   23  C   UNL     1      12.172  54.588  49.226  1.00  0.00     0.000 A 
HETATM   24  C   UNL     1      12.690  54.069  50.408  1.00  0.00     0.002 A 
HETATM   25  C   UNL     1      14.028  53.674  50.473  1.00  0.00     0.029 A 
ENDBRANCH  17  20
ENDBRANCH  15  16
ENDBRANCH   1  15
TORSDOF 3
ENDMDL
MODEL 9
REMARK VINA RESULT:      -7.5      3.665      7.371
REMARK  3 active torsions:
REMARK  status: ('A' for Active; 'I' for Inactive)
REMARK    1  A    between atoms: C_4  and  N_5 
REMARK       I    between atoms: N_5  and  C_6 
REMARK    2  A    between atoms: C_6  and  C_7 
REMARK    3  A    between atoms: C_7  and  C_8 
ROOT
HETATM    1  C   UNL     1      27.474  43.248  52.703  1.00  0.00     0.286 C 
HETATM    2  N   UNL     1      27.238  43.355  54.218  1.00  0.00    -0.056 N 
HETATM    3  H   UNL     1      26.398  42.802  54.432  1.00  0.00     0.278 HD
HETATM    4  H   UNL     1      27.991  42.832  54.718  1.00  0.00     0.278 HD
HETATM    5  C   UNL     1      27.066  44.719  54.811  1.00  0.00     0.209 C 
HETATM    6  C   UNL     1      26.160  45.576  53.899  1.00  0.00     0.115 C 
HETATM    7  N   UNL     1      26.624  45.579  52.518  1.00  0.00    -0.353 N 
HETATM    8  C   UNL     1      27.132  44.488  51.873  1.00  0.00     0.249 C 
HETATM    9  O   UNL     1      27.306  44.519  50.659  1.00  0.00    -0.271 OA
HETATM   10  C   UNL     1      28.432  45.352  55.077  1.00  0.00     0.035 C 
HETATM   11  C   UNL     1      28.276  46.777  55.608  1.00  0.00     0.002 C 
HETATM   12  C   UNL     1      27.424  47.635  54.679  1.00  0.00     0.002 C 
HETATM   13  C   UNL     1      26.052  47.007  54.432  1.00  0.00     0.027 C 
HETATM   14  H   UNL     1      26.325  46.324  51.890  1.00  0.00     0.163 HD
ENDROOT
BRANCH   1  15
HETATM   15  C   UNL     1      28.902  42.783  52.394  1.00  0.00     0.146 C 
BRANCH  15  16
HETATM   16  C   UNL     1      28.815  41.294  52.225  1.00  0.00     0.224 C 
HETATM   17  N   UNL     1      28.900  40.864  50.924  1.00  0.00    -0.327 N 
HETATM   18  H   UNL     1      29.252  41.509  50.221  1.00  0.00     0.169 HD
HETATM   19  O   UNL     1      28.473  40.644  53.214  1.00  0.00    -0.273 OA
BRANCH  17  20
HETATM   20  C   UNL     1      28.484  39.610  50.424  1.00  0.00     0.034 A 
HETATM   21  C   UNL     1      29.277  38.459  50.447  1.00  0.00     0.029 A 
HETATM   22  C   UNL     1      28.767  37.239  49.999  1.00  0.00     0.002 A 
HETATM   23  C   UNL     1      27.461  37.157  49.523  1.00  0.00     0.000 A 
HETATM   24  C   UNL     1      26.669  38.299  49.482  1.00  0.00     0.002 A 
HETATM   25  C   UNL     1      27.179  39.522  49.924  1.00  0.00     0.029 A 
ENDBRANCH  17  20
ENDBRANCH  15  16
ENDBRANCH   1  15
TORSDOF 3
ENDMDL
MODEL 10
REMARK VINA RESULT:      -7.4      4.982      6.785
REMARK  3 active torsions:
REMARK  status: ('A' for Active; 'I' for Inactive)
REMARK    1  A    between atoms: C_4  and  N_5 
REMARK       I    between atoms: N_5  and  C_6 
REMARK    2  A    between atoms: C_6  and  C_7 
REMARK    3  A    between atoms: C_7  and  C_8 
ROOT
HETATM    1  C   UNL     1      28.205  40.566  50.336  1.00  0.00     0.286 C 
HETATM    2  N   UNL     1      28.606  39.130  50.708  1.00  0.00    -0.056 N 
HETATM    3  H   UNL     1      29.606  39.150  50.951  1.00  0.00     0.278 HD
HETATM    4  H   UNL     1      28.155  38.874  51.613  1.00  0.00     0.278 HD
HETATM    5  C   UNL     1      28.392  38.051  49.692  1.00  0.00     0.209 C 
HETATM    6  C   UNL     1      28.814  38.557  48.294  1.00  0.00     0.115 C 
HETATM    7  N   UNL     1      28.182  39.827  47.961  1.00  0.00    -0.353 N 
HETATM    8  C   UNL     1      27.985  40.846  48.848  1.00  0.00     0.249 C 
HETATM    9  O   UNL     1      27.637  41.951  48.444  1.00  0.00    -0.271 OA
HETATM   10  C   UNL     1      26.946  37.558  49.748  1.00  0.00     0.035 C 
HETATM   11  C   UNL     1      26.686  36.513  48.664  1.00  0.00     0.002 C 
HETATM   12  C   UNL     1      27.055  37.034  47.278  1.00  0.00     0.002 C 
HETATM   13  C   UNL     1      28.508  37.507  47.223  1.00  0.00     0.027 C 
HETATM   14  H   UNL     1      28.118  40.114  46.985  1.00  0.00     0.163 HD
ENDROOT
BRANCH   1  15
HETATM   15  C   UNL     1      26.990  41.031  51.146  1.00  0.00     0.146 C 
BRANCH  15  16
HETATM   16  C   UNL     1      27.528  41.434  52.488  1.00  0.00     0.224 C 
HETATM   17  N   UNL     1      27.714  42.785  52.644  1.00  0.00    -0.327 N 
HETATM   18  H   UNL     1      27.266  43.416  51.984  1.00  0.00     0.169 HD
HETATM   19  O   UNL     1      27.936  40.527  53.215  1.00  0.00    -0.273 OA
BRANCH  17  20
HETATM   20  C   UNL     1      28.531  43.415  53.609  1.00  0.00     0.034 A 
HETATM   21  C   UNL     1      28.147  44.543  54.339  1.00  0.00     0.029 A 
HETATM   22  C   UNL     1      28.985  45.065  55.328  1.00  0.00     0.002 A 
HETATM   23  C   UNL     1      30.213  44.467  55.593  1.00  0.00     0.000 A 
HETATM   24  C   UNL     1      30.611  43.353  54.861  1.00  0.00     0.002 A 
HETATM   25  C   UNL     1      29.778  42.833  53.868  1.00  0.00     0.029 A 
ENDBRANCH  17  20
ENDBRANCH  15  16
ENDBRANCH   1  15
TORSDOF 3
ENDMDL
