MODEL 1
REMARK VINA RESULT:     -10.0      0.000      0.000
REMARK  4 active torsions:
REMARK  status: ('A' for Active; 'I' for Inactive)
REMARK    1  A    between atoms: C_4  and  C_5 
REMARK    2  A    between atoms: C_9  and  N_10 
REMARK       I    between atoms: N_10  and  C_11 
REMARK    3  A    between atoms: C_11  and  C_12 
REMARK    4  A    between atoms: C_13  and  C_14 
ROOT
HETATM    1  N   UNL     1      26.749  44.714  51.207  1.00  0.00    -0.308 N 
HETATM    2  C   UNL     1      26.422  43.826  52.218  1.00  0.00     0.261 C 
HETATM    3  O   UNL     1      25.402  43.930  52.900  1.00  0.00    -0.267 OA
HETATM    4  H   UNL     1      27.571  44.565  50.638  1.00  0.00     0.170 HD
ENDROOT
BRANCH   1   5
HETATM    5  C   UNL     1      25.920  45.765  50.859  1.00  0.00     0.126 A 
HETATM    6  N   UNL     1      25.819  46.940  51.555  1.00  0.00    -0.262 N 
HETATM    7  N   UNL     1      24.879  47.771  51.076  1.00  0.00    -0.173 NA
HETATM    8  H   UNL     1      26.344  47.202  52.385  1.00  0.00     0.191 HD
HETATM    9  C   UNL     1      24.392  47.134  49.999  1.00  0.00     0.090 A 
HETATM   10  C   UNL     1      25.031  45.875  49.819  1.00  0.00     0.084 A 
BRANCH   9  11
HETATM   11  C   UNL     1      23.314  47.702  49.197  1.00  0.00    -0.005 A 
HETATM   12  C   UNL     1      23.013  49.068  49.268  1.00  0.00     0.020 A 
HETATM   13  C   UNL     1      21.989  49.612  48.480  1.00  0.00    -0.061 A 
HETATM   14  C   UNL     1      21.620  51.063  48.591  1.00  0.00     0.048 C 
HETATM   15  C   UNL     1      21.272  48.775  47.613  1.00  0.00     0.013 A 
HETATM   16  C   UNL     1      21.571  47.411  47.520  1.00  0.00    -0.061 A 
HETATM   17  C   UNL     1      22.581  46.878  48.333  1.00  0.00     0.020 A 
HETATM   18  C   UNL     1      20.784  46.523  46.603  1.00  0.00     0.048 C 
ENDBRANCH   9  11
ENDBRANCH   1   5
BRANCH   2  19
HETATM   19  C   UNL     1      27.338  42.706  52.402  1.00  0.00     0.080 A 
HETATM   20  C   UNL     1      28.487  42.510  53.232  1.00  0.00     0.104 A 
HETATM   21  N   UNL     1      29.059  41.317  52.997  1.00  0.00    -0.174 NA
HETATM   22  N   UNL     1      28.261  40.731  52.098  1.00  0.00    -0.288 N 
HETATM   23  H   UNL     1      28.494  39.792  51.786  1.00  0.00     0.188 HD
HETATM   24  C   UNL     1      27.219  41.510  51.713  1.00  0.00     0.128 A 
BRANCH  20  25
HETATM   25  C   UNL     1      29.068  43.393  54.238  1.00  0.00    -0.004 A 
HETATM   26  C   UNL     1      28.419  44.581  54.606  1.00  0.00     0.017 A 
HETATM   27  C   UNL     1      28.992  45.425  55.560  1.00  0.00     0.043 A 
HETATM   28  C   UNL     1      30.202  45.075  56.148  1.00  0.00     0.116 A 
HETATM   29  F   UNL     1      30.749  45.888  57.063  1.00  0.00    -0.206 F 
HETATM   30  C   UNL     1      30.852  43.896  55.804  1.00  0.00     0.043 A 
HETATM   31  C   UNL     1      30.283  43.050  54.851  1.00  0.00     0.017 A 
ENDBRANCH  20  25
ENDBRANCH   2  19
TORSDOF 4
ENDMDL
MODEL 2
REMARK VINA RESULT:     -10.0      4.450      7.243
REMARK  4 active torsions:
REMARK  status: ('A' for Active; 'I' for Inactive)
REMARK    1  A    between atoms: C_4  and  C_5 
REMARK    2  A    between atoms: C_9  and  N_10 
REMARK       I    between atoms: N_10  and  C_11 
REMARK    3  A    between atoms: C_11  and  C_12 
REMARK    4  A    between atoms: C_13  and  C_14 
ROOT
HETATM    1  N   UNL     1      26.877  44.581  52.426  1.00  0.00    -0.308 N 
HETATM    2  C   UNL     1      26.580  44.615  53.778  1.00  0.00     0.261 C 
HETATM    3  O   UNL     1      26.186  43.632  54.404  1.00  0.00    -0.267 OA
HETATM    4  H   UNL     1      27.246  45.399  51.960  1.00  0.00     0.170 HD
ENDROOT
BRANCH   1   5
HETATM    5  C   UNL     1      26.795  43.415  51.687  1.00  0.00     0.126 A 
HETATM    6  N   UNL     1      25.635  42.728  51.446  1.00  0.00    -0.262 N 
HETATM    7  N   UNL     1      25.820  41.575  50.782  1.00  0.00    -0.173 NA
HETATM    8  H   UNL     1      24.700  42.989  51.747  1.00  0.00     0.191 HD
HETATM    9  C   UNL     1      27.140  41.540  50.540  1.00  0.00     0.090 A 
HETATM   10  C   UNL     1      27.788  42.688  51.079  1.00  0.00     0.084 A 
BRANCH   9  11
HETATM   11  C   UNL     1      27.762  40.416  49.849  1.00  0.00    -0.005 A 
HETATM   12  C   UNL     1      27.590  40.239  48.470  1.00  0.00     0.020 A 
HETATM   13  C   UNL     1      28.206  39.168  47.808  1.00  0.00    -0.061 A 
HETATM   14  C   UNL     1      27.982  38.937  46.343  1.00  0.00     0.048 C 
HETATM   15  C   UNL     1      29.004  38.277  48.541  1.00  0.00     0.013 A 
HETATM   16  C   UNL     1      29.197  38.449  49.917  1.00  0.00    -0.061 A 
HETATM   17  C   UNL     1      28.554  39.510  50.567  1.00  0.00     0.020 A 
HETATM   18  C   UNL     1      30.037  37.478  50.691  1.00  0.00     0.048 C 
ENDBRANCH   9  11
ENDBRANCH   1   5
BRANCH   2  19
HETATM   19  C   UNL     1      26.816  45.889  54.449  1.00  0.00     0.080 A 
HETATM   20  C   UNL     1      27.799  46.328  55.391  1.00  0.00     0.104 A 
HETATM   21  N   UNL     1      27.563  47.590  55.787  1.00  0.00    -0.174 NA
HETATM   22  N   UNL     1      26.506  47.979  55.066  1.00  0.00    -0.288 N 
HETATM   23  H   UNL     1      26.162  48.927  55.188  1.00  0.00     0.188 HD
HETATM   24  C   UNL     1      26.025  47.008  54.250  1.00  0.00     0.128 A 
BRANCH  20  25
HETATM   25  C   UNL     1      28.951  45.615  55.933  1.00  0.00    -0.004 A 
HETATM   26  C   UNL     1      29.576  44.600  55.193  1.00  0.00     0.017 A 
HETATM   27  C   UNL     1      30.669  43.915  55.728  1.00  0.00     0.043 A 
HETATM   28  C   UNL     1      31.139  44.252  56.992  1.00  0.00     0.116 A 
HETATM   29  F   UNL     1      32.187  43.592  57.502  1.00  0.00    -0.206 F 
HETATM   30  C   UNL     1      30.539  45.262  57.734  1.00  0.00     0.043 A 
HETATM   31  C   UNL     1      29.447  45.949  57.203  1.00  0.00     0.017 A 
ENDBRANCH  20  25
ENDBRANCH   2  19
TORSDOF 4
ENDMDL
MODEL 3
REMARK VINA RESULT:     -10.0      0.840      1.825
REMARK  4 active torsions:
REMARK  status: ('A' for Active; 'I' for Inactive)
REMARK    1  A    between atoms: C_4  and  C_5 
REMARK    2  A    between atoms: C_9  and  N_10 
REMARK       I    between atoms: N_10  and  C_11 
REMARK    3  A    between atoms: C_11  and  C_12 
REMARK    4  A    between atoms: C_13  and  C_14 
ROOT
HETATM    1  N   UNL     1      25.918  44.167  51.503  1.00  0.00    -0.308 N 
HETATM    2  C   UNL     1      27.207  43.775  51.184  1.00  0.00     0.261 C 
HETATM    3  O   UNL     1      27.933  44.409  50.419  1.00  0.00    -0.267 OA
HETATM    4  H   UNL     1      25.374  43.644  52.175  1.00  0.00     0.170 HD
ENDROOT
BRANCH   1   5
HETATM    5  C   UNL     1      25.367  45.337  51.015  1.00  0.00     0.126 A 
HETATM    6  N   UNL     1      25.667  46.591  51.477  1.00  0.00    -0.262 N 
HETATM    7  N   UNL     1      24.935  47.563  50.910  1.00  0.00    -0.173 NA
HETATM    8  H   UNL     1      26.335  46.826  52.206  1.00  0.00     0.191 HD
HETATM    9  C   UNL     1      24.173  46.922  50.009  1.00  0.00     0.090 A 
HETATM   10  C   UNL     1      24.426  45.522  50.032  1.00  0.00     0.084 A 
BRANCH   9  11
HETATM   11  C   UNL     1      23.201  47.633  49.185  1.00  0.00    -0.005 A 
HETATM   12  C   UNL     1      22.371  46.938  48.296  1.00  0.00     0.020 A 
HETATM   13  C   UNL     1      21.427  47.624  47.521  1.00  0.00    -0.061 A 
HETATM   14  C   UNL     1      20.573  46.896  46.525  1.00  0.00     0.048 C 
HETATM   15  C   UNL     1      21.315  49.016  47.650  1.00  0.00     0.013 A 
HETATM   16  C   UNL     1      22.126  49.723  48.545  1.00  0.00    -0.061 A 
HETATM   17  C   UNL     1      23.083  49.025  49.294  1.00  0.00     0.020 A 
HETATM   18  C   UNL     1      22.009  51.214  48.659  1.00  0.00     0.048 C 
ENDBRANCH   9  11
ENDBRANCH   1   5
BRANCH   2  19
HETATM   19  C   UNL     1      27.693  42.575  51.858  1.00  0.00     0.080 A 
HETATM   20  C   UNL     1      28.446  42.367  53.056  1.00  0.00     0.104 A 
HETATM   21  N   UNL     1      28.722  41.064  53.237  1.00  0.00    -0.174 NA
HETATM   22  N   UNL     1      28.101  40.444  52.227  1.00  0.00    -0.288 N 
HETATM   23  H   UNL     1      28.156  39.431  52.176  1.00  0.00     0.188 HD
HETATM   24  C   UNL     1      27.469  41.295  51.380  1.00  0.00     0.128 A 
BRANCH  20  25
HETATM   25  C   UNL     1      28.915  43.337  54.040  1.00  0.00    -0.004 A 
HETATM   26  C   UNL     1      28.125  44.444  54.385  1.00  0.00     0.017 A 
HETATM   27  C   UNL     1      28.591  45.373  55.318  1.00  0.00     0.043 A 
HETATM   28  C   UNL     1      29.837  45.189  55.908  1.00  0.00     0.116 A 
HETATM   29  F   UNL     1      30.280  46.083  56.802  1.00  0.00    -0.206 F 
HETATM   30  C   UNL     1      30.627  44.092  55.587  1.00  0.00     0.043 A 
HETATM   31  C   UNL     1      30.164  43.161  54.655  1.00  0.00     0.017 A 
ENDBRANCH  20  25
ENDBRANCH   2  19
TORSDOF 4
ENDMDL
MODEL 4
REMARK VINA RESULT:      -9.4      1.246      2.447
REMARK  4 active torsions:
REMARK  status: ('A' for Active; 'I' for Inactive)
REMARK    1  A    between atoms: C_4  and  C_5 
REMARK    2  A    between atoms: C_9  and  N_10 
REMARK       I    between atoms: N_10  and  C_11 
REMARK    3  A    between atoms: C_11  and  C_12 
REMARK    4  A    between atoms: C_13  and  C_14 
ROOT
HETATM    1  N   UNL     1      25.402  45.032  50.241  1.00  0.00    -0.308 N 
HETATM    2  C   UNL     1      25.178  44.323  51.409  1.00  0.00     0.261 C 
HETATM    3  O   UNL     1      24.351  44.664  52.255  1.00  0.00    -0.267 OA
HETATM    4  H   UNL     1      26.055  44.689  49.549  1.00  0.00     0.170 HD
ENDROOT
BRANCH   1   5
HETATM    5  C   UNL     1      24.671  46.161  49.918  1.00  0.00     0.126 A 
HETATM    6  N   UNL     1      24.904  47.410  50.428  1.00  0.00    -0.262 N 
HETATM    7  N   UNL     1      24.005  48.328  50.037  1.00  0.00    -0.173 NA
HETATM    8  H   UNL     1      25.641  47.675  51.076  1.00  0.00     0.191 HD
HETATM    9  C   UNL     1      23.193  47.661  49.202  1.00  0.00     0.090 A 
HETATM   10  C   UNL     1      23.587  46.298  49.087  1.00  0.00     0.084 A 
BRANCH   9  11
HETATM   11  C   UNL     1      22.048  48.308  48.570  1.00  0.00    -0.005 A 
HETATM   12  C   UNL     1      21.217  47.596  47.695  1.00  0.00     0.020 A 
HETATM   13  C   UNL     1      20.107  48.217  47.106  1.00  0.00    -0.061 A 
HETATM   14  C   UNL     1      19.244  47.481  46.124  1.00  0.00     0.048 C 
HETATM   15  C   UNL     1      19.832  49.559  47.408  1.00  0.00     0.013 A 
HETATM   16  C   UNL     1      20.644  50.278  48.292  1.00  0.00    -0.061 A 
HETATM   17  C   UNL     1      21.764  49.650  48.852  1.00  0.00     0.020 A 
HETATM   18  C   UNL     1      20.349  51.718  48.590  1.00  0.00     0.048 C 
ENDBRANCH   9  11
ENDBRANCH   1   5
BRANCH   2  19
HETATM   19  C   UNL     1      25.948  43.093  51.564  1.00  0.00     0.080 A 
HETATM   20  C   UNL     1      27.092  42.751  52.352  1.00  0.00     0.104 A 
HETATM   21  N   UNL     1      27.496  41.494  52.102  1.00  0.00    -0.174 NA
HETATM   22  N   UNL     1      26.596  41.015  51.236  1.00  0.00    -0.288 N 
HETATM   23  H   UNL     1      26.694  40.055  50.921  1.00  0.00     0.188 HD
HETATM   24  C   UNL     1      25.650  41.923  50.886  1.00  0.00     0.128 A 
BRANCH  20  25
HETATM   25  C   UNL     1      27.819  43.552  53.332  1.00  0.00    -0.004 A 
HETATM   26  C   UNL     1      29.006  43.073  53.906  1.00  0.00     0.017 A 
HETATM   27  C   UNL     1      29.685  43.843  54.852  1.00  0.00     0.043 A 
HETATM   28  C   UNL     1      29.183  45.088  55.214  1.00  0.00     0.116 A 
HETATM   29  F   UNL     1      29.838  45.823  56.123  1.00  0.00    -0.206 F 
HETATM   30  C   UNL     1      28.015  45.582  54.646  1.00  0.00     0.043 A 
HETATM   31  C   UNL     1      27.333  44.816  53.700  1.00  0.00     0.017 A 
ENDBRANCH  20  25
ENDBRANCH   2  19
TORSDOF 4
ENDMDL
MODEL 5
REMARK VINA RESULT:      -9.3      4.303      6.965
REMARK  4 active torsions:
REMARK  status: ('A' for Active; 'I' for Inactive)
REMARK    1  A    between atoms: C_4  and  C_5 
REMARK    2  A    between atoms: C_9  and  N_10 
REMARK       I    between atoms: N_10  and  C_11 
REMARK    3  A    between atoms: C_11  and  C_12 
REMARK    4  A    between atoms: C_13  and  C_14 
ROOT
HETATM    1  N   UNL     1      27.307  44.116  52.224  1.00  0.00    -0.308 N 
HETATM    2  C   UNL     1      27.025  44.193  53.578  1.00  0.00     0.261 C 
HETATM    3  O   UNL     1      26.887  43.202  54.294  1.00  0.00    -0.267 OA
HETATM    4  H   UNL     1      27.462  44.955  51.683  1.00  0.00     0.170 HD
ENDROOT
BRANCH   1   5
HETATM    5  C   UNL     1      27.500  42.905  51.585  1.00  0.00     0.126 A 
HETATM    6  N   UNL     1      28.134  41.825  52.140  1.00  0.00    -0.262 N 
HETATM    7  N   UNL     1      28.282  40.794  51.292  1.00  0.00    -0.173 NA
HETATM    8  H   UNL     1      28.515  41.760  53.080  1.00  0.00     0.191 HD
HETATM    9  C   UNL     1      27.675  41.201  50.165  1.00  0.00     0.090 A 
HETATM   10  C   UNL     1      27.156  42.518  50.313  1.00  0.00     0.084 A 
BRANCH   9  11
HETATM   11  C   UNL     1      27.637  40.363  48.972  1.00  0.00    -0.005 A 
HETATM   12  C   UNL     1      27.302  39.006  49.060  1.00  0.00     0.020 A 
HETATM   13  C   UNL     1      27.248  38.210  47.907  1.00  0.00    -0.061 A 
HETATM   14  C   UNL     1      26.946  36.744  47.998  1.00  0.00     0.048 C 
HETATM   15  C   UNL     1      27.526  38.790  46.661  1.00  0.00     0.013 A 
HETATM   16  C   UNL     1      27.847  40.148  46.555  1.00  0.00    -0.061 A 
HETATM   17  C   UNL     1      27.922  40.923  47.719  1.00  0.00     0.020 A 
HETATM   18  C   UNL     1      28.161  40.750  45.217  1.00  0.00     0.048 C 
ENDBRANCH   9  11
ENDBRANCH   1   5
BRANCH   2  19
HETATM   19  C   UNL     1      26.954  45.539  54.137  1.00  0.00     0.080 A 
HETATM   20  C   UNL     1      27.675  46.202  55.180  1.00  0.00     0.104 A 
HETATM   21  N   UNL     1      27.197  47.440  55.390  1.00  0.00    -0.174 NA
HETATM   22  N   UNL     1      26.249  47.599  54.460  1.00  0.00    -0.288 N 
HETATM   23  H   UNL     1      25.760  48.488  54.417  1.00  0.00     0.188 HD
HETATM   24  C   UNL     1      26.066  46.501  53.684  1.00  0.00     0.128 A 
BRANCH  20  25
HETATM   25  C   UNL     1      28.793  45.723  55.986  1.00  0.00    -0.004 A 
HETATM   26  C   UNL     1      29.711  44.803  55.458  1.00  0.00     0.017 A 
HETATM   27  C   UNL     1      30.770  44.343  56.244  1.00  0.00     0.043 A 
HETATM   28  C   UNL     1      30.913  44.808  57.546  1.00  0.00     0.116 A 
HETATM   29  F   UNL     1      31.930  44.363  58.297  1.00  0.00    -0.206 F 
HETATM   30  C   UNL     1      30.019  45.729  58.080  1.00  0.00     0.043 A 
HETATM   31  C   UNL     1      28.960  46.192  57.298  1.00  0.00     0.017 A 
ENDBRANCH  20  25
ENDBRANCH   2  19
TORSDOF 4
ENDMDL
MODEL 6
REMARK VINA RESULT:      -9.3      3.752     10.033
REMARK  4 active torsions:
REMARK  status: ('A' for Active; 'I' for Inactive)
REMARK    1  A    between atoms: C_4  and  C_5 
REMARK    2  A    between atoms: C_9  and  N_10 
REMARK       I    between atoms: N_10  and  C_11 
REMARK    3  A    between atoms: C_11  and  C_12 
REMARK    4  A    between atoms: C_13  and  C_14 
ROOT
HETATM    1  N   UNL     1      24.493  47.459  50.350  1.00  0.00    -0.308 N 
HETATM    2  C   UNL     1      23.670  47.318  49.246  1.00  0.00     0.261 C 
HETATM    3  O   UNL     1      23.330  46.224  48.796  1.00  0.00    -0.267 OA
HETATM    4  H   UNL     1      24.707  48.376  50.718  1.00  0.00     0.170 HD
ENDROOT
BRANCH   1   5
HETATM    5  C   UNL     1      24.958  46.368  51.060  1.00  0.00     0.126 A 
HETATM    6  N   UNL     1      24.162  45.391  51.596  1.00  0.00    -0.262 N 
HETATM    7  N   UNL     1      24.837  44.483  52.321  1.00  0.00    -0.173 NA
HETATM    8  H   UNL     1      23.151  45.324  51.524  1.00  0.00     0.191 HD
HETATM    9  C   UNL     1      26.121  44.857  52.207  1.00  0.00     0.090 A 
HETATM   10  C   UNL     1      26.243  46.029  51.409  1.00  0.00     0.084 A 
BRANCH   9  11
HETATM   11  C   UNL     1      27.192  44.131  52.883  1.00  0.00    -0.005 A 
HETATM   12  C   UNL     1      27.511  42.818  52.512  1.00  0.00     0.020 A 
HETATM   13  C   UNL     1      28.553  42.133  53.152  1.00  0.00    -0.061 A 
HETATM   14  C   UNL     1      28.866  40.708  52.802  1.00  0.00     0.048 C 
HETATM   15  C   UNL     1      29.279  42.778  54.163  1.00  0.00     0.013 A 
HETATM   16  C   UNL     1      28.982  44.095  54.534  1.00  0.00    -0.061 A 
HETATM   17  C   UNL     1      27.921  44.757  53.902  1.00  0.00     0.020 A 
HETATM   18  C   UNL     1      29.754  44.766  55.631  1.00  0.00     0.048 C 
ENDBRANCH   9  11
ENDBRANCH   1   5
BRANCH   2  19
HETATM   19  C   UNL     1      23.169  48.558  48.663  1.00  0.00     0.080 A 
HETATM   20  C   UNL     1      21.863  48.997  48.277  1.00  0.00     0.104 A 
HETATM   21  N   UNL     1      21.908  50.213  47.708  1.00  0.00    -0.174 NA
HETATM   22  N   UNL     1      23.192  50.580  47.793  1.00  0.00    -0.288 N 
HETATM   23  H   UNL     1      23.457  51.494  47.438  1.00  0.00     0.188 HD
HETATM   24  C   UNL     1      23.985  49.634  48.357  1.00  0.00     0.128 A 
BRANCH  20  25
HETATM   25  C   UNL     1      20.576  48.325  48.422  1.00  0.00    -0.004 A 
HETATM   26  C   UNL     1      19.682  48.705  49.435  1.00  0.00     0.017 A 
HETATM   27  C   UNL     1      18.459  48.046  49.572  1.00  0.00     0.043 A 
HETATM   28  C   UNL     1      18.130  47.018  48.694  1.00  0.00     0.116 A 
HETATM   29  F   UNL     1      16.956  46.388  48.830  1.00  0.00    -0.206 F 
HETATM   30  C   UNL     1      18.998  46.638  47.678  1.00  0.00     0.043 A 
HETATM   31  C   UNL     1      20.221  47.295  47.538  1.00  0.00     0.017 A 
ENDBRANCH  20  25
ENDBRANCH   2  19
TORSDOF 4
ENDMDL
MODEL 7
REMARK VINA RESULT:      -9.2      5.805      8.753
REMARK  4 active torsions:
REMARK  status: ('A' for Active; 'I' for Inactive)
REMARK    1  A    between atoms: C_4  and  C_5 
REMARK    2  A    between atoms: C_9  and  N_10 
REMARK       I    between atoms: N_10  and  C_11 
REMARK    3  A    between atoms: C_11  and  C_12 
REMARK    4  A    between atoms: C_13  and  C_14 
ROOT
HETATM    1  N   UNL     1      28.376  41.619  50.488  1.00  0.00    -0.308 N 
HETATM    2  C   UNL     1      27.230  41.342  49.763  1.00  0.00     0.261 C 
HETATM    3  O   UNL     1      26.122  41.788  50.061  1.00  0.00    -0.267 OA
HETATM    4  H   UNL     1      29.275  41.272  50.180  1.00  0.00     0.170 HD
ENDROOT
BRANCH   1   5
HETATM    5  C   UNL     1      28.364  42.462  51.583  1.00  0.00     0.126 A 
HETATM    6  N   UNL     1      27.570  43.572  51.702  1.00  0.00    -0.262 N 
HETATM    7  N   UNL     1      27.803  44.284  52.816  1.00  0.00    -0.173 NA
HETATM    8  H   UNL     1      26.883  43.902  51.030  1.00  0.00     0.191 HD
HETATM    9  C   UNL     1      28.744  43.582  53.468  1.00  0.00     0.090 A 
HETATM   10  C   UNL     1      29.113  42.421  52.734  1.00  0.00     0.084 A 
BRANCH   9  11
HETATM   11  C   UNL     1      29.299  44.041  54.737  1.00  0.00    -0.005 A 
HETATM   12  C   UNL     1      30.464  43.465  55.259  1.00  0.00     0.020 A 
HETATM   13  C   UNL     1      31.004  43.923  56.469  1.00  0.00    -0.061 A 
HETATM   14  C   UNL     1      32.217  43.273  57.065  1.00  0.00     0.048 C 
HETATM   15  C   UNL     1      30.369  44.972  57.148  1.00  0.00     0.013 A 
HETATM   16  C   UNL     1      29.213  45.569  56.632  1.00  0.00    -0.061 A 
HETATM   17  C   UNL     1      28.673  45.082  55.435  1.00  0.00     0.020 A 
HETATM   18  C   UNL     1      28.534  46.678  57.379  1.00  0.00     0.048 C 
ENDBRANCH   9  11
ENDBRANCH   1   5
BRANCH   2  19
HETATM   19  C   UNL     1      27.414  40.523  48.570  1.00  0.00     0.080 A 
HETATM   20  C   UNL     1      27.967  39.221  48.356  1.00  0.00     0.104 A 
HETATM   21  N   UNL     1      27.989  38.911  47.048  1.00  0.00    -0.174 NA
HETATM   22  N   UNL     1      27.398  39.949  46.445  1.00  0.00    -0.288 N 
HETATM   23  H   UNL     1      27.283  39.918  45.436  1.00  0.00     0.188 HD
HETATM   24  C   UNL     1      27.032  40.933  47.304  1.00  0.00     0.128 A 
BRANCH  20  25
HETATM   25  C   UNL     1      28.474  38.255  49.325  1.00  0.00    -0.004 A 
HETATM   26  C   UNL     1      29.718  38.450  49.944  1.00  0.00     0.017 A 
HETATM   27  C   UNL     1      30.197  37.512  50.860  1.00  0.00     0.043 A 
HETATM   28  C   UNL     1      29.432  36.391  51.161  1.00  0.00     0.116 A 
HETATM   29  F   UNL     1      29.896  35.492  52.040  1.00  0.00    -0.206 F 
HETATM   30  C   UNL     1      28.192  36.189  50.566  1.00  0.00     0.043 A 
HETATM   31  C   UNL     1      27.709  37.124  49.650  1.00  0.00     0.017 A 
ENDBRANCH  20  25
ENDBRANCH   2  19
TORSDOF 4
ENDMDL
MODEL 8
REMARK VINA RESULT:      -9.1      3.473      9.212
REMARK  4 active torsions:
REMARK  status: ('A' for Active; 'I' for Inactive)
REMARK    1  A    between atoms: C_4  and  C_5 
REMARK    2  A    between atoms: C_9  and  N_10 
REMARK       I    between atoms: N_10  and  C_11 
REMARK    3  A    between atoms: C_11  and  C_12 
REMARK    4  A    between atoms: C_13  and  C_14 
ROOT
HETATM    1  N   UNL     1      24.143  45.423  49.265  1.00  0.00    -0.308 N 
HETATM    2  C   UNL     1      22.978  44.826  48.813  1.00  0.00     0.261 C 
HETATM    3  O   UNL     1      22.392  43.941  49.436  1.00  0.00    -0.267 OA
HETATM    4  H   UNL     1      24.566  46.181  48.747  1.00  0.00     0.170 HD
ENDROOT
BRANCH   1   5
HETATM    5  C   UNL     1      24.710  45.094  50.482  1.00  0.00     0.126 A 
HETATM    6  N   UNL     1      24.001  44.781  51.611  1.00  0.00    -0.262 N 
HETATM    7  N   UNL     1      24.771  44.587  52.694  1.00  0.00    -0.173 NA
HETATM    8  H   UNL     1      22.990  44.725  51.698  1.00  0.00     0.191 HD
HETATM    9  C   UNL     1      26.026  44.728  52.238  1.00  0.00     0.090 A 
HETATM   10  C   UNL     1      26.032  45.031  50.848  1.00  0.00     0.084 A 
BRANCH   9  11
HETATM   11  C   UNL     1      27.179  44.616  53.125  1.00  0.00    -0.005 A 
HETATM   12  C   UNL     1      28.211  43.710  52.848  1.00  0.00     0.020 A 
HETATM   13  C   UNL     1      29.326  43.621  53.693  1.00  0.00    -0.061 A 
HETATM   14  C   UNL     1      30.408  42.615  53.436  1.00  0.00     0.048 C 
HETATM   15  C   UNL     1      29.401  44.455  54.817  1.00  0.00     0.013 A 
HETATM   16  C   UNL     1      28.386  45.377  55.100  1.00  0.00    -0.061 A 
HETATM   17  C   UNL     1      27.267  45.435  54.259  1.00  0.00     0.020 A 
HETATM   18  C   UNL     1      28.471  46.249  56.317  1.00  0.00     0.048 C 
ENDBRANCH   9  11
ENDBRANCH   1   5
BRANCH   2  19
HETATM   19  C   UNL     1      22.438  45.350  47.563  1.00  0.00     0.080 A 
HETATM   20  C   UNL     1      21.836  46.598  47.207  1.00  0.00     0.104 A 
HETATM   21  N   UNL     1      21.421  46.590  45.930  1.00  0.00    -0.174 NA
HETATM   22  N   UNL     1      21.811  45.402  45.454  1.00  0.00    -0.288 N 
HETATM   23  H   UNL     1      21.618  45.186  44.480  1.00  0.00     0.188 HD
HETATM   24  C   UNL     1      22.426  44.627  46.382  1.00  0.00     0.128 A 
BRANCH  20  25
HETATM   25  C   UNL     1      21.636  47.797  48.014  1.00  0.00    -0.004 A 
HETATM   26  C   UNL     1      22.664  48.741  48.157  1.00  0.00     0.017 A 
HETATM   27  C   UNL     1      22.465  49.878  48.943  1.00  0.00     0.043 A 
HETATM   28  C   UNL     1      21.242  50.072  49.574  1.00  0.00     0.116 A 
HETATM   29  F   UNL     1      21.056  51.164  50.327  1.00  0.00    -0.206 F 
HETATM   30  C   UNL     1      20.209  49.153  49.434  1.00  0.00     0.043 A 
HETATM   31  C   UNL     1      20.404  48.016  48.649  1.00  0.00     0.017 A 
ENDBRANCH  20  25
ENDBRANCH   2  19
TORSDOF 4
ENDMDL
MODEL 9
REMARK VINA RESULT:      -9.0      3.108      8.709
REMARK  4 active torsions:
REMARK  status: ('A' for Active; 'I' for Inactive)
REMARK    1  A    between atoms: C_4  and  C_5 
REMARK    2  A    between atoms: C_9  and  N_10 
REMARK       I    between atoms: N_10  and  C_11 
REMARK    3  A    between atoms: C_11  and  C_12 
REMARK    4  A    between atoms: C_13  and  C_14 
ROOT
HETATM    1  N   UNL     1      26.113  42.472  50.355  1.00  0.00    -0.308 N 
HETATM    2  C   UNL     1      24.748  42.702  50.393  1.00  0.00     0.261 C 
HETATM    3  O   UNL     1      24.128  42.896  51.438  1.00  0.00    -0.267 OA
HETATM    4  H   UNL     1      26.592  42.366  49.470  1.00  0.00     0.170 HD
ENDROOT
BRANCH   1   5
HETATM    5  C   UNL     1      26.890  42.490  51.498  1.00  0.00     0.126 A 
HETATM    6  N   UNL     1      27.231  41.381  52.225  1.00  0.00    -0.262 N 
HETATM    7  N   UNL     1      27.915  41.661  53.346  1.00  0.00    -0.173 NA
HETATM    8  H   UNL     1      26.986  40.417  52.014  1.00  0.00     0.191 HD
HETATM    9  C   UNL     1      28.069  42.994  53.317  1.00  0.00     0.090 A 
HETATM   10  C   UNL     1      27.452  43.553  52.162  1.00  0.00     0.084 A 
BRANCH   9  11
HETATM   11  C   UNL     1      28.750  43.710  54.390  1.00  0.00    -0.005 A 
HETATM   12  C   UNL     1      28.212  44.891  54.917  1.00  0.00     0.020 A 
HETATM   13  C   UNL     1      28.861  45.564  55.961  1.00  0.00    -0.061 A 
HETATM   14  C   UNL     1      28.324  46.860  56.493  1.00  0.00     0.048 C 
HETATM   15  C   UNL     1      30.053  45.037  56.479  1.00  0.00     0.013 A 
HETATM   16  C   UNL     1      30.595  43.849  55.974  1.00  0.00    -0.061 A 
HETATM   17  C   UNL     1      29.947  43.204  54.913  1.00  0.00     0.020 A 
HETATM   18  C   UNL     1      31.880  43.308  56.525  1.00  0.00     0.048 C 
ENDBRANCH   9  11
ENDBRANCH   1   5
BRANCH   2  19
HETATM   19  C   UNL     1      24.076  42.759  49.099  1.00  0.00     0.080 A 
HETATM   20  C   UNL     1      23.463  43.823  48.364  1.00  0.00     0.104 A 
HETATM   21  N   UNL     1      22.901  43.369  47.231  1.00  0.00    -0.174 NA
HETATM   22  N   UNL     1      23.207  42.068  47.199  1.00  0.00    -0.288 N 
HETATM   23  H   UNL     1      22.896  41.519  46.402  1.00  0.00     0.188 HD
HETATM   24  C   UNL     1      23.910  41.653  48.283  1.00  0.00     0.128 A 
BRANCH  20  25
HETATM   25  C   UNL     1      23.385  45.246  48.679  1.00  0.00    -0.004 A 
HETATM   26  C   UNL     1      24.328  45.842  49.529  1.00  0.00     0.017 A 
HETATM   27  C   UNL     1      24.236  47.202  49.833  1.00  0.00     0.043 A 
HETATM   28  C   UNL     1      23.209  47.960  49.281  1.00  0.00     0.116 A 
HETATM   29  F   UNL     1      23.123  49.265  49.576  1.00  0.00    -0.206 F 
HETATM   30  C   UNL     1      22.274  47.388  48.428  1.00  0.00     0.043 A 
HETATM   31  C   UNL     1      22.364  46.030  48.121  1.00  0.00     0.017 A 
ENDBRANCH  20  25
ENDBRANCH   2  19
TORSDOF 4
ENDMDL
MODEL 10
REMARK VINA RESULT:      -8.8      4.211      7.987
REMARK  4 active torsions:
REMARK  status: ('A' for Active; 'I' for Inactive)
REMARK    1  A    between atoms: C_4  and  C_5 
REMARK    2  A    between atoms: C_9  and  N_10 
REMARK       I    between atoms: N_10  and  C_11 
REMARK    3  A    between atoms: C_11  and  C_12 
REMARK    4  A    between atoms: C_13  and  C_14 
ROOT
HETATM    1  N   UNL     1      26.916  41.459  51.791  1.00  0.00    -0.308 N 
HETATM    2  C   UNL     1      27.342  42.776  51.750  1.00  0.00     0.261 C 
HETATM    3  O   UNL     1      28.204  43.179  50.970  1.00  0.00    -0.267 OA
HETATM    4  H   UNL     1      26.170  41.180  52.413  1.00  0.00     0.170 HD
ENDROOT
BRANCH   1   5
HETATM    5  C   UNL     1      27.403  40.504  50.918  1.00  0.00     0.126 A 
HETATM    6  N   UNL     1      28.730  40.309  50.639  1.00  0.00    -0.262 N 
HETATM    7  N   UNL     1      28.950  39.386  49.689  1.00  0.00    -0.173 NA
HETATM    8  H   UNL     1      29.516  40.810  51.044  1.00  0.00     0.191 HD
HETATM    9  C   UNL     1      27.726  38.929  49.380  1.00  0.00     0.090 A 
HETATM   10  C   UNL     1      26.726  39.595  50.142  1.00  0.00     0.084 A 
BRANCH   9  11
HETATM   11  C   UNL     1      27.526  37.914  48.351  1.00  0.00    -0.005 A 
HETATM   12  C   UNL     1      26.342  37.168  48.303  1.00  0.00     0.020 A 
HETATM   13  C   UNL     1      26.146  36.207  47.301  1.00  0.00    -0.061 A 
HETATM   14  C   UNL     1      24.907  35.363  47.275  1.00  0.00     0.048 C 
HETATM   15  C   UNL     1      27.148  36.006  46.341  1.00  0.00     0.013 A 
HETATM   16  C   UNL     1      28.331  36.754  46.366  1.00  0.00    -0.061 A 
HETATM   17  C   UNL     1      28.520  37.692  47.390  1.00  0.00     0.020 A 
HETATM   18  C   UNL     1      29.402  36.515  45.344  1.00  0.00     0.048 C 
ENDBRANCH   9  11
ENDBRANCH   1   5
BRANCH   2  19
HETATM   19  C   UNL     1      26.663  43.693  52.658  1.00  0.00     0.080 A 
HETATM   20  C   UNL     1      27.050  44.314  53.888  1.00  0.00     0.104 A 
HETATM   21  N   UNL     1      26.041  45.034  54.407  1.00  0.00    -0.174 NA
HETATM   22  N   UNL     1      25.059  44.942  53.503  1.00  0.00    -0.288 N 
HETATM   23  H   UNL     1      24.191  45.439  53.682  1.00  0.00     0.188 HD
HETATM   24  C   UNL     1      25.377  44.160  52.441  1.00  0.00     0.128 A 
BRANCH  20  25
HETATM   25  C   UNL     1      28.326  44.264  54.593  1.00  0.00    -0.004 A 
HETATM   26  C   UNL     1      28.743  45.337  55.394  1.00  0.00     0.017 A 
HETATM   27  C   UNL     1      29.972  45.282  56.054  1.00  0.00     0.043 A 
HETATM   28  C   UNL     1      30.775  44.155  55.918  1.00  0.00     0.116 A 
HETATM   29  F   UNL     1      31.955  44.107  56.551  1.00  0.00    -0.206 F 
HETATM   30  C   UNL     1      30.373  43.078  55.137  1.00  0.00     0.043 A 
HETATM   31  C   UNL     1      29.144  43.129  54.477  1.00  0.00     0.017 A 
ENDBRANCH  20  25
ENDBRANCH   2  19
TORSDOF 4
ENDMDL
