MODEL 1
REMARK VINA RESULT:      -8.4      0.000      0.000
REMARK  2 active torsions:
REMARK  status: ('A' for Active; 'I' for Inactive)
REMARK    1  A    between atoms: C_9  and  C_11 
REMARK    2  A    between atoms: C_9  and  O_10 
ROOT
HETATM    1  C   UNL     1      32.656  51.924  44.731  1.00  0.00     0.048 C 
HETATM    2  C   UNL     1      32.682  51.573  43.272  1.00  0.00    -0.061 A 
HETATM    3  C   UNL     1      31.549  51.779  42.471  1.00  0.00     0.020 A 
HETATM    4  C   UNL     1      31.603  51.412  41.132  1.00  0.00     0.018 A 
HETATM    5  C   UNL     1      32.772  50.866  40.601  1.00  0.00     0.045 A 
HETATM    6  N   UNL     1      32.610  50.599  39.250  1.00  0.00    -0.323 N 
HETATM    7  C   UNL     1      31.329  50.940  38.808  1.00  0.00     0.266 A 
HETATM    8  O   UNL     1      30.950  50.818  37.653  1.00  0.00    -0.269 OA
HETATM    9  C   UNL     1      30.558  51.538  40.042  1.00  0.00     0.199 A 
HETATM   10  C   UNL     1      33.900  50.648  41.360  1.00  0.00     0.031 A 
HETATM   11  C   UNL     1      33.847  51.003  42.711  1.00  0.00     0.009 A 
HETATM   12  H   UNL     1      33.306  50.202  38.637  1.00  0.00     0.169 HD
ENDROOT
BRANCH   9  13
HETATM   13  C   UNL     1      29.371  50.710  40.493  1.00  0.00     0.025 A 
HETATM   14  C   UNL     1      29.258  49.271  40.387  1.00  0.00     0.003 A 
HETATM   15  C   UNL     1      28.003  48.903  40.871  1.00  0.00     0.043 A 
HETATM   16  C   UNL     1      30.101  48.243  39.909  1.00  0.00     0.014 A 
HETATM   17  C   UNL     1      27.551  47.577  40.899  1.00  0.00     0.030 A 
HETATM   18  N   UNL     1      27.377  50.051  41.278  1.00  0.00    -0.359 N 
HETATM   19  C   UNL     1      28.407  46.586  40.417  1.00  0.00     0.002 A 
HETATM   20  C   UNL     1      29.669  46.912  39.930  1.00  0.00     0.001 A 
HETATM   21  H   UNL     1      26.451  50.077  41.681  1.00  0.00     0.166 HD
HETATM   22  C   UNL     1      28.166  51.150  41.045  1.00  0.00     0.016 A 
HETATM   23  C   UNL     1      27.661  52.510  41.381  1.00  0.00     0.069 C 
ENDBRANCH   9  13
BRANCH   9  24
HETATM   24  O   UNL     1      30.262  52.914  39.822  1.00  0.00    -0.371 OA
HETATM   25  H   UNL     1      31.096  53.335  39.557  1.00  0.00     0.212 HD
ENDBRANCH   9  24
TORSDOF 2
ENDMDL
MODEL 2
REMARK VINA RESULT:      -7.8      1.757      5.145
REMARK  2 active torsions:
REMARK  status: ('A' for Active; 'I' for Inactive)
REMARK    1  A    between atoms: C_9  and  C_11 
REMARK    2  A    between atoms: C_9  and  O_10 
ROOT
HETATM    1  C   UNL     1      27.276  46.510  41.299  1.00  0.00     0.048 C 
HETATM    2  C   UNL     1      27.222  47.762  40.472  1.00  0.00    -0.061 A 
HETATM    3  C   UNL     1      28.381  48.522  40.255  1.00  0.00     0.020 A 
HETATM    4  C   UNL     1      28.283  49.690  39.511  1.00  0.00     0.018 A 
HETATM    5  C   UNL     1      27.055  50.083  38.980  1.00  0.00     0.045 A 
HETATM    6  N   UNL     1      27.193  51.259  38.258  1.00  0.00    -0.323 N 
HETATM    7  C   UNL     1      28.512  51.719  38.274  1.00  0.00     0.266 A 
HETATM    8  O   UNL     1      28.892  52.725  37.693  1.00  0.00    -0.269 OA
HETATM    9  C   UNL     1      29.355  50.681  39.103  1.00  0.00     0.199 A 
HETATM   10  C   UNL     1      25.897  49.363  39.177  1.00  0.00     0.031 A 
HETATM   11  C   UNL     1      25.987  48.193  39.936  1.00  0.00     0.009 A 
HETATM   12  H   UNL     1      26.454  51.749  37.777  1.00  0.00     0.169 HD
ENDROOT
BRANCH   9  13
HETATM   13  C   UNL     1      29.933  51.237  40.389  1.00  0.00     0.025 A 
HETATM   14  C   UNL     1      31.247  50.943  40.919  1.00  0.00     0.003 A 
HETATM   15  C   UNL     1      31.380  51.613  42.134  1.00  0.00     0.043 A 
HETATM   16  C   UNL     1      32.337  50.154  40.486  1.00  0.00     0.014 A 
HETATM   17  C   UNL     1      32.529  51.535  42.933  1.00  0.00     0.030 A 
HETATM   18  N   UNL     1      30.217  52.306  42.339  1.00  0.00    -0.359 N 
HETATM   19  C   UNL     1      33.585  50.744  42.478  1.00  0.00     0.002 A 
HETATM   20  C   UNL     1      33.494  50.063  41.269  1.00  0.00     0.001 A 
HETATM   21  H   UNL     1      30.041  52.890  43.145  1.00  0.00     0.166 HD
HETATM   22  C   UNL     1      29.325  52.084  41.319  1.00  0.00     0.016 A 
HETATM   23  C   UNL     1      27.979  52.716  41.360  1.00  0.00     0.069 C 
ENDBRANCH   9  13
BRANCH   9  24
HETATM   24  O   UNL     1      30.307  50.034  38.265  1.00  0.00    -0.371 OA
HETATM   25  H   UNL     1      29.951  50.073  37.363  1.00  0.00     0.212 HD
ENDBRANCH   9  24
TORSDOF 2
ENDMDL
MODEL 3
REMARK VINA RESULT:      -7.6      2.585      4.429
REMARK  2 active torsions:
REMARK  status: ('A' for Active; 'I' for Inactive)
REMARK    1  A    between atoms: C_9  and  C_11 
REMARK    2  A    between atoms: C_9  and  O_10 
ROOT
HETATM    1  C   UNL     1      36.170  52.071  39.137  1.00  0.00     0.048 C 
HETATM    2  C   UNL     1      35.301  51.573  40.256  1.00  0.00    -0.061 A 
HETATM    3  C   UNL     1      34.265  50.663  40.001  1.00  0.00     0.020 A 
HETATM    4  C   UNL     1      33.464  50.250  41.058  1.00  0.00     0.018 A 
HETATM    5  C   UNL     1      33.705  50.725  42.347  1.00  0.00     0.045 A 
HETATM    6  N   UNL     1      32.806  50.167  43.244  1.00  0.00    -0.323 N 
HETATM    7  C   UNL     1      31.915  49.301  42.606  1.00  0.00     0.266 A 
HETATM    8  O   UNL     1      31.041  48.672  43.185  1.00  0.00    -0.269 OA
HETATM    9  C   UNL     1      32.306  49.273  41.083  1.00  0.00     0.199 A 
HETATM   10  C   UNL     1      34.711  51.622  42.632  1.00  0.00     0.031 A 
HETATM   11  C   UNL     1      35.512  52.050  41.569  1.00  0.00     0.009 A 
HETATM   12  H   UNL     1      32.770  50.348  44.236  1.00  0.00     0.169 HD
ENDROOT
BRANCH   9  13
HETATM   13  C   UNL     1      31.248  49.843  40.160  1.00  0.00     0.025 A 
HETATM   14  C   UNL     1      30.752  51.203  40.183  1.00  0.00     0.003 A 
HETATM   15  C   UNL     1      29.761  51.315  39.209  1.00  0.00     0.043 A 
HETATM   16  C   UNL     1      31.043  52.351  40.955  1.00  0.00     0.014 A 
HETATM   17  C   UNL     1      29.051  52.500  38.970  1.00  0.00     0.030 A 
HETATM   18  N   UNL     1      29.661  50.095  38.595  1.00  0.00    -0.359 N 
HETATM   19  C   UNL     1      29.360  53.614  39.752  1.00  0.00     0.002 A 
HETATM   20  C   UNL     1      30.345  53.544  40.731  1.00  0.00     0.001 A 
HETATM   21  H   UNL     1      29.022  49.893  37.840  1.00  0.00     0.166 HD
HETATM   22  C   UNL     1      30.527  49.190  39.157  1.00  0.00     0.016 A 
HETATM   23  C   UNL     1      30.556  47.786  38.663  1.00  0.00     0.069 C 
ENDBRANCH   9  13
BRANCH   9  24
HETATM   24  O   UNL     1      32.768  47.978  40.714  1.00  0.00    -0.371 OA
HETATM   25  H   UNL     1      32.270  47.724  39.919  1.00  0.00     0.212 HD
ENDBRANCH   9  24
TORSDOF 2
ENDMDL
MODEL 4
REMARK VINA RESULT:      -7.6      2.367      4.883
REMARK  2 active torsions:
REMARK  status: ('A' for Active; 'I' for Inactive)
REMARK    1  A    between atoms: C_9  and  C_11 
REMARK    2  A    between atoms: C_9  and  O_10 
ROOT
HETATM    1  C   UNL     1      26.725  47.406  41.208  1.00  0.00     0.048 C 
HETATM    2  C   UNL     1      28.199  47.509  40.940  1.00  0.00    -0.061 A 
HETATM    3  C   UNL     1      29.000  48.378  41.697  1.00  0.00     0.020 A 
HETATM    4  C   UNL     1      30.352  48.469  41.398  1.00  0.00     0.018 A 
HETATM    5  C   UNL     1      30.898  47.694  40.374  1.00  0.00     0.045 A 
HETATM    6  N   UNL     1      32.261  47.925  40.266  1.00  0.00    -0.323 N 
HETATM    7  C   UNL     1      32.698  48.868  41.200  1.00  0.00     0.266 A 
HETATM    8  O   UNL     1      33.861  49.225  41.317  1.00  0.00    -0.269 OA
HETATM    9  C   UNL     1      31.445  49.291  42.052  1.00  0.00     0.199 A 
HETATM   10  C   UNL     1      30.140  46.834  39.609  1.00  0.00     0.031 A 
HETATM   11  C   UNL     1      28.775  46.750  39.898  1.00  0.00     0.009 A 
HETATM   12  H   UNL     1      32.885  47.490  39.603  1.00  0.00     0.169 HD
ENDROOT
BRANCH   9  13
HETATM   13  C   UNL     1      31.042  50.742  41.887  1.00  0.00     0.025 A 
HETATM   14  C   UNL     1      30.321  51.294  40.759  1.00  0.00     0.003 A 
HETATM   15  C   UNL     1      30.185  52.666  40.967  1.00  0.00     0.043 A 
HETATM   16  C   UNL     1      29.783  50.757  39.568  1.00  0.00     0.014 A 
HETATM   17  C   UNL     1      29.549  53.520  40.057  1.00  0.00     0.030 A 
HETATM   18  N   UNL     1      30.770  52.950  42.172  1.00  0.00    -0.359 N 
HETATM   19  C   UNL     1      29.031  52.958  38.889  1.00  0.00     0.002 A 
HETATM   20  C   UNL     1      29.143  51.594  38.646  1.00  0.00     0.001 A 
HETATM   21  H   UNL     1      30.809  53.874  42.578  1.00  0.00     0.166 HD
HETATM   22  C   UNL     1      31.308  51.819  42.736  1.00  0.00     0.016 A 
HETATM   23  C   UNL     1      32.027  51.909  44.036  1.00  0.00     0.069 C 
ENDBRANCH   9  13
BRANCH   9  24
HETATM   24  O   UNL     1      31.605  48.878  43.406  1.00  0.00    -0.371 OA
HETATM   25  H   UNL     1      30.748  48.516  43.686  1.00  0.00     0.212 HD
ENDBRANCH   9  24
TORSDOF 2
ENDMDL
MODEL 5
REMARK VINA RESULT:      -7.5      2.207      3.403
REMARK  2 active torsions:
REMARK  status: ('A' for Active; 'I' for Inactive)
REMARK    1  A    between atoms: C_9  and  C_11 
REMARK    2  A    between atoms: C_9  and  O_10 
ROOT
HETATM    1  C   UNL     1      31.748  51.965  43.355  1.00  0.00     0.048 C 
HETATM    2  C   UNL     1      30.867  52.137  42.151  1.00  0.00    -0.061 A 
HETATM    3  C   UNL     1      30.027  51.094  41.731  1.00  0.00     0.020 A 
HETATM    4  C   UNL     1      29.250  51.281  40.595  1.00  0.00     0.018 A 
HETATM    5  C   UNL     1      29.299  52.491  39.902  1.00  0.00     0.045 A 
HETATM    6  N   UNL     1      28.430  52.466  38.822  1.00  0.00    -0.323 N 
HETATM    7  C   UNL     1      27.764  51.241  38.728  1.00  0.00     0.266 A 
HETATM    8  O   UNL     1      26.931  50.981  37.871  1.00  0.00    -0.269 OA
HETATM    9  C   UNL     1      28.249  50.355  39.933  1.00  0.00     0.199 A 
HETATM   10  C   UNL     1      30.115  53.533  40.286  1.00  0.00     0.031 A 
HETATM   11  C   UNL     1      30.909  53.345  41.421  1.00  0.00     0.009 A 
HETATM   12  H   UNL     1      28.281  53.216  38.164  1.00  0.00     0.169 HD
ENDROOT
BRANCH   9  13
HETATM   13  C   UNL     1      29.022  49.118  39.522  1.00  0.00     0.025 A 
HETATM   14  C   UNL     1      28.582  47.750  39.703  1.00  0.00     0.003 A 
HETATM   15  C   UNL     1      29.591  46.910  39.235  1.00  0.00     0.043 A 
HETATM   16  C   UNL     1      27.423  47.144  40.238  1.00  0.00     0.014 A 
HETATM   17  C   UNL     1      29.505  45.512  39.275  1.00  0.00     0.030 A 
HETATM   18  N   UNL     1      30.597  47.712  38.766  1.00  0.00    -0.359 N 
HETATM   19  C   UNL     1      28.348  44.946  39.812  1.00  0.00     0.002 A 
HETATM   20  C   UNL     1      27.317  45.750  40.286  1.00  0.00     0.001 A 
HETATM   21  H   UNL     1      31.454  47.365  38.359  1.00  0.00     0.166 HD
HETATM   22  C   UNL     1      30.291  49.039  38.943  1.00  0.00     0.016 A 
HETATM   23  C   UNL     1      31.266  50.086  38.533  1.00  0.00     0.069 C 
ENDBRANCH   9  13
BRANCH   9  24
HETATM   24  O   UNL     1      27.171  50.101  40.828  1.00  0.00    -0.371 OA
HETATM   25  H   UNL     1      26.355  50.274  40.330  1.00  0.00     0.212 HD
ENDBRANCH   9  24
TORSDOF 2
ENDMDL
MODEL 6
REMARK VINA RESULT:      -7.5      1.565      5.486
REMARK  2 active torsions:
REMARK  status: ('A' for Active; 'I' for Inactive)
REMARK    1  A    between atoms: C_9  and  C_11 
REMARK    2  A    between atoms: C_9  and  O_10 
ROOT
HETATM    1  C   UNL     1      29.421  45.607  38.079  1.00  0.00     0.048 C 
HETATM    2  C   UNL     1      28.856  46.590  39.065  1.00  0.00    -0.061 A 
HETATM    3  C   UNL     1      29.016  47.969  38.864  1.00  0.00     0.020 A 
HETATM    4  C   UNL     1      28.506  48.844  39.814  1.00  0.00     0.018 A 
HETATM    5  C   UNL     1      27.836  48.352  40.934  1.00  0.00     0.045 A 
HETATM    6  N   UNL     1      27.394  49.396  41.732  1.00  0.00    -0.323 N 
HETATM    7  C   UNL     1      27.750  50.637  41.198  1.00  0.00     0.266 A 
HETATM    8  O   UNL     1      27.457  51.709  41.706  1.00  0.00    -0.269 OA
HETATM    9  C   UNL     1      28.509  50.360  39.848  1.00  0.00     0.199 A 
HETATM   10  C   UNL     1      27.665  47.004  41.163  1.00  0.00     0.031 A 
HETATM   11  C   UNL     1      28.188  46.119  40.216  1.00  0.00     0.009 A 
HETATM   12  H   UNL     1      26.884  49.305  42.598  1.00  0.00     0.169 HD
ENDROOT
BRANCH   9  13
HETATM   13  C   UNL     1      29.965  50.782  39.856  1.00  0.00     0.025 A 
HETATM   14  C   UNL     1      30.882  50.626  40.965  1.00  0.00     0.003 A 
HETATM   15  C   UNL     1      32.106  51.176  40.590  1.00  0.00     0.043 A 
HETATM   16  C   UNL     1      30.783  50.079  42.264  1.00  0.00     0.014 A 
HETATM   17  C   UNL     1      33.223  51.211  41.435  1.00  0.00     0.030 A 
HETATM   18  N   UNL     1      31.966  51.631  39.305  1.00  0.00    -0.359 N 
HETATM   19  C   UNL     1      33.090  50.666  42.713  1.00  0.00     0.002 A 
HETATM   20  C   UNL     1      31.886  50.104  43.124  1.00  0.00     0.001 A 
HETATM   21  H   UNL     1      32.706  52.072  38.778  1.00  0.00     0.166 HD
HETATM   22  C   UNL     1      30.687  51.425  38.848  1.00  0.00     0.016 A 
HETATM   23  C   UNL     1      30.306  51.879  37.483  1.00  0.00     0.069 C 
ENDBRANCH   9  13
BRANCH   9  24
HETATM   24  O   UNL     1      27.760  50.862  38.746  1.00  0.00    -0.371 OA
HETATM   25  H   UNL     1      28.251  50.615  37.945  1.00  0.00     0.212 HD
ENDBRANCH   9  24
TORSDOF 2
ENDMDL
MODEL 7
REMARK VINA RESULT:      -7.3      2.395      3.368
REMARK  2 active torsions:
REMARK  status: ('A' for Active; 'I' for Inactive)
REMARK    1  A    between atoms: C_9  and  C_11 
REMARK    2  A    between atoms: C_9  and  O_10 
ROOT
HETATM    1  C   UNL     1      32.816  47.845  41.644  1.00  0.00     0.048 C 
HETATM    2  C   UNL     1      31.929  49.056  41.671  1.00  0.00    -0.061 A 
HETATM    3  C   UNL     1      30.543  48.927  41.494  1.00  0.00     0.020 A 
HETATM    4  C   UNL     1      29.761  50.074  41.493  1.00  0.00     0.018 A 
HETATM    5  C   UNL     1      30.350  51.325  41.682  1.00  0.00     0.045 A 
HETATM    6  N   UNL     1      29.385  52.321  41.670  1.00  0.00    -0.323 N 
HETATM    7  C   UNL     1      28.107  51.795  41.463  1.00  0.00     0.266 A 
HETATM    8  O   UNL     1      27.088  52.470  41.431  1.00  0.00    -0.269 OA
HETATM    9  C   UNL     1      28.261  50.234  41.351  1.00  0.00     0.199 A 
HETATM   10  C   UNL     1      31.707  51.487  41.855  1.00  0.00     0.031 A 
HETATM   11  C   UNL     1      32.500  50.337  41.843  1.00  0.00     0.009 A 
HETATM   12  H   UNL     1      29.552  53.309  41.784  1.00  0.00     0.169 HD
ENDROOT
BRANCH   9  13
HETATM   13  C   UNL     1      27.900  49.670  39.992  1.00  0.00     0.025 A 
HETATM   14  C   UNL     1      27.499  48.305  39.724  1.00  0.00     0.003 A 
HETATM   15  C   UNL     1      27.297  48.178  38.351  1.00  0.00     0.043 A 
HETATM   16  C   UNL     1      27.304  47.155  40.522  1.00  0.00     0.014 A 
HETATM   17  C   UNL     1      26.916  46.976  37.739  1.00  0.00     0.030 A 
HETATM   18  N   UNL     1      27.536  49.407  37.795  1.00  0.00    -0.359 N 
HETATM   19  C   UNL     1      26.735  45.859  38.555  1.00  0.00     0.002 A 
HETATM   20  C   UNL     1      26.923  45.945  39.930  1.00  0.00     0.001 A 
HETATM   21  H   UNL     1      27.455  49.606  36.808  1.00  0.00     0.166 HD
HETATM   22  C   UNL     1      27.918  50.314  38.752  1.00  0.00     0.016 A 
HETATM   23  C   UNL     1      28.262  51.707  38.358  1.00  0.00     0.069 C 
ENDBRANCH   9  13
BRANCH   9  24
HETATM   24  O   UNL     1      27.608  49.592  42.443  1.00  0.00    -0.371 OA
HETATM   25  H   UNL     1      26.656  49.626  42.253  1.00  0.00     0.212 HD
ENDBRANCH   9  24
TORSDOF 2
ENDMDL
MODEL 8
REMARK VINA RESULT:      -7.3     25.366     26.538
REMARK  2 active torsions:
REMARK  status: ('A' for Active; 'I' for Inactive)
REMARK    1  A    between atoms: C_9  and  C_11 
REMARK    2  A    between atoms: C_9  and  O_10 
ROOT
HETATM    1  C   UNL     1      34.623  43.516  65.818  1.00  0.00     0.048 C 
HETATM    2  C   UNL     1      35.842  44.372  65.626  1.00  0.00    -0.061 A 
HETATM    3  C   UNL     1      36.913  43.919  64.841  1.00  0.00     0.020 A 
HETATM    4  C   UNL     1      38.035  44.728  64.714  1.00  0.00     0.018 A 
HETATM    5  C   UNL     1      38.079  45.971  65.345  1.00  0.00     0.045 A 
HETATM    6  N   UNL     1      39.275  46.614  65.065  1.00  0.00    -0.323 N 
HETATM    7  C   UNL     1      40.096  45.837  64.244  1.00  0.00     0.266 A 
HETATM    8  O   UNL     1      41.193  46.193  63.841  1.00  0.00    -0.269 OA
HETATM    9  C   UNL     1      39.310  44.512  63.925  1.00  0.00     0.199 A 
HETATM   10  C   UNL     1      37.047  46.444  66.125  1.00  0.00     0.031 A 
HETATM   11  C   UNL     1      35.920  45.629  66.267  1.00  0.00     0.009 A 
HETATM   12  H   UNL     1      39.551  47.524  65.401  1.00  0.00     0.169 HD
ENDROOT
BRANCH   9  13
HETATM   13  C   UNL     1      39.952  43.259  64.487  1.00  0.00     0.025 A 
HETATM   14  C   UNL     1      39.863  41.934  63.910  1.00  0.00     0.003 A 
HETATM   15  C   UNL     1      40.550  41.055  64.746  1.00  0.00     0.043 A 
HETATM   16  C   UNL     1      39.249  41.394  62.758  1.00  0.00     0.014 A 
HETATM   17  C   UNL     1      40.651  39.680  64.497  1.00  0.00     0.030 A 
HETATM   18  N   UNL     1      41.059  41.798  65.778  1.00  0.00    -0.359 N 
HETATM   19  C   UNL     1      40.029  39.179  63.352  1.00  0.00     0.002 A 
HETATM   20  C   UNL     1      39.338  40.023  62.490  1.00  0.00     0.001 A 
HETATM   21  H   UNL     1      41.611  41.414  66.532  1.00  0.00     0.166 HD
HETATM   22  C   UNL     1      40.700  43.118  65.658  1.00  0.00     0.016 A 
HETATM   23  C   UNL     1      41.119  44.098  66.697  1.00  0.00     0.069 C 
ENDBRANCH   9  13
BRANCH   9  24
HETATM   24  O   UNL     1      39.004  44.439  62.536  1.00  0.00    -0.371 OA
HETATM   25  H   UNL     1      39.598  43.770  62.158  1.00  0.00     0.212 HD
ENDBRANCH   9  24
TORSDOF 2
ENDMDL
MODEL 9
REMARK VINA RESULT:      -7.2     11.373     14.158
REMARK  2 active torsions:
REMARK  status: ('A' for Active; 'I' for Inactive)
REMARK    1  A    between atoms: C_9  and  C_11 
REMARK    2  A    between atoms: C_9  and  O_10 
ROOT
HETATM    1  C   UNL     1      18.657  50.357  43.257  1.00  0.00     0.048 C 
HETATM    2  C   UNL     1      18.019  50.556  44.602  1.00  0.00    -0.061 A 
HETATM    3  C   UNL     1      18.810  50.787  45.737  1.00  0.00     0.020 A 
HETATM    4  C   UNL     1      18.184  50.935  46.967  1.00  0.00     0.018 A 
HETATM    5  C   UNL     1      16.794  50.870  47.060  1.00  0.00     0.045 A 
HETATM    6  N   UNL     1      16.385  51.068  48.370  1.00  0.00    -0.323 N 
HETATM    7  C   UNL     1      17.474  51.265  49.223  1.00  0.00     0.266 A 
HETATM    8  O   UNL     1      17.373  51.480  50.422  1.00  0.00    -0.269 OA
HETATM    9  C   UNL     1      18.773  51.214  48.336  1.00  0.00     0.199 A 
HETATM   10  C   UNL     1      15.988  50.641  45.966  1.00  0.00     0.031 A 
HETATM   11  C   UNL     1      16.614  50.478  44.727  1.00  0.00     0.009 A 
HETATM   12  H   UNL     1      15.432  51.067  48.700  1.00  0.00     0.169 HD
ENDROOT
BRANCH   9  13
HETATM   13  C   UNL     1      19.692  50.050  48.649  1.00  0.00     0.025 A 
HETATM   14  C   UNL     1      21.132  50.050  48.500  1.00  0.00     0.003 A 
HETATM   15  C   UNL     1      21.599  48.784  48.848  1.00  0.00     0.043 A 
HETATM   16  C   UNL     1      22.086  51.007  48.085  1.00  0.00     0.014 A 
HETATM   17  C   UNL     1      22.954  48.426  48.802  1.00  0.00     0.030 A 
HETATM   18  N   UNL     1      20.510  48.041  49.217  1.00  0.00    -0.359 N 
HETATM   19  C   UNL     1      23.869  49.394  48.385  1.00  0.00     0.002 A 
HETATM   20  C   UNL     1      23.443  50.670  48.032  1.00  0.00     0.001 A 
HETATM   21  H   UNL     1      20.559  47.081  49.527  1.00  0.00     0.166 HD
HETATM   22  C   UNL     1      19.352  48.769  49.089  1.00  0.00     0.016 A 
HETATM   23  C   UNL     1      18.041  48.139  49.404  1.00  0.00     0.069 C 
ENDBRANCH   9  13
BRANCH   9  24
HETATM   24  O   UNL     1      19.417  52.483  48.328  1.00  0.00    -0.371 OA
HETATM   25  H   UNL     1      19.706  52.651  49.240  1.00  0.00     0.212 HD
ENDBRANCH   9  24
TORSDOF 2
ENDMDL
MODEL 10
REMARK VINA RESULT:      -7.0      2.837      4.747
REMARK  2 active torsions:
REMARK  status: ('A' for Active; 'I' for Inactive)
REMARK    1  A    between atoms: C_9  and  C_11 
REMARK    2  A    between atoms: C_9  and  O_10 
ROOT
HETATM    1  C   UNL     1      29.543  45.189  39.271  1.00  0.00     0.048 C 
HETATM    2  C   UNL     1      29.761  46.604  39.724  1.00  0.00    -0.061 A 
HETATM    3  C   UNL     1      28.672  47.410  40.089  1.00  0.00     0.020 A 
HETATM    4  C   UNL     1      28.912  48.722  40.473  1.00  0.00     0.018 A 
HETATM    5  C   UNL     1      30.217  49.216  40.507  1.00  0.00     0.045 A 
HETATM    6  N   UNL     1      30.225  50.533  40.939  1.00  0.00    -0.323 N 
HETATM    7  C   UNL     1      28.933  50.994  41.207  1.00  0.00     0.266 A 
HETATM    8  O   UNL     1      28.680  52.116  41.620  1.00  0.00    -0.269 OA
HETATM    9  C   UNL     1      27.949  49.798  40.935  1.00  0.00     0.199 A 
HETATM   10  C   UNL     1      31.308  48.453  40.152  1.00  0.00     0.031 A 
HETATM   11  C   UNL     1      31.070  47.135  39.752  1.00  0.00     0.009 A 
HETATM   12  H   UNL     1      31.041  51.115  41.050  1.00  0.00     0.169 HD
ENDROOT
BRANCH   9  13
HETATM   13  C   UNL     1      26.990  50.032  39.784  1.00  0.00     0.025 A 
HETATM   14  C   UNL     1      25.738  49.336  39.575  1.00  0.00     0.003 A 
HETATM   15  C   UNL     1      25.178  49.809  38.390  1.00  0.00     0.043 A 
HETATM   16  C   UNL     1      25.032  48.334  40.277  1.00  0.00     0.014 A 
HETATM   17  C   UNL     1      23.964  49.336  37.872  1.00  0.00     0.030 A 
HETATM   18  N   UNL     1      26.026  50.765  37.898  1.00  0.00    -0.359 N 
HETATM   19  C   UNL     1      23.294  48.343  38.589  1.00  0.00     0.002 A 
HETATM   20  C   UNL     1      23.818  47.848  39.778  1.00  0.00     0.001 A 
HETATM   21  H   UNL     1      25.860  51.283  37.046  1.00  0.00     0.166 HD
HETATM   22  C   UNL     1      27.128  50.906  38.703  1.00  0.00     0.016 A 
HETATM   23  C   UNL     1      28.199  51.871  38.333  1.00  0.00     0.069 C 
ENDBRANCH   9  13
BRANCH   9  24
HETATM   24  O   UNL     1      27.321  49.387  42.145  1.00  0.00    -0.371 OA
HETATM   25  H   UNL     1      26.443  49.053  41.900  1.00  0.00     0.212 HD
ENDBRANCH   9  24
TORSDOF 2
ENDMDL
