MODEL 1
REMARK VINA RESULT:      -8.9      0.000      0.000
REMARK  8 active torsions:
REMARK  status: ('A' for Active; 'I' for Inactive)
REMARK    1  A    between atoms: C_4  and  C_5 
REMARK    2  A    between atoms: C_5  and  C_6 
REMARK    3  A    between atoms: C_6  and  C_7 
REMARK    4  A    between atoms: C_7  and  N_8 
REMARK    5  A    between atoms: C_17  and  C_18 
REMARK    6  A    between atoms: C_18  and  N_19 
REMARK    7  A    between atoms: C_23  and  O_24 
REMARK    8  A    between atoms: C_23  and  C_25 
ROOT
HETATM    1  N   UNL     1      26.277  46.368  54.116  1.00  0.00    -0.065 N 
HETATM    2  H   UNL     1      25.385  46.792  54.403  1.00  0.00     0.280 HD
HETATM    3  C   UNL     1      26.068  44.870  54.200  1.00  0.00     0.276 C 
HETATM    4  C   UNL     1      27.188  44.051  53.615  1.00  0.00     0.001 A 
HETATM    5  C   UNL     1      28.446  44.074  54.220  1.00  0.00     0.076 A 
HETATM    6  O   UNL     1      28.667  44.835  55.334  1.00  0.00    -0.349 OA
HETATM    7  C   UNL     1      28.673  46.236  55.015  1.00  0.00     0.203 C 
HETATM    8  C   UNL     1      27.278  46.855  55.168  1.00  0.00     0.261 C 
HETATM    9  C   UNL     1      27.014  43.271  52.457  1.00  0.00     0.020 A 
HETATM   10  C   UNL     1      28.082  42.527  51.915  1.00  0.00    -0.032 A 
HETATM   11  C   UNL     1      29.319  42.538  52.576  1.00  0.00     0.011 A 
HETATM   12  C   UNL     1      29.494  43.300  53.733  1.00  0.00     0.038 A 
ENDROOT
BRANCH  10  13
HETATM   13  C   UNL     1      27.911  41.764  50.622  1.00  0.00     0.273 C 
BRANCH  13  14
HETATM   14  N   UNL     1      27.801  40.257  50.757  1.00  0.00    -0.067 N 
HETATM   15  H   UNL     1      27.777  40.049  51.766  1.00  0.00     0.280 HD
HETATM   16  C   UNL     1      26.528  39.706  50.161  1.00  0.00     0.238 C 
HETATM   17  C   UNL     1      26.500  38.195  50.294  1.00  0.00     0.071 C 
HETATM   18  C   UNL     1      27.692  37.534  49.574  1.00  0.00     0.089 C 
HETATM   19  C   UNL     1      28.960  38.091  50.249  1.00  0.00     0.071 C 
HETATM   20  C   UNL     1      29.048  39.607  50.193  1.00  0.00     0.238 C 
BRANCH  18  21
HETATM   21  O   UNL     1      27.642  36.145  49.898  1.00  0.00    -0.385 OA
HETATM   22  H   UNL     1      27.793  35.606  49.099  1.00  0.00     0.211 HD
ENDBRANCH  18  21
BRANCH  18  23
HETATM   23  C   UNL     1      27.617  37.677  48.058  1.00  0.00    -0.006 A 
HETATM   24  C   UNL     1      26.435  37.949  47.371  1.00  0.00     0.126 A 
HETATM   25  N   UNL     1      26.321  37.996  46.026  1.00  0.00    -0.272 NA
HETATM   26  C   UNL     1      27.448  37.861  45.301  1.00  0.00     0.116 A 
HETATM   27  C   UNL     1      28.689  37.658  45.872  1.00  0.00     0.020 A 
HETATM   28  C   UNL     1      28.770  37.570  47.261  1.00  0.00     0.013 A 
ENDBRANCH  18  23
ENDBRANCH  13  14
ENDBRANCH  10  13
BRANCH   1  29
HETATM   29  C   UNL     1      26.570  46.921  52.726  1.00  0.00     0.236 C 
BRANCH  29  30
HETATM   30  C   UNL     1      25.341  46.807  51.818  1.00  0.00     0.039 C 
BRANCH  30  31
HETATM   31  C   UNL     1      25.659  46.591  50.324  1.00  0.00     0.040 C 
HETATM   32  C   UNL     1      26.883  45.697  50.104  1.00  0.00     0.017 C 
BRANCH  31  33
HETATM   33  C   UNL     1      25.789  47.874  49.582  1.00  0.00     0.057 A 
HETATM   34  O   UNL     1      24.634  48.486  49.194  1.00  0.00    -0.319 OA
HETATM   35  C   UNL     1      24.989  49.645  48.569  1.00  0.00     0.049 A 
HETATM   36  C   UNL     1      23.894  50.506  48.076  1.00  0.00     0.076 C 
HETATM   37  C   UNL     1      26.360  49.771  48.547  1.00  0.00     0.035 A 
HETATM   38  C   UNL     1      26.878  48.628  49.199  1.00  0.00     0.035 A 
ENDBRANCH  31  33
ENDBRANCH  30  31
ENDBRANCH  29  30
ENDBRANCH   1  29
TORSDOF 8
ENDMDL
MODEL 2
REMARK VINA RESULT:      -8.7      1.892      4.893
REMARK  8 active torsions:
REMARK  status: ('A' for Active; 'I' for Inactive)
REMARK    1  A    between atoms: C_4  and  C_5 
REMARK    2  A    between atoms: C_5  and  C_6 
REMARK    3  A    between atoms: C_6  and  C_7 
REMARK    4  A    between atoms: C_7  and  N_8 
REMARK    5  A    between atoms: C_17  and  C_18 
REMARK    6  A    between atoms: C_18  and  N_19 
REMARK    7  A    between atoms: C_23  and  O_24 
REMARK    8  A    between atoms: C_23  and  C_25 
ROOT
HETATM    1  N   UNL     1      26.024  46.474  50.636  1.00  0.00    -0.065 N 
HETATM    2  H   UNL     1      26.593  47.330  50.690  1.00  0.00     0.280 HD
HETATM    3  C   UNL     1      26.861  45.471  49.868  1.00  0.00     0.276 C 
HETATM    4  C   UNL     1      26.305  44.073  49.858  1.00  0.00     0.001 A 
HETATM    5  C   UNL     1      25.099  43.817  49.201  1.00  0.00     0.076 A 
HETATM    6  O   UNL     1      24.424  44.824  48.572  1.00  0.00    -0.349 OA
HETATM    7  C   UNL     1      23.840  45.731  49.520  1.00  0.00     0.203 C 
HETATM    8  C   UNL     1      24.785  46.896  49.842  1.00  0.00     0.261 C 
HETATM    9  C   UNL     1      26.953  43.008  50.510  1.00  0.00     0.020 A 
HETATM   10  C   UNL     1      26.404  41.710  50.505  1.00  0.00    -0.032 A 
HETATM   11  C   UNL     1      25.215  41.480  49.796  1.00  0.00     0.011 A 
HETATM   12  C   UNL     1      24.574  42.530  49.136  1.00  0.00     0.038 A 
ENDROOT
BRANCH  10  13
HETATM   13  C   UNL     1      27.059  40.593  51.283  1.00  0.00     0.273 C 
BRANCH  13  14
HETATM   14  N   UNL     1      27.653  39.471  50.451  1.00  0.00    -0.067 N 
HETATM   15  H   UNL     1      28.148  38.847  51.105  1.00  0.00     0.280 HD
HETATM   16  C   UNL     1      26.604  38.641  49.752  1.00  0.00     0.238 C 
HETATM   17  C   UNL     1      27.266  37.566  48.910  1.00  0.00     0.071 C 
HETATM   18  C   UNL     1      28.195  38.169  47.838  1.00  0.00     0.089 C 
HETATM   19  C   UNL     1      29.270  38.963  48.602  1.00  0.00     0.071 C 
HETATM   20  C   UNL     1      28.688  40.041  49.503  1.00  0.00     0.238 C 
BRANCH  18  21
HETATM   21  O   UNL     1      28.868  37.071  47.222  1.00  0.00    -0.385 OA
HETATM   22  H   UNL     1      29.697  37.375  46.804  1.00  0.00     0.211 HD
ENDBRANCH  18  21
BRANCH  18  23
HETATM   23  C   UNL     1      27.432  38.930  46.759  1.00  0.00    -0.006 A 
HETATM   24  C   UNL     1      26.205  38.512  46.247  1.00  0.00     0.126 A 
HETATM   25  N   UNL     1      25.548  39.116  45.234  1.00  0.00    -0.272 NA
HETATM   26  C   UNL     1      26.072  40.257  44.747  1.00  0.00     0.116 A 
HETATM   27  C   UNL     1      27.246  40.808  45.221  1.00  0.00     0.020 A 
HETATM   28  C   UNL     1      27.925  40.138  46.238  1.00  0.00     0.013 A 
ENDBRANCH  18  23
ENDBRANCH  13  14
ENDBRANCH  10  13
BRANCH   1  29
HETATM   29  C   UNL     1      25.700  46.101  52.078  1.00  0.00     0.236 C 
BRANCH  29  30
HETATM   30  C   UNL     1      26.340  47.088  53.060  1.00  0.00     0.039 C 
BRANCH  30  31
HETATM   31  C   UNL     1      26.799  46.466  54.395  1.00  0.00     0.040 C 
HETATM   32  C   UNL     1      27.889  47.289  55.085  1.00  0.00     0.017 C 
BRANCH  31  33
HETATM   33  C   UNL     1      27.211  45.044  54.245  1.00  0.00     0.057 A 
HETATM   34  O   UNL     1      28.433  44.809  53.690  1.00  0.00    -0.319 OA
HETATM   35  C   UNL     1      28.613  43.457  53.682  1.00  0.00     0.049 A 
HETATM   36  C   UNL     1      29.893  42.951  53.145  1.00  0.00     0.076 C 
HETATM   37  C   UNL     1      27.510  42.830  54.217  1.00  0.00     0.035 A 
HETATM   38  C   UNL     1      26.604  43.853  54.580  1.00  0.00     0.035 A 
ENDBRANCH  31  33
ENDBRANCH  30  31
ENDBRANCH  29  30
ENDBRANCH   1  29
TORSDOF 8
ENDMDL
MODEL 3
REMARK VINA RESULT:      -8.7      4.698      9.685
REMARK  8 active torsions:
REMARK  status: ('A' for Active; 'I' for Inactive)
REMARK    1  A    between atoms: C_4  and  C_5 
REMARK    2  A    between atoms: C_5  and  C_6 
REMARK    3  A    between atoms: C_6  and  C_7 
REMARK    4  A    between atoms: C_7  and  N_8 
REMARK    5  A    between atoms: C_17  and  C_18 
REMARK    6  A    between atoms: C_18  and  N_19 
REMARK    7  A    between atoms: C_23  and  O_24 
REMARK    8  A    between atoms: C_23  and  C_25 
ROOT
HETATM    1  N   UNL     1      25.627  47.005  50.076  1.00  0.00    -0.065 N 
HETATM    2  H   UNL     1      25.800  45.995  50.166  1.00  0.00     0.280 HD
HETATM    3  C   UNL     1      24.470  47.139  49.105  1.00  0.00     0.276 C 
HETATM    4  C   UNL     1      23.910  48.532  48.993  1.00  0.00     0.001 A 
HETATM    5  C   UNL     1      24.698  49.548  48.448  1.00  0.00     0.076 A 
HETATM    6  O   UNL     1      25.970  49.288  48.022  1.00  0.00    -0.349 OA
HETATM    7  C   UNL     1      26.852  49.048  49.130  1.00  0.00     0.203 C 
HETATM    8  C   UNL     1      26.926  47.556  49.480  1.00  0.00     0.261 C 
HETATM    9  C   UNL     1      22.615  48.853  49.438  1.00  0.00     0.020 A 
HETATM   10  C   UNL     1      22.118  50.168  49.341  1.00  0.00    -0.032 A 
HETATM   11  C   UNL     1      22.920  51.153  48.746  1.00  0.00     0.011 A 
HETATM   12  C   UNL     1      24.202  50.838  48.290  1.00  0.00     0.038 A 
ENDROOT
BRANCH  10  13
HETATM   13  C   UNL     1      20.761  50.523  49.903  1.00  0.00     0.273 C 
BRANCH  13  14
HETATM   14  N   UNL     1      19.574  49.867  49.222  1.00  0.00    -0.067 N 
HETATM   15  H   UNL     1      18.785  50.526  49.302  1.00  0.00     0.280 HD
HETATM   16  C   UNL     1      19.803  49.625  47.750  1.00  0.00     0.238 C 
HETATM   17  C   UNL     1      18.597  48.935  47.142  1.00  0.00     0.071 C 
HETATM   18  C   UNL     1      18.314  47.577  47.813  1.00  0.00     0.089 C 
HETATM   19  C   UNL     1      18.041  47.883  49.298  1.00  0.00     0.071 C 
HETATM   20  C   UNL     1      19.190  48.611  49.977  1.00  0.00     0.238 C 
BRANCH  18  21
HETATM   21  O   UNL     1      17.083  47.104  47.269  1.00  0.00    -0.385 OA
HETATM   22  H   UNL     1      17.231  46.715  46.385  1.00  0.00     0.211 HD
ENDBRANCH  18  21
BRANCH  18  23
HETATM   23  C   UNL     1      19.396  46.541  47.526  1.00  0.00    -0.006 A 
HETATM   24  C   UNL     1      19.340  45.226  47.986  1.00  0.00     0.126 A 
HETATM   25  N   UNL     1      20.320  44.312  47.821  1.00  0.00    -0.272 NA
HETATM   26  C   UNL     1      21.386  44.670  47.080  1.00  0.00     0.116 A 
HETATM   27  C   UNL     1      21.520  45.922  46.513  1.00  0.00     0.020 A 
HETATM   28  C   UNL     1      20.514  46.859  46.736  1.00  0.00     0.013 A 
ENDBRANCH  18  23
ENDBRANCH  13  14
ENDBRANCH  10  13
BRANCH   1  29
HETATM   29  C   UNL     1      25.369  47.510  51.490  1.00  0.00     0.236 C 
BRANCH  29  30
HETATM   30  C   UNL     1      25.347  46.353  52.494  1.00  0.00     0.039 C 
BRANCH  30  31
HETATM   31  C   UNL     1      26.090  45.083  52.033  1.00  0.00     0.040 C 
HETATM   32  C   UNL     1      25.149  43.895  51.812  1.00  0.00     0.017 C 
BRANCH  31  33
HETATM   33  C   UNL     1      27.210  44.721  52.944  1.00  0.00     0.057 A 
HETATM   34  O   UNL     1      28.135  43.840  52.468  1.00  0.00    -0.319 OA
HETATM   35  C   UNL     1      29.073  43.682  53.446  1.00  0.00     0.049 A 
HETATM   36  C   UNL     1      30.208  42.782  53.152  1.00  0.00     0.076 C 
HETATM   37  C   UNL     1      28.746  44.447  54.544  1.00  0.00     0.035 A 
HETATM   38  C   UNL     1      27.543  45.117  54.221  1.00  0.00     0.035 A 
ENDBRANCH  31  33
ENDBRANCH  30  31
ENDBRANCH  29  30
ENDBRANCH   1  29
TORSDOF 8
ENDMDL
MODEL 4
REMARK VINA RESULT:      -8.6      8.621     15.696
REMARK  8 active torsions:
REMARK  status: ('A' for Active; 'I' for Inactive)
REMARK    1  A    between atoms: C_4  and  C_5 
REMARK    2  A    between atoms: C_5  and  C_6 
REMARK    3  A    between atoms: C_6  and  C_7 
REMARK    4  A    between atoms: C_7  and  N_8 
REMARK    5  A    between atoms: C_17  and  C_18 
REMARK    6  A    between atoms: C_18  and  N_19 
REMARK    7  A    between atoms: C_23  and  O_24 
REMARK    8  A    between atoms: C_23  and  C_25 
ROOT
HETATM    1  N   UNL     1      20.124  47.805  49.233  1.00  0.00    -0.065 N 
HETATM    2  H   UNL     1      20.931  47.616  49.842  1.00  0.00     0.280 HD
HETATM    3  C   UNL     1      19.073  48.434  50.125  1.00  0.00     0.276 C 
HETATM    4  C   UNL     1      17.883  48.989  49.389  1.00  0.00     0.001 A 
HETATM    5  C   UNL     1      17.024  48.118  48.714  1.00  0.00     0.076 A 
HETATM    6  O   UNL     1      17.259  46.772  48.716  1.00  0.00    -0.349 OA
HETATM    7  C   UNL     1      18.402  46.441  47.912  1.00  0.00     0.203 C 
HETATM    8  C   UNL     1      19.690  46.419  48.746  1.00  0.00     0.261 C 
HETATM    9  C   UNL     1      17.613  50.368  49.341  1.00  0.00     0.020 A 
HETATM   10  C   UNL     1      16.503  50.868  48.629  1.00  0.00    -0.032 A 
HETATM   11  C   UNL     1      15.636  49.960  48.002  1.00  0.00     0.011 A 
HETATM   12  C   UNL     1      15.892  48.589  48.058  1.00  0.00     0.038 A 
ENDROOT
BRANCH  10  13
HETATM   13  C   UNL     1      16.272  52.356  48.507  1.00  0.00     0.273 C 
BRANCH  13  14
HETATM   14  N   UNL     1      14.887  52.841  48.890  1.00  0.00    -0.067 N 
HETATM   15  H   UNL     1      14.214  52.195  48.453  1.00  0.00     0.280 HD
HETATM   16  C   UNL     1      14.641  52.796  50.379  1.00  0.00     0.238 C 
HETATM   17  C   UNL     1      13.256  53.329  50.695  1.00  0.00     0.071 C 
HETATM   18  C   UNL     1      13.081  54.786  50.224  1.00  0.00     0.089 C 
HETATM   19  C   UNL     1      13.294  54.770  48.698  1.00  0.00     0.071 C 
HETATM   20  C   UNL     1      14.649  54.212  48.291  1.00  0.00     0.238 C 
BRANCH  18  21
HETATM   21  O   UNL     1      11.709  55.118  50.434  1.00  0.00    -0.385 OA
HETATM   22  H   UNL     1      11.558  55.358  51.368  1.00  0.00     0.211 HD
ENDBRANCH  18  21
BRANCH  18  23
HETATM   23  C   UNL     1      13.939  55.768  51.014  1.00  0.00    -0.006 A 
HETATM   24  C   UNL     1      14.637  56.822  50.427  1.00  0.00     0.126 A 
HETATM   25  N   UNL     1      15.471  57.654  51.086  1.00  0.00    -0.272 NA
HETATM   26  C   UNL     1      15.563  57.512  52.422  1.00  0.00     0.116 A 
HETATM   27  C   UNL     1      14.866  56.550  53.125  1.00  0.00     0.020 A 
HETATM   28  C   UNL     1      14.046  55.677  52.412  1.00  0.00     0.013 A 
ENDBRANCH  18  23
ENDBRANCH  13  14
ENDBRANCH  10  13
BRANCH   1  29
HETATM   29  C   UNL     1      20.653  48.685  48.107  1.00  0.00     0.236 C 
BRANCH  29  30
HETATM   30  C   UNL     1      22.156  48.473  47.900  1.00  0.00     0.039 C 
BRANCH  30  31
HETATM   31  C   UNL     1      23.061  49.403  48.731  1.00  0.00     0.040 C 
HETATM   32  C   UNL     1      23.359  50.727  48.020  1.00  0.00     0.017 C 
BRANCH  31  33
HETATM   33  C   UNL     1      24.315  48.732  49.167  1.00  0.00     0.057 A 
HETATM   34  O   UNL     1      25.490  49.334  48.828  1.00  0.00    -0.319 OA
HETATM   35  C   UNL     1      26.493  48.572  49.351  1.00  0.00     0.049 A 
HETATM   36  C   UNL     1      27.878  49.041  49.136  1.00  0.00     0.076 C 
HETATM   37  C   UNL     1      25.966  47.484  50.011  1.00  0.00     0.035 A 
HETATM   38  C   UNL     1      24.561  47.585  49.892  1.00  0.00     0.035 A 
ENDBRANCH  31  33
ENDBRANCH  30  31
ENDBRANCH  29  30
ENDBRANCH   1  29
TORSDOF 8
ENDMDL
MODEL 5
REMARK VINA RESULT:      -8.6      4.892     10.256
REMARK  8 active torsions:
REMARK  status: ('A' for Active; 'I' for Inactive)
REMARK    1  A    between atoms: C_4  and  C_5 
REMARK    2  A    between atoms: C_5  and  C_6 
REMARK    3  A    between atoms: C_6  and  C_7 
REMARK    4  A    between atoms: C_7  and  N_8 
REMARK    5  A    between atoms: C_17  and  C_18 
REMARK    6  A    between atoms: C_18  and  N_19 
REMARK    7  A    between atoms: C_23  and  O_24 
REMARK    8  A    between atoms: C_23  and  C_25 
ROOT
HETATM    1  N   UNL     1      24.447  42.866  50.672  1.00  0.00    -0.065 N 
HETATM    2  H   UNL     1      24.403  42.573  51.657  1.00  0.00     0.280 HD
HETATM    3  C   UNL     1      23.008  43.065  50.237  1.00  0.00     0.276 C 
HETATM    4  C   UNL     1      22.849  43.705  48.884  1.00  0.00     0.001 A 
HETATM    5  C   UNL     1      23.271  43.018  47.744  1.00  0.00     0.076 A 
HETATM    6  O   UNL     1      23.827  41.774  47.849  1.00  0.00    -0.349 OA
HETATM    7  C   UNL     1      25.140  41.837  48.429  1.00  0.00     0.203 C 
HETATM    8  C   UNL     1      25.091  41.677  49.954  1.00  0.00     0.261 C 
HETATM    9  C   UNL     1      22.303  44.992  48.728  1.00  0.00     0.020 A 
HETATM   10  C   UNL     1      22.181  45.581  47.453  1.00  0.00    -0.032 A 
HETATM   11  C   UNL     1      22.572  44.842  46.326  1.00  0.00     0.011 A 
HETATM   12  C   UNL     1      23.103  43.559  46.474  1.00  0.00     0.038 A 
ENDROOT
BRANCH  10  13
HETATM   13  C   UNL     1      21.677  46.997  47.303  1.00  0.00     0.273 C 
BRANCH  13  14
HETATM   14  N   UNL     1      21.035  47.602  48.537  1.00  0.00    -0.067 N 
HETATM   15  H   UNL     1      21.457  47.133  49.353  1.00  0.00     0.280 HD
HETATM   16  C   UNL     1      21.314  49.078  48.680  1.00  0.00     0.238 C 
HETATM   17  C   UNL     1      20.612  49.626  49.909  1.00  0.00     0.071 C 
HETATM   18  C   UNL     1      19.085  49.431  49.831  1.00  0.00     0.089 C 
HETATM   19  C   UNL     1      18.853  47.912  49.736  1.00  0.00     0.071 C 
HETATM   20  C   UNL     1      19.555  47.274  48.547  1.00  0.00     0.238 C 
BRANCH  18  21
HETATM   21  O   UNL     1      18.560  49.839  51.094  1.00  0.00    -0.385 OA
HETATM   22  H   UNL     1      17.958  49.156  51.446  1.00  0.00     0.211 HD
ENDBRANCH  18  21
BRANCH  18  23
HETATM   23  C   UNL     1      18.438  50.283  48.745  1.00  0.00    -0.006 A 
HETATM   24  C   UNL     1      17.365  49.848  47.967  1.00  0.00     0.126 A 
HETATM   25  N   UNL     1      16.826  50.543  46.943  1.00  0.00    -0.272 NA
HETATM   26  C   UNL     1      17.300  51.784  46.717  1.00  0.00     0.116 A 
HETATM   27  C   UNL     1      18.312  52.350  47.466  1.00  0.00     0.020 A 
HETATM   28  C   UNL     1      18.879  51.592  48.489  1.00  0.00     0.013 A 
ENDBRANCH  18  23
ENDBRANCH  13  14
ENDBRANCH  10  13
BRANCH   1  29
HETATM   29  C   UNL     1      25.325  44.112  50.649  1.00  0.00     0.236 C 
BRANCH  29  30
HETATM   30  C   UNL     1      24.946  45.074  51.780  1.00  0.00     0.039 C 
BRANCH  30  31
HETATM   31  C   UNL     1      25.830  46.334  51.881  1.00  0.00     0.040 C 
HETATM   32  C   UNL     1      25.726  47.020  53.246  1.00  0.00     0.017 C 
BRANCH  31  33
HETATM   33  C   UNL     1      25.574  47.295  50.774  1.00  0.00     0.057 A 
HETATM   34  O   UNL     1      26.632  48.035  50.340  1.00  0.00    -0.319 OA
HETATM   35  C   UNL     1      26.180  48.812  49.314  1.00  0.00     0.049 A 
HETATM   36  C   UNL     1      27.163  49.695  48.653  1.00  0.00     0.076 C 
HETATM   37  C   UNL     1      24.839  48.580  49.099  1.00  0.00     0.035 A 
HETATM   38  C   UNL     1      24.447  47.601  50.042  1.00  0.00     0.035 A 
ENDBRANCH  31  33
ENDBRANCH  30  31
ENDBRANCH  29  30
ENDBRANCH   1  29
TORSDOF 8
ENDMDL
MODEL 6
REMARK VINA RESULT:      -8.5      4.570     10.606
REMARK  8 active torsions:
REMARK  status: ('A' for Active; 'I' for Inactive)
REMARK    1  A    between atoms: C_4  and  C_5 
REMARK    2  A    between atoms: C_5  and  C_6 
REMARK    3  A    between atoms: C_6  and  C_7 
REMARK    4  A    between atoms: C_7  and  N_8 
REMARK    5  A    between atoms: C_17  and  C_18 
REMARK    6  A    between atoms: C_18  and  N_19 
REMARK    7  A    between atoms: C_23  and  O_24 
REMARK    8  A    between atoms: C_23  and  C_25 
ROOT
HETATM    1  N   UNL     1      25.465  42.817  50.806  1.00  0.00    -0.065 N 
HETATM    2  H   UNL     1      25.792  42.588  51.754  1.00  0.00     0.280 HD
HETATM    3  C   UNL     1      24.074  43.394  50.978  1.00  0.00     0.276 C 
HETATM    4  C   UNL     1      23.491  43.998  49.729  1.00  0.00     0.001 A 
HETATM    5  C   UNL     1      23.192  43.174  48.641  1.00  0.00     0.076 A 
HETATM    6  O   UNL     1      23.428  41.829  48.704  1.00  0.00    -0.349 OA
HETATM    7  C   UNL     1      24.835  41.545  48.672  1.00  0.00     0.203 C 
HETATM    8  C   UNL     1      25.427  41.466  50.085  1.00  0.00     0.261 C 
HETATM    9  C   UNL     1      23.253  45.379  49.609  1.00  0.00     0.020 A 
HETATM   10  C   UNL     1      22.724  45.926  48.422  1.00  0.00    -0.032 A 
HETATM   11  C   UNL     1      22.392  45.062  47.368  1.00  0.00     0.011 A 
HETATM   12  C   UNL     1      22.615  43.688  47.485  1.00  0.00     0.038 A 
ENDROOT
BRANCH  10  13
HETATM   13  C   UNL     1      22.555  47.419  48.270  1.00  0.00     0.273 C 
BRANCH  13  14
HETATM   14  N   UNL     1      21.558  48.069  49.212  1.00  0.00    -0.067 N 
HETATM   15  H   UNL     1      21.838  47.808  50.168  1.00  0.00     0.280 HD
HETATM   16  C   UNL     1      21.579  49.577  49.139  1.00  0.00     0.238 C 
HETATM   17  C   UNL     1      20.534  50.158  50.073  1.00  0.00     0.071 C 
HETATM   18  C   UNL     1      19.114  49.680  49.714  1.00  0.00     0.089 C 
HETATM   19  C   UNL     1      19.133  48.146  49.850  1.00  0.00     0.071 C 
HETATM   20  C   UNL     1      20.181  47.483  48.971  1.00  0.00     0.238 C 
BRANCH  18  21
HETATM   21  O   UNL     1      18.251  50.163  50.744  1.00  0.00    -0.385 OA
HETATM   22  H   UNL     1      18.757  50.315  51.565  1.00  0.00     0.211 HD
ENDBRANCH  18  21
BRANCH  18  23
HETATM   23  C   UNL     1      18.626  50.234  48.380  1.00  0.00    -0.006 A 
HETATM   24  C   UNL     1      18.111  49.435  47.360  1.00  0.00     0.126 A 
HETATM   25  N   UNL     1      17.751  49.884  46.139  1.00  0.00    -0.272 NA
HETATM   26  C   UNL     1      17.808  51.212  45.924  1.00  0.00     0.116 A 
HETATM   27  C   UNL     1      18.234  52.111  46.881  1.00  0.00     0.020 A 
HETATM   28  C   UNL     1      18.641  51.614  48.118  1.00  0.00     0.013 A 
ENDBRANCH  18  23
ENDBRANCH  13  14
ENDBRANCH  10  13
BRANCH   1  29
HETATM   29  C   UNL     1      26.509  43.763  50.225  1.00  0.00     0.236 C 
BRANCH  29  30
HETATM   30  C   UNL     1      27.487  44.236  51.305  1.00  0.00     0.039 C 
BRANCH  30  31
HETATM   31  C   UNL     1      26.824  44.849  52.555  1.00  0.00     0.040 C 
HETATM   32  C   UNL     1      26.180  46.210  52.274  1.00  0.00     0.017 C 
BRANCH  31  33
HETATM   33  C   UNL     1      27.756  44.923  53.712  1.00  0.00     0.057 A 
HETATM   34  O   UNL     1      28.695  43.940  53.815  1.00  0.00    -0.319 OA
HETATM   35  C   UNL     1      29.449  44.225  54.915  1.00  0.00     0.049 A 
HETATM   36  C   UNL     1      30.563  43.304  55.224  1.00  0.00     0.076 C 
HETATM   37  C   UNL     1      28.992  45.375  55.519  1.00  0.00     0.035 A 
HETATM   38  C   UNL     1      27.898  45.826  54.744  1.00  0.00     0.035 A 
ENDBRANCH  31  33
ENDBRANCH  30  31
ENDBRANCH  29  30
ENDBRANCH   1  29
TORSDOF 8
ENDMDL
MODEL 7
REMARK VINA RESULT:      -8.3      4.477     10.447
REMARK  8 active torsions:
REMARK  status: ('A' for Active; 'I' for Inactive)
REMARK    1  A    between atoms: C_4  and  C_5 
REMARK    2  A    between atoms: C_5  and  C_6 
REMARK    3  A    between atoms: C_6  and  C_7 
REMARK    4  A    between atoms: C_7  and  N_8 
REMARK    5  A    between atoms: C_17  and  C_18 
REMARK    6  A    between atoms: C_18  and  N_19 
REMARK    7  A    between atoms: C_23  and  O_24 
REMARK    8  A    between atoms: C_23  and  C_25 
ROOT
HETATM    1  N   UNL     1      25.952  42.536  51.291  1.00  0.00    -0.065 N 
HETATM    2  H   UNL     1      26.163  42.293  52.268  1.00  0.00     0.280 HD
HETATM    3  C   UNL     1      24.451  42.738  51.233  1.00  0.00     0.276 C 
HETATM    4  C   UNL     1      23.950  43.312  49.935  1.00  0.00     0.001 A 
HETATM    5  C   UNL     1      24.059  42.561  48.763  1.00  0.00     0.076 A 
HETATM    6  O   UNL     1      24.619  41.314  48.786  1.00  0.00    -0.349 OA
HETATM    7  C   UNL     1      26.037  41.384  49.004  1.00  0.00     0.203 C 
HETATM    8  C   UNL     1      26.384  41.301  50.495  1.00  0.00     0.261 C 
HETATM    9  C   UNL     1      23.387  44.598  49.857  1.00  0.00     0.020 A 
HETATM   10  C   UNL     1      22.941  45.125  48.627  1.00  0.00    -0.032 A 
HETATM   11  C   UNL     1      23.024  44.323  47.478  1.00  0.00     0.011 A 
HETATM   12  C   UNL     1      23.571  43.040  47.552  1.00  0.00     0.038 A 
ENDROOT
BRANCH  10  13
HETATM   13  C   UNL     1      22.421  46.540  48.537  1.00  0.00     0.273 C 
BRANCH  13  14
HETATM   14  N   UNL     1      21.017  46.692  47.982  1.00  0.00    -0.067 N 
HETATM   15  H   UNL     1      20.805  45.824  47.468  1.00  0.00     0.280 HD
HETATM   16  C   UNL     1      19.972  46.834  49.062  1.00  0.00     0.238 C 
HETATM   17  C   UNL     1      18.601  47.021  48.440  1.00  0.00     0.071 C 
HETATM   18  C   UNL     1      18.543  48.276  47.547  1.00  0.00     0.089 C 
HETATM   19  C   UNL     1      19.590  48.060  46.439  1.00  0.00     0.071 C 
HETATM   20  C   UNL     1      20.992  47.827  46.980  1.00  0.00     0.238 C 
BRANCH  18  21
HETATM   21  O   UNL     1      17.269  48.258  46.905  1.00  0.00    -0.385 OA
HETATM   22  H   UNL     1      16.925  49.166  46.810  1.00  0.00     0.211 HD
ENDBRANCH  18  21
BRANCH  18  23
HETATM   23  C   UNL     1      18.660  49.571  48.344  1.00  0.00    -0.006 A 
HETATM   24  C   UNL     1      18.130  49.736  49.622  1.00  0.00     0.126 A 
HETATM   25  N   UNL     1      18.143  50.894  50.317  1.00  0.00    -0.272 NA
HETATM   26  C   UNL     1      18.796  51.938  49.772  1.00  0.00     0.116 A 
HETATM   27  C   UNL     1      19.421  51.875  48.542  1.00  0.00     0.020 A 
HETATM   28  C   UNL     1      19.354  50.680  47.828  1.00  0.00     0.013 A 
ENDBRANCH  18  23
ENDBRANCH  13  14
ENDBRANCH  10  13
BRANCH   1  29
HETATM   29  C   UNL     1      26.799  43.763  50.977  1.00  0.00     0.236 C 
BRANCH  29  30
HETATM   30  C   UNL     1      27.064  44.590  52.239  1.00  0.00     0.039 C 
BRANCH  30  31
HETATM   31  C   UNL     1      27.017  43.790  53.557  1.00  0.00     0.040 C 
HETATM   32  C   UNL     1      25.864  44.221  54.469  1.00  0.00     0.017 C 
BRANCH  31  33
HETATM   33  C   UNL     1      28.316  43.819  54.282  1.00  0.00     0.057 A 
HETATM   34  O   UNL     1      28.576  44.918  55.045  1.00  0.00    -0.319 OA
HETATM   35  C   UNL     1      29.788  44.715  55.635  1.00  0.00     0.049 A 
HETATM   36  C   UNL     1      30.281  45.772  56.542  1.00  0.00     0.076 C 
HETATM   37  C   UNL     1      30.307  43.500  55.246  1.00  0.00     0.035 A 
HETATM   38  C   UNL     1      29.358  42.921  54.372  1.00  0.00     0.035 A 
ENDBRANCH  31  33
ENDBRANCH  30  31
ENDBRANCH  29  30
ENDBRANCH   1  29
TORSDOF 8
ENDMDL
MODEL 8
REMARK VINA RESULT:      -8.3      6.966     12.830
REMARK  8 active torsions:
REMARK  status: ('A' for Active; 'I' for Inactive)
REMARK    1  A    between atoms: C_4  and  C_5 
REMARK    2  A    between atoms: C_5  and  C_6 
REMARK    3  A    between atoms: C_6  and  C_7 
REMARK    4  A    between atoms: C_7  and  N_8 
REMARK    5  A    between atoms: C_17  and  C_18 
REMARK    6  A    between atoms: C_18  and  N_19 
REMARK    7  A    between atoms: C_23  and  O_24 
REMARK    8  A    between atoms: C_23  and  C_25 
ROOT
HETATM    1  N   UNL     1      21.049  46.619  48.716  1.00  0.00    -0.065 N 
HETATM    2  H   UNL     1      21.402  46.995  49.606  1.00  0.00     0.280 HD
HETATM    3  C   UNL     1      19.625  47.123  48.591  1.00  0.00     0.276 C 
HETATM    4  C   UNL     1      18.989  46.865  47.252  1.00  0.00     0.001 A 
HETATM    5  C   UNL     1      18.732  45.551  46.854  1.00  0.00     0.076 A 
HETATM    6  O   UNL     1      19.057  44.503  47.668  1.00  0.00    -0.349 OA
HETATM    7  C   UNL     1      20.480  44.319  47.738  1.00  0.00     0.203 C 
HETATM    8  C   UNL     1      21.092  45.100  48.908  1.00  0.00     0.261 C 
HETATM    9  C   UNL     1      18.657  47.910  46.371  1.00  0.00     0.020 A 
HETATM   10  C   UNL     1      18.079  47.645  45.113  1.00  0.00    -0.032 A 
HETATM   11  C   UNL     1      17.793  46.315  44.766  1.00  0.00     0.011 A 
HETATM   12  C   UNL     1      18.109  45.275  45.642  1.00  0.00     0.038 A 
ENDROOT
BRANCH  10  13
HETATM   13  C   UNL     1      17.809  48.766  44.137  1.00  0.00     0.273 C 
BRANCH  13  14
HETATM   14  N   UNL     1      16.975  49.916  44.669  1.00  0.00    -0.067 N 
HETATM   15  H   UNL     1      16.245  50.104  43.967  1.00  0.00     0.280 HD
HETATM   16  C   UNL     1      16.272  49.581  45.962  1.00  0.00     0.238 C 
HETATM   17  C   UNL     1      15.491  50.784  46.457  1.00  0.00     0.071 C 
HETATM   18  C   UNL     1      16.406  51.998  46.710  1.00  0.00     0.089 C 
HETATM   19  C   UNL     1      17.061  52.327  45.355  1.00  0.00     0.071 C 
HETATM   20  C   UNL     1      17.836  51.159  44.767  1.00  0.00     0.238 C 
BRANCH  18  21
HETATM   21  O   UNL     1      15.548  53.096  47.018  1.00  0.00    -0.385 OA
HETATM   22  H   UNL     1      14.894  52.834  47.694  1.00  0.00     0.211 HD
ENDBRANCH  18  21
BRANCH  18  23
HETATM   23  C   UNL     1      17.355  51.786  47.884  1.00  0.00    -0.006 A 
HETATM   24  C   UNL     1      16.987  51.132  49.059  1.00  0.00     0.126 A 
HETATM   25  N   UNL     1      17.777  51.004  50.147  1.00  0.00    -0.272 NA
HETATM   26  C   UNL     1      19.040  51.461  50.055  1.00  0.00     0.116 A 
HETATM   27  C   UNL     1      19.541  52.063  48.918  1.00  0.00     0.020 A 
HETATM   28  C   UNL     1      18.690  52.221  47.826  1.00  0.00     0.013 A 
ENDBRANCH  18  23
ENDBRANCH  13  14
ENDBRANCH  10  13
BRANCH   1  29
HETATM   29  C   UNL     1      22.021  47.104  47.647  1.00  0.00     0.236 C 
BRANCH  29  30
HETATM   30  C   UNL     1      22.325  48.596  47.814  1.00  0.00     0.039 C 
BRANCH  30  31
HETATM   31  C   UNL     1      22.814  49.004  49.219  1.00  0.00     0.040 C 
HETATM   32  C   UNL     1      22.788  50.519  49.436  1.00  0.00     0.017 C 
BRANCH  31  33
HETATM   33  C   UNL     1      24.152  48.437  49.538  1.00  0.00     0.057 A 
HETATM   34  O   UNL     1      25.239  49.118  49.077  1.00  0.00    -0.319 OA
HETATM   35  C   UNL     1      26.343  48.445  49.511  1.00  0.00     0.049 A 
HETATM   36  C   UNL     1      27.661  49.011  49.155  1.00  0.00     0.076 C 
HETATM   37  C   UNL     1      25.968  47.335  50.234  1.00  0.00     0.035 A 
HETATM   38  C   UNL     1      24.554  47.328  50.252  1.00  0.00     0.035 A 
ENDBRANCH  31  33
ENDBRANCH  30  31
ENDBRANCH  29  30
ENDBRANCH   1  29
TORSDOF 8
ENDMDL
MODEL 9
REMARK VINA RESULT:      -8.2     17.767     20.094
REMARK  8 active torsions:
REMARK  status: ('A' for Active; 'I' for Inactive)
REMARK    1  A    between atoms: C_4  and  C_5 
REMARK    2  A    between atoms: C_5  and  C_6 
REMARK    3  A    between atoms: C_6  and  C_7 
REMARK    4  A    between atoms: C_7  and  N_8 
REMARK    5  A    between atoms: C_17  and  C_18 
REMARK    6  A    between atoms: C_18  and  N_19 
REMARK    7  A    between atoms: C_23  and  O_24 
REMARK    8  A    between atoms: C_23  and  C_25 
ROOT
HETATM    1  N   UNL     1      39.426  45.178  63.685  1.00  0.00    -0.065 N 
HETATM    2  H   UNL     1      39.753  45.959  63.100  1.00  0.00     0.280 HD
HETATM    3  C   UNL     1      38.936  44.118  62.719  1.00  0.00     0.276 C 
HETATM    4  C   UNL     1      38.609  42.796  63.359  1.00  0.00     0.001 A 
HETATM    5  C   UNL     1      37.539  42.709  64.252  1.00  0.00     0.076 A 
HETATM    6  O   UNL     1      36.792  43.814  64.549  1.00  0.00    -0.349 OA
HETATM    7  C   UNL     1      37.532  44.743  65.356  1.00  0.00     0.203 C 
HETATM    8  C   UNL     1      38.271  45.775  64.495  1.00  0.00     0.261 C 
HETATM    9  C   UNL     1      39.363  41.636  63.102  1.00  0.00     0.020 A 
HETATM   10  C   UNL     1      39.052  40.412  63.728  1.00  0.00    -0.032 A 
HETATM   11  C   UNL     1      37.941  40.352  64.583  1.00  0.00     0.011 A 
HETATM   12  C   UNL     1      37.181  41.497  64.832  1.00  0.00     0.038 A 
ENDROOT
BRANCH  10  13
HETATM   13  C   UNL     1      39.920  39.195  63.515  1.00  0.00     0.273 C 
BRANCH  13  14
HETATM   14  N   UNL     1      40.809  38.808  64.682  1.00  0.00    -0.067 N 
HETATM   15  H   UNL     1      41.396  39.628  64.894  1.00  0.00     0.280 HD
HETATM   16  C   UNL     1      40.028  38.488  65.934  1.00  0.00     0.238 C 
HETATM   17  C   UNL     1      40.972  38.072  67.046  1.00  0.00     0.071 C 
HETATM   18  C   UNL     1      41.796  36.827  66.664  1.00  0.00     0.089 C 
HETATM   19  C   UNL     1      42.608  37.220  65.415  1.00  0.00     0.071 C 
HETATM   20  C   UNL     1      41.737  37.687  64.260  1.00  0.00     0.238 C 
BRANCH  18  21
HETATM   21  O   UNL     1      42.744  36.630  67.713  1.00  0.00    -0.385 OA
HETATM   22  H   UNL     1      43.484  37.260  67.622  1.00  0.00     0.211 HD
ENDBRANCH  18  21
BRANCH  18  23
HETATM   23  C   UNL     1      40.943  35.569  66.545  1.00  0.00    -0.006 A 
HETATM   24  C   UNL     1      41.413  34.371  66.009  1.00  0.00     0.126 A 
HETATM   25  N   UNL     1      40.659  33.268  65.812  1.00  0.00    -0.272 NA
HETATM   26  C   UNL     1      39.386  33.300  66.250  1.00  0.00     0.116 A 
HETATM   27  C   UNL     1      38.828  34.405  66.861  1.00  0.00     0.020 A 
HETATM   28  C   UNL     1      39.617  35.544  67.011  1.00  0.00     0.013 A 
ENDBRANCH  18  23
ENDBRANCH  13  14
ENDBRANCH  10  13
BRANCH   1  29
HETATM   29  C   UNL     1      40.613  44.786  64.555  1.00  0.00     0.236 C 
BRANCH  29  30
HETATM   30  C   UNL     1      41.938  45.067  63.839  1.00  0.00     0.039 C 
BRANCH  30  31
HETATM   31  C   UNL     1      42.781  46.200  64.459  1.00  0.00     0.040 C 
HETATM   32  C   UNL     1      43.952  45.675  65.296  1.00  0.00     0.017 C 
BRANCH  31  33
HETATM   33  C   UNL     1      41.953  47.162  65.235  1.00  0.00     0.057 A 
HETATM   34  O   UNL     1      41.024  47.879  64.542  1.00  0.00    -0.319 OA
HETATM   35  C   UNL     1      40.369  48.660  65.447  1.00  0.00     0.049 A 
HETATM   36  C   UNL     1      39.282  49.521  64.933  1.00  0.00     0.076 C 
HETATM   37  C   UNL     1      40.880  48.454  66.709  1.00  0.00     0.035 A 
HETATM   38  C   UNL     1      41.904  47.488  66.573  1.00  0.00     0.035 A 
ENDBRANCH  31  33
ENDBRANCH  30  31
ENDBRANCH  29  30
ENDBRANCH   1  29
TORSDOF 8
ENDMDL
MODEL 10
REMARK VINA RESULT:      -8.1     11.880     15.848
REMARK  8 active torsions:
REMARK  status: ('A' for Active; 'I' for Inactive)
REMARK    1  A    between atoms: C_4  and  C_5 
REMARK    2  A    between atoms: C_5  and  C_6 
REMARK    3  A    between atoms: C_6  and  C_7 
REMARK    4  A    between atoms: C_7  and  N_8 
REMARK    5  A    between atoms: C_17  and  C_18 
REMARK    6  A    between atoms: C_18  and  N_19 
REMARK    7  A    between atoms: C_23  and  O_24 
REMARK    8  A    between atoms: C_23  and  C_25 
ROOT
HETATM    1  N   UNL     1      26.497  49.773  40.567  1.00  0.00    -0.065 N 
HETATM    2  H   UNL     1      25.696  49.634  41.196  1.00  0.00     0.280 HD
HETATM    3  C   UNL     1      26.908  51.222  40.735  1.00  0.00     0.276 C 
HETATM    4  C   UNL     1      28.203  51.585  40.061  1.00  0.00     0.001 A 
HETATM    5  C   UNL     1      28.286  51.554  38.668  1.00  0.00     0.076 A 
HETATM    6  O   UNL     1      27.203  51.194  37.916  1.00  0.00    -0.349 OA
HETATM    7  C   UNL     1      26.926  49.791  38.040  1.00  0.00     0.203 C 
HETATM    8  C   UNL     1      25.927  49.511  39.170  1.00  0.00     0.261 C 
HETATM    9  C   UNL     1      29.351  51.940  40.794  1.00  0.00     0.020 A 
HETATM   10  C   UNL     1      30.560  52.258  40.142  1.00  0.00    -0.032 A 
HETATM   11  C   UNL     1      30.593  52.261  38.740  1.00  0.00     0.011 A 
HETATM   12  C   UNL     1      29.454  51.922  38.007  1.00  0.00     0.038 A 
ENDROOT
BRANCH  10  13
HETATM   13  C   UNL     1      31.811  52.550  40.938  1.00  0.00     0.273 C 
BRANCH  13  14
HETATM   14  N   UNL     1      33.034  51.733  40.566  1.00  0.00    -0.067 N 
HETATM   15  H   UNL     1      32.693  50.892  40.078  1.00  0.00     0.280 HD
HETATM   16  C   UNL     1      33.955  52.456  39.613  1.00  0.00     0.238 C 
HETATM   17  C   UNL     1      35.172  51.602  39.315  1.00  0.00     0.071 C 
HETATM   18  C   UNL     1      35.968  51.272  40.593  1.00  0.00     0.089 C 
HETATM   19  C   UNL     1      35.002  50.496  41.508  1.00  0.00     0.071 C 
HETATM   20  C   UNL     1      33.733  51.269  41.828  1.00  0.00     0.238 C 
BRANCH  18  21
HETATM   21  O   UNL     1      36.986  50.348  40.209  1.00  0.00    -0.385 OA
HETATM   22  H   UNL     1      37.191  50.446  39.260  1.00  0.00     0.211 HD
ENDBRANCH  18  21
BRANCH  18  23
HETATM   23  C   UNL     1      36.637  52.498  41.204  1.00  0.00    -0.006 A 
HETATM   24  C   UNL     1      37.103  53.574  40.449  1.00  0.00     0.126 A 
HETATM   25  N   UNL     1      37.774  54.632  40.951  1.00  0.00    -0.272 NA
HETATM   26  C   UNL     1      37.924  54.696  42.288  1.00  0.00     0.116 A 
HETATM   27  C   UNL     1      37.444  53.726  43.145  1.00  0.00     0.020 A 
HETATM   28  C   UNL     1      36.793  52.623  42.595  1.00  0.00     0.013 A 
ENDBRANCH  18  23
ENDBRANCH  13  14
ENDBRANCH  10  13
BRANCH   1  29
HETATM   29  C   UNL     1      27.535  48.737  40.982  1.00  0.00     0.236 C 
BRANCH  29  30
HETATM   30  C   UNL     1      27.158  47.343  40.468  1.00  0.00     0.039 C 
BRANCH  30  31
HETATM   31  C   UNL     1      28.216  46.679  39.564  1.00  0.00     0.040 C 
HETATM   32  C   UNL     1      28.420  45.196  39.885  1.00  0.00     0.017 C 
BRANCH  31  33
HETATM   33  C   UNL     1      29.509  47.415  39.571  1.00  0.00     0.057 A 
HETATM   34  O   UNL     1      30.370  47.144  40.593  1.00  0.00    -0.319 OA
HETATM   35  C   UNL     1      31.487  47.897  40.381  1.00  0.00     0.049 A 
HETATM   36  C   UNL     1      32.590  47.754  41.355  1.00  0.00     0.076 C 
HETATM   37  C   UNL     1      31.340  48.652  39.239  1.00  0.00     0.035 A 
HETATM   38  C   UNL     1      30.063  48.343  38.716  1.00  0.00     0.035 A 
ENDBRANCH  31  33
ENDBRANCH  30  31
ENDBRANCH  29  30
ENDBRANCH   1  29
TORSDOF 8
ENDMDL
