MODEL 1
REMARK VINA RESULT:      -9.7      0.000      0.000
REMARK  5 active torsions:
REMARK  status: ('A' for Active; 'I' for Inactive)
REMARK    1  A    between atoms: C_4  and  N_5 
REMARK       I    between atoms: N_5  and  C_6 
REMARK    2  A    between atoms: C_6  and  C_7 
REMARK    3  A    between atoms: N_9  and  C_10 
REMARK    4  A    between atoms: C_10  and  C_11 
REMARK    5  A    between atoms: C_14  and  O_15 
ROOT
HETATM    1  C   UNL     1      25.199  44.283  51.111  1.00  0.00     0.105 C 
HETATM    2  C   UNL     1      26.634  44.010  51.531  1.00  0.00     0.140 C 
HETATM    3  N   UNL     1      26.473  43.582  52.900  1.00  0.00    -0.347 N 
HETATM    4  C   UNL     1      25.329  44.105  53.472  1.00  0.00     0.221 C 
HETATM    5  O   UNL     1      24.982  44.013  54.638  1.00  0.00    -0.273 OA
HETATM    6  C   UNL     1      24.563  44.827  52.392  1.00  0.00     0.118 C 
ENDROOT
BRANCH   1   7
HETATM    7  C   UNL     1      25.068  45.232  49.939  1.00  0.00     0.228 C 
HETATM    8  N   UNL     1      24.541  46.445  50.333  1.00  0.00    -0.325 N 
HETATM    9  H   UNL     1      24.279  46.574  51.310  1.00  0.00     0.169 HD
HETATM   10  O   UNL     1      25.364  44.903  48.796  1.00  0.00    -0.273 OA
BRANCH   8  11
HETATM   11  C   UNL     1      24.196  47.570  49.546  1.00  0.00     0.065 A 
HETATM   12  C   UNL     1      22.896  47.844  49.112  1.00  0.00     0.038 A 
HETATM   13  C   UNL     1      22.630  48.989  48.353  1.00  0.00    -0.059 A 
HETATM   14  C   UNL     1      21.242  49.269  47.856  1.00  0.00     0.048 C 
HETATM   15  C   UNL     1      23.686  49.842  48.014  1.00  0.00     0.020 A 
HETATM   16  C   UNL     1      24.995  49.570  48.446  1.00  0.00    -0.005 A 
HETATM   17  C   UNL     1      25.264  48.424  49.220  1.00  0.00     0.093 A 
HETATM   18  C   UNL     1      26.063  50.420  48.129  1.00  0.00     0.015 A 
HETATM   19  N   UNL     1      26.514  48.133  49.658  1.00  0.00    -0.258 NA
HETATM   20  C   UNL     1      27.517  48.979  49.331  1.00  0.00     0.117 A 
HETATM   21  C   UNL     1      27.344  50.122  48.578  1.00  0.00     0.020 A 
ENDBRANCH   8  11
ENDBRANCH   1   7
BRANCH   3  22
HETATM   22  C   UNL     1      27.467  42.811  53.617  1.00  0.00     0.164 C 
BRANCH  22  23
HETATM   23  C   UNL     1      28.454  43.644  54.392  1.00  0.00    -0.040 A 
HETATM   24  C   UNL     1      28.144  44.961  54.755  1.00  0.00     0.011 A 
HETATM   25  C   UNL     1      29.018  45.698  55.558  1.00  0.00     0.037 A 
HETATM   26  C   UNL     1      30.202  45.127  56.025  1.00  0.00     0.068 A 
HETATM   27  C   UNL     1      30.541  43.832  55.632  1.00  0.00     0.037 A 
HETATM   28  C   UNL     1      29.671  43.095  54.821  1.00  0.00     0.011 A 
BRANCH  26  29
HETATM   29  O   UNL     1      30.957  45.926  56.840  1.00  0.00    -0.356 OA
HETATM   30  C   UNL     1      30.502  46.035  58.185  1.00  0.00     0.210 C 
ENDBRANCH  26  29
ENDBRANCH  22  23
ENDBRANCH   3  22
TORSDOF 5
ENDMDL
MODEL 2
REMARK VINA RESULT:      -9.5      1.929      3.408
REMARK  5 active torsions:
REMARK  status: ('A' for Active; 'I' for Inactive)
REMARK    1  A    between atoms: C_4  and  N_5 
REMARK       I    between atoms: N_5  and  C_6 
REMARK    2  A    between atoms: C_6  and  C_7 
REMARK    3  A    between atoms: N_9  and  C_10 
REMARK    4  A    between atoms: C_10  and  C_11 
REMARK    5  A    between atoms: C_14  and  O_15 
ROOT
HETATM    1  C   UNL     1      26.271  46.786  50.635  1.00  0.00     0.105 C 
HETATM    2  C   UNL     1      25.600  46.182  51.858  1.00  0.00     0.140 C 
HETATM    3  N   UNL     1      26.324  44.943  52.019  1.00  0.00    -0.347 N 
HETATM    4  C   UNL     1      26.850  44.495  50.822  1.00  0.00     0.221 C 
HETATM    5  O   UNL     1      27.413  43.432  50.620  1.00  0.00    -0.273 OA
HETATM    6  C   UNL     1      26.603  45.560  49.783  1.00  0.00     0.118 C 
ENDROOT
BRANCH   1   7
HETATM    7  C   UNL     1      25.418  47.801  49.901  1.00  0.00     0.228 C 
HETATM    8  N   UNL     1      24.121  47.353  49.758  1.00  0.00    -0.325 N 
HETATM    9  H   UNL     1      23.876  46.428  50.112  1.00  0.00     0.169 HD
HETATM   10  O   UNL     1      25.878  48.851  49.470  1.00  0.00    -0.273 OA
BRANCH   8  11
HETATM   11  C   UNL     1      23.034  47.957  49.080  1.00  0.00     0.065 A 
HETATM   12  C   UNL     1      22.636  49.282  49.279  1.00  0.00     0.038 A 
HETATM   13  C   UNL     1      21.563  49.815  48.556  1.00  0.00    -0.059 A 
HETATM   14  C   UNL     1      21.112  51.227  48.791  1.00  0.00     0.048 C 
HETATM   15  C   UNL     1      20.879  48.996  47.651  1.00  0.00     0.020 A 
HETATM   16  C   UNL     1      21.273  47.664  47.449  1.00  0.00    -0.005 A 
HETATM   17  C   UNL     1      22.361  47.128  48.167  1.00  0.00     0.093 A 
HETATM   18  C   UNL     1      20.609  46.833  46.536  1.00  0.00     0.015 A 
HETATM   19  N   UNL     1      22.771  45.846  47.994  1.00  0.00    -0.258 NA
HETATM   20  C   UNL     1      22.105  45.078  47.104  1.00  0.00     0.117 A 
HETATM   21  C   UNL     1      21.030  45.520  46.359  1.00  0.00     0.020 A 
ENDBRANCH   8  11
ENDBRANCH   1   7
BRANCH   3  22
HETATM   22  C   UNL     1      26.370  44.202  53.262  1.00  0.00     0.164 C 
BRANCH  22  23
HETATM   23  C   UNL     1      27.691  44.285  53.981  1.00  0.00    -0.040 A 
HETATM   24  C   UNL     1      28.022  45.418  54.735  1.00  0.00     0.011 A 
HETATM   25  C   UNL     1      29.201  45.452  55.482  1.00  0.00     0.037 A 
HETATM   26  C   UNL     1      30.059  44.351  55.502  1.00  0.00     0.068 A 
HETATM   27  C   UNL     1      29.761  43.236  54.718  1.00  0.00     0.037 A 
HETATM   28  C   UNL     1      28.583  43.204  53.964  1.00  0.00     0.011 A 
BRANCH  26  29
HETATM   29  O   UNL     1      31.160  44.480  56.303  1.00  0.00    -0.356 OA
HETATM   30  C   UNL     1      31.515  43.321  57.050  1.00  0.00     0.210 C 
ENDBRANCH  26  29
ENDBRANCH  22  23
ENDBRANCH   3  22
TORSDOF 5
ENDMDL
MODEL 3
REMARK VINA RESULT:      -9.5      2.645      8.021
REMARK  5 active torsions:
REMARK  status: ('A' for Active; 'I' for Inactive)
REMARK    1  A    between atoms: C_4  and  N_5 
REMARK       I    between atoms: N_5  and  C_6 
REMARK    2  A    between atoms: C_6  and  C_7 
REMARK    3  A    between atoms: N_9  and  C_10 
REMARK    4  A    between atoms: C_10  and  C_11 
REMARK    5  A    between atoms: C_14  and  O_15 
ROOT
HETATM    1  C   UNL     1      27.214  41.548  51.602  1.00  0.00     0.105 C 
HETATM    2  C   UNL     1      26.335  42.719  51.194  1.00  0.00     0.140 C 
HETATM    3  N   UNL     1      26.204  42.516  49.770  1.00  0.00    -0.347 N 
HETATM    4  C   UNL     1      27.278  41.820  49.247  1.00  0.00     0.221 C 
HETATM    5  O   UNL     1      27.503  41.592  48.071  1.00  0.00    -0.273 OA
HETATM    6  C   UNL     1      28.146  41.379  50.400  1.00  0.00     0.118 C 
ENDROOT
BRANCH   1   7
HETATM    7  C   UNL     1      27.961  41.761  52.902  1.00  0.00     0.228 C 
HETATM    8  N   UNL     1      28.117  43.105  53.175  1.00  0.00    -0.325 N 
HETATM    9  H   UNL     1      27.761  43.788  52.506  1.00  0.00     0.169 HD
HETATM   10  O   UNL     1      28.392  40.827  53.568  1.00  0.00    -0.273 OA
BRANCH   8  11
HETATM   11  C   UNL     1      28.809  43.728  54.241  1.00  0.00     0.065 A 
HETATM   12  C   UNL     1      29.928  43.173  54.869  1.00  0.00     0.038 A 
HETATM   13  C   UNL     1      30.571  43.861  55.904  1.00  0.00    -0.059 A 
HETATM   14  C   UNL     1      31.753  43.254  56.603  1.00  0.00     0.048 C 
HETATM   15  C   UNL     1      30.064  45.097  56.319  1.00  0.00     0.020 A 
HETATM   16  C   UNL     1      28.939  45.657  55.694  1.00  0.00    -0.005 A 
HETATM   17  C   UNL     1      28.296  44.973  54.642  1.00  0.00     0.093 A 
HETATM   18  C   UNL     1      28.425  46.901  56.085  1.00  0.00     0.015 A 
HETATM   19  N   UNL     1      27.210  45.487  54.013  1.00  0.00    -0.258 NA
HETATM   20  C   UNL     1      26.746  46.689  54.421  1.00  0.00     0.117 A 
HETATM   21  C   UNL     1      27.312  47.427  55.440  1.00  0.00     0.020 A 
ENDBRANCH   8  11
ENDBRANCH   1   7
BRANCH   3  22
HETATM   22  C   UNL     1      25.141  43.095  48.976  1.00  0.00     0.164 C 
BRANCH  22  23
HETATM   23  C   UNL     1      24.875  44.549  49.267  1.00  0.00    -0.040 A 
HETATM   24  C   UNL     1      25.933  45.423  49.552  1.00  0.00     0.011 A 
HETATM   25  C   UNL     1      25.695  46.789  49.722  1.00  0.00     0.037 A 
HETATM   26  C   UNL     1      24.406  47.305  49.593  1.00  0.00     0.068 A 
HETATM   27  C   UNL     1      23.341  46.437  49.354  1.00  0.00     0.037 A 
HETATM   28  C   UNL     1      23.575  45.067  49.191  1.00  0.00     0.011 A 
BRANCH  26  29
HETATM   29  O   UNL     1      24.300  48.662  49.735  1.00  0.00    -0.356 OA
HETATM   30  C   UNL     1      25.001  49.437  48.768  1.00  0.00     0.210 C 
ENDBRANCH  26  29
ENDBRANCH  22  23
ENDBRANCH   3  22
TORSDOF 5
ENDMDL
MODEL 4
REMARK VINA RESULT:      -9.4      3.037      9.274
REMARK  5 active torsions:
REMARK  status: ('A' for Active; 'I' for Inactive)
REMARK    1  A    between atoms: C_4  and  N_5 
REMARK       I    between atoms: N_5  and  C_6 
REMARK    2  A    between atoms: C_6  and  C_7 
REMARK    3  A    between atoms: N_9  and  C_10 
REMARK    4  A    between atoms: C_10  and  C_11 
REMARK    5  A    between atoms: C_14  and  O_15 
ROOT
HETATM    1  C   UNL     1      24.406  47.419  49.942  1.00  0.00     0.105 C 
HETATM    2  C   UNL     1      24.598  48.646  49.066  1.00  0.00     0.140 C 
HETATM    3  N   UNL     1      23.316  48.753  48.411  1.00  0.00    -0.347 N 
HETATM    4  C   UNL     1      22.679  47.529  48.321  1.00  0.00     0.221 C 
HETATM    5  O   UNL     1      21.641  47.282  47.730  1.00  0.00    -0.273 OA
HETATM    6  C   UNL     1      23.501  46.526  49.092  1.00  0.00     0.118 C 
ENDROOT
BRANCH   1   7
HETATM    7  C   UNL     1      25.699  46.738  50.342  1.00  0.00     0.228 C 
HETATM    8  N   UNL     1      25.574  46.105  51.562  1.00  0.00    -0.325 N 
HETATM    9  H   UNL     1      24.689  46.171  52.064  1.00  0.00     0.169 HD
HETATM   10  O   UNL     1      26.712  46.807  49.657  1.00  0.00    -0.273 OA
BRANCH   8  11
HETATM   11  C   UNL     1      26.553  45.418  52.319  1.00  0.00     0.065 A 
HETATM   12  C   UNL     1      27.145  44.217  51.916  1.00  0.00     0.038 A 
HETATM   13  C   UNL     1      28.122  43.609  52.711  1.00  0.00    -0.059 A 
HETATM   14  C   UNL     1      28.735  42.302  52.298  1.00  0.00     0.048 C 
HETATM   15  C   UNL     1      28.481  44.204  53.925  1.00  0.00     0.020 A 
HETATM   16  C   UNL     1      27.888  45.409  54.336  1.00  0.00    -0.005 A 
HETATM   17  C   UNL     1      26.912  46.031  53.532  1.00  0.00     0.093 A 
HETATM   18  C   UNL     1      28.245  46.028  55.542  1.00  0.00     0.015 A 
HETATM   19  N   UNL     1      26.323  47.197  53.896  1.00  0.00    -0.258 NA
HETATM   20  C   UNL     1      26.695  47.762  55.066  1.00  0.00     0.117 A 
HETATM   21  C   UNL     1      27.640  47.223  55.914  1.00  0.00     0.020 A 
ENDBRANCH   8  11
ENDBRANCH   1   7
BRANCH   3  22
HETATM   22  C   UNL     1      22.829  49.974  47.804  1.00  0.00     0.164 C 
BRANCH  22  23
HETATM   23  C   UNL     1      21.630  50.571  48.494  1.00  0.00    -0.040 A 
HETATM   24  C   UNL     1      20.515  50.985  47.754  1.00  0.00     0.011 A 
HETATM   25  C   UNL     1      19.367  51.444  48.403  1.00  0.00     0.037 A 
HETATM   26  C   UNL     1      19.307  51.481  49.796  1.00  0.00     0.068 A 
HETATM   27  C   UNL     1      20.428  51.114  50.540  1.00  0.00     0.037 A 
HETATM   28  C   UNL     1      21.582  50.661  49.892  1.00  0.00     0.011 A 
BRANCH  26  29
HETATM   29  O   UNL     1      18.117  51.906  50.321  1.00  0.00    -0.356 OA
HETATM   30  C   UNL     1      17.302  52.679  49.446  1.00  0.00     0.210 C 
ENDBRANCH  26  29
ENDBRANCH  22  23
ENDBRANCH   3  22
TORSDOF 5
ENDMDL
MODEL 5
REMARK VINA RESULT:      -9.1      4.250      7.408
REMARK  5 active torsions:
REMARK  status: ('A' for Active; 'I' for Inactive)
REMARK    1  A    between atoms: C_4  and  N_5 
REMARK       I    between atoms: N_5  and  C_6 
REMARK    2  A    between atoms: C_6  and  C_7 
REMARK    3  A    between atoms: N_9  and  C_10 
REMARK    4  A    between atoms: C_10  and  C_11 
REMARK    5  A    between atoms: C_14  and  O_15 
ROOT
HETATM    1  C   UNL     1      25.119  43.224  50.128  1.00  0.00     0.105 C 
HETATM    2  C   UNL     1      25.990  41.993  49.933  1.00  0.00     0.140 C 
HETATM    3  N   UNL     1      25.308  41.308  48.860  1.00  0.00    -0.347 N 
HETATM    4  C   UNL     1      23.961  41.617  48.825  1.00  0.00     0.221 C 
HETATM    5  O   UNL     1      23.111  41.117  48.108  1.00  0.00    -0.273 OA
HETATM    6  C   UNL     1      23.710  42.699  49.846  1.00  0.00     0.118 C 
ENDROOT
BRANCH   1   7
HETATM    7  C   UNL     1      25.248  43.860  51.497  1.00  0.00     0.228 C 
HETATM    8  N   UNL     1      26.521  44.351  51.702  1.00  0.00    -0.325 N 
HETATM    9  H   UNL     1      27.222  44.226  50.972  1.00  0.00     0.169 HD
HETATM   10  O   UNL     1      24.324  43.871  52.301  1.00  0.00    -0.273 OA
BRANCH   8  11
HETATM   11  C   UNL     1      27.074  44.951  52.859  1.00  0.00     0.065 A 
HETATM   12  C   UNL     1      26.573  46.119  53.443  1.00  0.00     0.038 A 
HETATM   13  C   UNL     1      27.162  46.641  54.600  1.00  0.00    -0.059 A 
HETATM   14  C   UNL     1      26.648  47.912  55.210  1.00  0.00     0.048 C 
HETATM   15  C   UNL     1      28.274  45.994  55.149  1.00  0.00     0.020 A 
HETATM   16  C   UNL     1      28.783  44.822  54.566  1.00  0.00    -0.005 A 
HETATM   17  C   UNL     1      28.184  44.287  53.407  1.00  0.00     0.093 A 
HETATM   18  C   UNL     1      29.887  44.151  55.110  1.00  0.00     0.015 A 
HETATM   19  N   UNL     1      28.647  43.155  52.820  1.00  0.00    -0.258 NA
HETATM   20  C   UNL     1      29.713  42.538  53.376  1.00  0.00     0.117 A 
HETATM   21  C   UNL     1      30.360  42.992  54.508  1.00  0.00     0.020 A 
ENDBRANCH   8  11
ENDBRANCH   1   7
BRANCH   3  22
HETATM   22  C   UNL     1      25.942  40.317  48.016  1.00  0.00     0.164 C 
BRANCH  22  23
HETATM   23  C   UNL     1      27.079  39.581  48.677  1.00  0.00    -0.040 A 
HETATM   24  C   UNL     1      26.838  38.416  49.418  1.00  0.00     0.011 A 
HETATM   25  C   UNL     1      27.903  37.681  49.944  1.00  0.00     0.037 A 
HETATM   26  C   UNL     1      29.220  38.085  49.725  1.00  0.00     0.068 A 
HETATM   27  C   UNL     1      29.467  39.267  49.027  1.00  0.00     0.037 A 
HETATM   28  C   UNL     1      28.402  40.009  48.506  1.00  0.00     0.011 A 
BRANCH  26  29
HETATM   29  O   UNL     1      30.181  37.263  50.249  1.00  0.00    -0.356 OA
HETATM   30  C   UNL     1      29.878  36.699  51.521  1.00  0.00     0.210 C 
ENDBRANCH  26  29
ENDBRANCH  22  23
ENDBRANCH   3  22
TORSDOF 5
ENDMDL
MODEL 6
REMARK VINA RESULT:      -9.0      3.056      8.896
REMARK  5 active torsions:
REMARK  status: ('A' for Active; 'I' for Inactive)
REMARK    1  A    between atoms: C_4  and  N_5 
REMARK       I    between atoms: N_5  and  C_6 
REMARK    2  A    between atoms: C_6  and  C_7 
REMARK    3  A    between atoms: N_9  and  C_10 
REMARK    4  A    between atoms: C_10  and  C_11 
REMARK    5  A    between atoms: C_14  and  O_15 
ROOT
HETATM    1  C   UNL     1      23.901  45.471  50.166  1.00  0.00     0.105 C 
HETATM    2  C   UNL     1      23.686  46.468  49.039  1.00  0.00     0.140 C 
HETATM    3  N   UNL     1      22.405  46.058  48.513  1.00  0.00    -0.347 N 
HETATM    4  C   UNL     1      22.157  44.718  48.747  1.00  0.00     0.221 C 
HETATM    5  O   UNL     1      21.216  44.063  48.331  1.00  0.00    -0.273 OA
HETATM    6  C   UNL     1      23.268  44.190  49.619  1.00  0.00     0.118 C 
ENDROOT
BRANCH   1   7
HETATM    7  C   UNL     1      25.352  45.290  50.561  1.00  0.00     0.228 C 
HETATM    8  N   UNL     1      25.467  44.930  51.888  1.00  0.00    -0.325 N 
HETATM    9  H   UNL     1      24.622  44.851  52.453  1.00  0.00     0.169 HD
HETATM   10  O   UNL     1      26.272  45.492  49.778  1.00  0.00    -0.273 OA
BRANCH   8  11
HETATM   11  C   UNL     1      26.635  44.733  52.664  1.00  0.00     0.065 A 
HETATM   12  C   UNL     1      27.515  43.662  52.484  1.00  0.00     0.038 A 
HETATM   13  C   UNL     1      28.661  43.546  53.279  1.00  0.00    -0.059 A 
HETATM   14  C   UNL     1      29.590  42.380  53.111  1.00  0.00     0.048 C 
HETATM   15  C   UNL     1      28.900  44.501  54.273  1.00  0.00     0.020 A 
HETATM   16  C   UNL     1      28.018  45.578  54.460  1.00  0.00    -0.005 A 
HETATM   17  C   UNL     1      26.869  45.704  53.653  1.00  0.00     0.093 A 
HETATM   18  C   UNL     1      28.248  46.554  55.440  1.00  0.00     0.015 A 
HETATM   19  N   UNL     1      25.998  46.734  53.803  1.00  0.00    -0.258 NA
HETATM   20  C   UNL     1      26.257  47.653  54.759  1.00  0.00     0.117 A 
HETATM   21  C   UNL     1      27.356  47.607  55.593  1.00  0.00     0.020 A 
ENDBRANCH   8  11
ENDBRANCH   1   7
BRANCH   3  22
HETATM   22  C   UNL     1      21.555  46.921  47.720  1.00  0.00     0.164 C 
BRANCH  22  23
HETATM   23  C   UNL     1      20.712  47.871  48.531  1.00  0.00    -0.040 A 
HETATM   24  C   UNL     1      21.030  49.235  48.588  1.00  0.00     0.011 A 
HETATM   25  C   UNL     1      20.191  50.129  49.257  1.00  0.00     0.037 A 
HETATM   26  C   UNL     1      19.017  49.681  49.863  1.00  0.00     0.068 A 
HETATM   27  C   UNL     1      18.717  48.319  49.851  1.00  0.00     0.037 A 
HETATM   28  C   UNL     1      19.559  47.421  49.188  1.00  0.00     0.011 A 
BRANCH  26  29
HETATM   29  O   UNL     1      18.253  50.653  50.450  1.00  0.00    -0.356 OA
HETATM   30  C   UNL     1      18.383  51.956  49.892  1.00  0.00     0.210 C 
ENDBRANCH  26  29
ENDBRANCH  22  23
ENDBRANCH   3  22
TORSDOF 5
ENDMDL
MODEL 7
REMARK VINA RESULT:      -8.9      2.802      9.295
REMARK  5 active torsions:
REMARK  status: ('A' for Active; 'I' for Inactive)
REMARK    1  A    between atoms: C_4  and  N_5 
REMARK       I    between atoms: N_5  and  C_6 
REMARK    2  A    between atoms: C_6  and  C_7 
REMARK    3  A    between atoms: N_9  and  C_10 
REMARK    4  A    between atoms: C_10  and  C_11 
REMARK    5  A    between atoms: C_14  and  O_15 
ROOT
HETATM    1  C   UNL     1      25.073  46.361  49.997  1.00  0.00     0.105 C 
HETATM    2  C   UNL     1      23.594  46.598  49.739  1.00  0.00     0.140 C 
HETATM    3  N   UNL     1      23.618  47.768  48.893  1.00  0.00    -0.347 N 
HETATM    4  C   UNL     1      24.749  48.534  49.105  1.00  0.00     0.221 C 
HETATM    5  O   UNL     1      24.998  49.626  48.623  1.00  0.00    -0.273 OA
HETATM    6  C   UNL     1      25.645  47.779  50.055  1.00  0.00     0.118 C 
ENDROOT
BRANCH   1   7
HETATM    7  C   UNL     1      25.360  45.558  51.248  1.00  0.00     0.228 C 
HETATM    8  N   UNL     1      26.717  45.413  51.449  1.00  0.00    -0.325 N 
HETATM    9  H   UNL     1      27.362  45.811  50.767  1.00  0.00     0.169 HD
HETATM   10  O   UNL     1      24.466  45.080  51.937  1.00  0.00    -0.273 OA
BRANCH   8  11
HETATM   11  C   UNL     1      27.402  44.684  52.451  1.00  0.00     0.065 A 
HETATM   12  C   UNL     1      27.747  45.214  53.698  1.00  0.00     0.038 A 
HETATM   13  C   UNL     1      28.407  44.422  54.645  1.00  0.00    -0.059 A 
HETATM   14  C   UNL     1      28.809  44.998  55.971  1.00  0.00     0.048 C 
HETATM   15  C   UNL     1      28.739  43.103  54.318  1.00  0.00     0.020 A 
HETATM   16  C   UNL     1      28.396  42.566  53.066  1.00  0.00    -0.005 A 
HETATM   17  C   UNL     1      27.721  43.357  52.115  1.00  0.00     0.093 A 
HETATM   18  C   UNL     1      28.706  41.242  52.726  1.00  0.00     0.015 A 
HETATM   19  N   UNL     1      27.371  42.870  50.898  1.00  0.00    -0.258 NA
HETATM   20  C   UNL     1      27.688  41.588  50.609  1.00  0.00     0.117 A 
HETATM   21  C   UNL     1      28.347  40.744  51.479  1.00  0.00     0.020 A 
ENDBRANCH   8  11
ENDBRANCH   1   7
BRANCH   3  22
HETATM   22  C   UNL     1      22.521  48.152  48.030  1.00  0.00     0.164 C 
BRANCH  22  23
HETATM   23  C   UNL     1      21.406  48.879  48.736  1.00  0.00    -0.040 A 
HETATM   24  C   UNL     1      21.443  50.272  48.878  1.00  0.00     0.011 A 
HETATM   25  C   UNL     1      20.363  50.954  49.443  1.00  0.00     0.037 A 
HETATM   26  C   UNL     1      19.225  50.260  49.857  1.00  0.00     0.068 A 
HETATM   27  C   UNL     1      19.198  48.869  49.760  1.00  0.00     0.037 A 
HETATM   28  C   UNL     1      20.282  48.184  49.202  1.00  0.00     0.011 A 
BRANCH  26  29
HETATM   29  O   UNL     1      18.213  51.036  50.353  1.00  0.00    -0.356 OA
HETATM   30  C   UNL     1      18.086  52.327  49.766  1.00  0.00     0.210 C 
ENDBRANCH  26  29
ENDBRANCH  22  23
ENDBRANCH   3  22
TORSDOF 5
ENDMDL
MODEL 8
REMARK VINA RESULT:      -8.7      3.393      6.994
REMARK  5 active torsions:
REMARK  status: ('A' for Active; 'I' for Inactive)
REMARK    1  A    between atoms: C_4  and  N_5 
REMARK       I    between atoms: N_5  and  C_6 
REMARK    2  A    between atoms: C_6  and  C_7 
REMARK    3  A    between atoms: N_9  and  C_10 
REMARK    4  A    between atoms: C_10  and  C_11 
REMARK    5  A    between atoms: C_14  and  O_15 
ROOT
HETATM    1  C   UNL     1      22.942  50.203  49.271  1.00  0.00     0.105 C 
HETATM    2  C   UNL     1      23.449  48.782  49.456  1.00  0.00     0.140 C 
HETATM    3  N   UNL     1      24.811  48.884  48.987  1.00  0.00    -0.347 N 
HETATM    4  C   UNL     1      24.966  49.907  48.071  1.00  0.00     0.221 C 
HETATM    5  O   UNL     1      25.966  50.168  47.424  1.00  0.00    -0.273 OA
HETATM    6  C   UNL     1      23.663  50.665  48.003  1.00  0.00     0.118 C 
ENDROOT
BRANCH   1   7
HETATM    7  C   UNL     1      21.435  50.312  49.164  1.00  0.00     0.228 C 
HETATM    8  N   UNL     1      20.973  49.734  48.000  1.00  0.00    -0.325 N 
HETATM    9  H   UNL     1      21.646  49.335  47.346  1.00  0.00     0.169 HD
HETATM   10  O   UNL     1      20.761  50.890  50.009  1.00  0.00    -0.273 OA
BRANCH   8  11
HETATM   11  C   UNL     1      19.654  49.681  47.488  1.00  0.00     0.065 A 
HETATM   12  C   UNL     1      19.025  50.757  46.854  1.00  0.00     0.038 A 
HETATM   13  C   UNL     1      17.724  50.621  46.355  1.00  0.00    -0.059 A 
HETATM   14  C   UNL     1      17.033  51.783  45.704  1.00  0.00     0.048 C 
HETATM   15  C   UNL     1      17.054  49.405  46.523  1.00  0.00     0.020 A 
HETATM   16  C   UNL     1      17.680  48.322  47.162  1.00  0.00    -0.005 A 
HETATM   17  C   UNL     1      18.995  48.452  47.654  1.00  0.00     0.093 A 
HETATM   18  C   UNL     1      17.030  47.091  47.326  1.00  0.00     0.015 A 
HETATM   19  N   UNL     1      19.631  47.425  48.272  1.00  0.00    -0.258 NA
HETATM   20  C   UNL     1      18.970  46.255  48.410  1.00  0.00     0.117 A 
HETATM   21  C   UNL     1      17.683  46.041  47.959  1.00  0.00     0.020 A 
ENDBRANCH   8  11
ENDBRANCH   1   7
BRANCH   3  22
HETATM   22  C   UNL     1      25.848  47.936  49.339  1.00  0.00     0.164 C 
BRANCH  22  23
HETATM   23  C   UNL     1      25.505  47.051  50.509  1.00  0.00    -0.040 A 
HETATM   24  C   UNL     1      24.850  45.829  50.309  1.00  0.00     0.011 A 
HETATM   25  C   UNL     1      24.623  44.965  51.383  1.00  0.00     0.037 A 
HETATM   26  C   UNL     1      25.059  45.298  52.665  1.00  0.00     0.068 A 
HETATM   27  C   UNL     1      25.671  46.533  52.881  1.00  0.00     0.037 A 
HETATM   28  C   UNL     1      25.893  47.403  51.809  1.00  0.00     0.011 A 
BRANCH  26  29
HETATM   29  O   UNL     1      24.821  44.356  53.629  1.00  0.00    -0.356 OA
HETATM   30  C   UNL     1      25.967  43.913  54.349  1.00  0.00     0.210 C 
ENDBRANCH  26  29
ENDBRANCH  22  23
ENDBRANCH   3  22
TORSDOF 5
ENDMDL
MODEL 9
REMARK VINA RESULT:      -8.6      3.792      6.488
REMARK  5 active torsions:
REMARK  status: ('A' for Active; 'I' for Inactive)
REMARK    1  A    between atoms: C_4  and  N_5 
REMARK       I    between atoms: N_5  and  C_6 
REMARK    2  A    between atoms: C_6  and  C_7 
REMARK    3  A    between atoms: N_9  and  C_10 
REMARK    4  A    between atoms: C_10  and  C_11 
REMARK    5  A    between atoms: C_14  and  O_15 
ROOT
HETATM    1  C   UNL     1      23.796  49.023  49.365  1.00  0.00     0.105 C 
HETATM    2  C   UNL     1      24.195  47.701  50.000  1.00  0.00     0.140 C 
HETATM    3  N   UNL     1      25.625  47.847  50.130  1.00  0.00    -0.347 N 
HETATM    4  C   UNL     1      26.142  48.720  49.190  1.00  0.00     0.221 C 
HETATM    5  O   UNL     1      27.319  48.962  48.981  1.00  0.00    -0.273 OA
HETATM    6  C   UNL     1      24.981  49.337  48.449  1.00  0.00     0.118 C 
ENDROOT
BRANCH   1   7
HETATM    7  C   UNL     1      22.476  48.978  48.624  1.00  0.00     0.228 C 
HETATM    8  N   UNL     1      21.427  48.734  49.487  1.00  0.00    -0.325 N 
HETATM    9  H   UNL     1      21.626  48.587  50.476  1.00  0.00     0.169 HD
HETATM   10  O   UNL     1      22.405  49.104  47.408  1.00  0.00    -0.273 OA
BRANCH   8  11
HETATM   11  C   UNL     1      20.054  48.548  49.197  1.00  0.00     0.065 A 
HETATM   12  C   UNL     1      19.505  47.329  48.788  1.00  0.00     0.038 A 
HETATM   13  C   UNL     1      18.132  47.219  48.539  1.00  0.00    -0.059 A 
HETATM   14  C   UNL     1      17.544  45.921  48.068  1.00  0.00     0.048 C 
HETATM   15  C   UNL     1      17.322  48.351  48.680  1.00  0.00     0.020 A 
HETATM   16  C   UNL     1      17.868  49.578  49.089  1.00  0.00    -0.005 A 
HETATM   17  C   UNL     1      19.248  49.689  49.352  1.00  0.00     0.093 A 
HETATM   18  C   UNL     1      17.070  50.719  49.251  1.00  0.00     0.015 A 
HETATM   19  N   UNL     1      19.809  50.858  49.752  1.00  0.00    -0.258 NA
HETATM   20  C   UNL     1      19.004  51.934  49.896  1.00  0.00     0.117 A 
HETATM   21  C   UNL     1      17.645  51.916  49.661  1.00  0.00     0.020 A 
ENDBRANCH   8  11
ENDBRANCH   1   7
BRANCH   3  22
HETATM   22  C   UNL     1      26.427  47.065  51.047  1.00  0.00     0.164 C 
BRANCH  22  23
HETATM   23  C   UNL     1      26.205  45.577  50.947  1.00  0.00    -0.040 A 
HETATM   24  C   UNL     1      26.801  44.836  49.918  1.00  0.00     0.011 A 
HETATM   25  C   UNL     1      26.676  43.446  49.885  1.00  0.00     0.037 A 
HETATM   26  C   UNL     1      25.972  42.773  50.884  1.00  0.00     0.068 A 
HETATM   27  C   UNL     1      25.338  43.507  51.887  1.00  0.00     0.037 A 
HETATM   28  C   UNL     1      25.455  44.901  51.917  1.00  0.00     0.011 A 
BRANCH  26  29
HETATM   29  O   UNL     1      25.954  41.410  50.773  1.00  0.00    -0.356 OA
HETATM   30  C   UNL     1      27.206  40.802  50.473  1.00  0.00     0.210 C 
ENDBRANCH  26  29
ENDBRANCH  22  23
ENDBRANCH   3  22
TORSDOF 5
ENDMDL
MODEL 10
REMARK VINA RESULT:      -8.4      4.816     10.988
REMARK  5 active torsions:
REMARK  status: ('A' for Active; 'I' for Inactive)
REMARK    1  A    between atoms: C_4  and  N_5 
REMARK       I    between atoms: N_5  and  C_6 
REMARK    2  A    between atoms: C_6  and  C_7 
REMARK    3  A    between atoms: N_9  and  C_10 
REMARK    4  A    between atoms: C_10  and  C_11 
REMARK    5  A    between atoms: C_14  and  O_15 
ROOT
HETATM    1  C   UNL     1      20.723  48.825  48.411  1.00  0.00     0.105 C 
HETATM    2  C   UNL     1      19.421  48.137  48.036  1.00  0.00     0.140 C 
HETATM    3  N   UNL     1      18.444  48.933  48.740  1.00  0.00    -0.347 N 
HETATM    4  C   UNL     1      18.986  49.546  49.855  1.00  0.00     0.221 C 
HETATM    5  O   UNL     1      18.389  50.189  50.702  1.00  0.00    -0.273 OA
HETATM    6  C   UNL     1      20.471  49.281  49.850  1.00  0.00     0.118 C 
ENDROOT
BRANCH   1   7
HETATM    7  C   UNL     1      21.948  47.943  48.279  1.00  0.00     0.228 C 
HETATM    8  N   UNL     1      22.722  47.989  49.419  1.00  0.00    -0.325 N 
HETATM    9  H   UNL     1      22.434  48.594  50.188  1.00  0.00     0.169 HD
HETATM   10  O   UNL     1      22.198  47.324  47.252  1.00  0.00    -0.273 OA
BRANCH   8  11
HETATM   11  C   UNL     1      23.971  47.374  49.679  1.00  0.00     0.065 A 
HETATM   12  C   UNL     1      24.107  46.086  50.205  1.00  0.00     0.038 A 
HETATM   13  C   UNL     1      25.377  45.538  50.415  1.00  0.00    -0.059 A 
HETATM   14  C   UNL     1      25.527  44.168  51.011  1.00  0.00     0.048 C 
HETATM   15  C   UNL     1      26.508  46.306  50.118  1.00  0.00     0.020 A 
HETATM   16  C   UNL     1      26.377  47.601  49.592  1.00  0.00    -0.005 A 
HETATM   17  C   UNL     1      25.099  48.152  49.367  1.00  0.00     0.093 A 
HETATM   18  C   UNL     1      27.498  48.380  49.273  1.00  0.00     0.015 A 
HETATM   19  N   UNL     1      24.936  49.398  48.856  1.00  0.00    -0.258 NA
HETATM   20  C   UNL     1      26.042  50.116  48.562  1.00  0.00     0.117 A 
HETATM   21  C   UNL     1      27.330  49.657  48.750  1.00  0.00     0.020 A 
ENDBRANCH   8  11
ENDBRANCH   1   7
BRANCH   3  22
HETATM   22  C   UNL     1      17.040  48.968  48.390  1.00  0.00     0.164 C 
BRANCH  22  23
HETATM   23  C   UNL     1      16.604  50.239  47.709  1.00  0.00    -0.040 A 
HETATM   24  C   UNL     1      16.849  50.435  46.343  1.00  0.00     0.011 A 
HETATM   25  C   UNL     1      16.356  51.569  45.693  1.00  0.00     0.037 A 
HETATM   26  C   UNL     1      15.600  52.513  46.389  1.00  0.00     0.068 A 
HETATM   27  C   UNL     1      15.391  52.349  47.758  1.00  0.00     0.037 A 
HETATM   28  C   UNL     1      15.890  51.218  48.413  1.00  0.00     0.011 A 
BRANCH  26  29
HETATM   29  O   UNL     1      15.133  53.559  45.639  1.00  0.00    -0.356 OA
HETATM   30  C   UNL     1      14.029  54.266  46.194  1.00  0.00     0.210 C 
ENDBRANCH  26  29
ENDBRANCH  22  23
ENDBRANCH   3  22
TORSDOF 5
ENDMDL
