MODEL 1
REMARK VINA RESULT:      -7.9      0.000      0.000
REMARK  3 active torsions:
REMARK  status: ('A' for Active; 'I' for Inactive)
REMARK    1  A    between atoms: C_4  and  C_5 
REMARK    2  A    between atoms: C_5  and  N_6 
REMARK    3  A    between atoms: N_10  and  S_11 
ROOT
HETATM    1  N   UNL     1      31.707  53.278  40.608  1.00  0.00    -0.063 N 
HETATM    2  H   UNL     1      31.954  53.620  41.541  1.00  0.00     0.280 HD
HETATM    3  C   UNL     1      30.039  52.419  40.623  1.00  0.00     0.267 C 
HETATM    4  C   UNL     1      30.206  50.532  40.212  1.00  0.00     0.067 C 
HETATM    5  N   UNL     1      29.197  50.034  39.188  1.00  0.00    -0.300 N 
HETATM    6  C   UNL     1      29.270  48.578  38.867  1.00  0.00     0.136 C 
HETATM    7  C   UNL     1      29.096  47.732  40.125  1.00  0.00     0.021 C 
HETATM    8  C   UNL     1      29.925  48.217  41.310  1.00  0.00     0.004 C 
HETATM    9  C   UNL     1      29.838  49.733  41.510  1.00  0.00     0.033 C 
HETATM   10  C   UNL     1      31.965  49.958  39.698  1.00  0.00     0.035 C 
HETATM   11  C   UNL     1      33.359  51.125  39.147  1.00  0.00     0.030 C 
HETATM   12  C   UNL     1      33.207  52.985  39.559  1.00  0.00     0.235 C 
ENDROOT
BRANCH   5  13
HETATM   13  S   UNL     1      27.695  50.780  38.886  1.00  0.00     0.225 S 
HETATM   14  C   UNL     1      26.763  49.603  37.926  1.00  0.00     0.186 C 
HETATM   15  O   UNL     1      26.983  50.914  40.135  1.00  0.00    -0.206 OA
HETATM   16  O   UNL     1      27.960  51.918  38.036  1.00  0.00    -0.206 OA
ENDBRANCH   5  13
BRANCH   1  17
HETATM   17  C   UNL     1      31.882  51.969  40.462  1.00  0.00     0.299 C 
BRANCH  17  18
HETATM   18  C   UNL     1      32.487  51.882  42.274  1.00  0.00     0.079 A 
HETATM   19  O   UNL     1      33.861  52.121  42.422  1.00  0.00    -0.318 OA
HETATM   20  C   UNL     1      34.208  52.021  43.726  1.00  0.00     0.049 A 
HETATM   21  C   UNL     1      35.643  52.157  44.045  1.00  0.00     0.076 C 
HETATM   22  C   UNL     1      33.095  51.789  44.487  1.00  0.00     0.035 A 
HETATM   23  C   UNL     1      32.002  51.724  43.585  1.00  0.00     0.037 A 
ENDBRANCH  17  18
ENDBRANCH   1  17
TORSDOF 3
ENDMDL
MODEL 2
REMARK VINA RESULT:      -7.7      2.106      3.431
REMARK  3 active torsions:
REMARK  status: ('A' for Active; 'I' for Inactive)
REMARK    1  A    between atoms: C_4  and  C_5 
REMARK    2  A    between atoms: C_5  and  N_6 
REMARK    3  A    between atoms: N_10  and  S_11 
ROOT
HETATM    1  N   UNL     1      32.548  48.679  40.047  1.00  0.00    -0.063 N 
HETATM    2  H   UNL     1      33.464  49.086  39.836  1.00  0.00     0.280 HD
HETATM    3  C   UNL     1      31.174  49.628  39.192  1.00  0.00     0.267 C 
HETATM    4  C   UNL     1      30.005  50.495  40.474  1.00  0.00     0.067 C 
HETATM    5  N   UNL     1      28.524  50.298  40.185  1.00  0.00    -0.300 N 
HETATM    6  C   UNL     1      27.588  50.976  41.129  1.00  0.00     0.136 C 
HETATM    7  C   UNL     1      27.847  52.479  41.170  1.00  0.00     0.021 C 
HETATM    8  C   UNL     1      29.323  52.844  41.285  1.00  0.00     0.004 C 
HETATM    9  C   UNL     1      30.207  52.042  40.323  1.00  0.00     0.033 C 
HETATM   10  C   UNL     1      30.352  50.074  42.315  1.00  0.00     0.035 C 
HETATM   11  C   UNL     1      31.395  48.599  42.904  1.00  0.00     0.030 C 
HETATM   12  C   UNL     1      32.558  47.748  41.650  1.00  0.00     0.235 C 
ENDROOT
BRANCH   5  13
HETATM   13  S   UNL     1      27.889  49.950  38.643  1.00  0.00     0.225 S 
HETATM   14  C   UNL     1      26.119  50.054  38.821  1.00  0.00     0.186 C 
HETATM   15  O   UNL     1      28.252  51.016  37.739  1.00  0.00    -0.206 OA
HETATM   16  O   UNL     1      28.214  48.571  38.361  1.00  0.00    -0.206 OA
ENDBRANCH   5  13
BRANCH   1  17
HETATM   17  C   UNL     1      31.859  49.368  40.950  1.00  0.00     0.299 C 
BRANCH  17  18
HETATM   18  C   UNL     1      33.419  50.424  41.284  1.00  0.00     0.079 A 
HETATM   19  O   UNL     1      33.848  51.162  40.171  1.00  0.00    -0.318 OA
HETATM   20  C   UNL     1      34.963  51.862  40.486  1.00  0.00     0.049 A 
HETATM   21  C   UNL     1      35.599  52.625  39.393  1.00  0.00     0.076 C 
HETATM   22  C   UNL     1      35.270  51.679  41.806  1.00  0.00     0.035 A 
HETATM   23  C   UNL     1      34.290  50.794  42.325  1.00  0.00     0.037 A 
ENDBRANCH  17  18
ENDBRANCH   1  17
TORSDOF 3
ENDMDL
MODEL 3
REMARK VINA RESULT:      -7.5      1.556      1.879
REMARK  3 active torsions:
REMARK  status: ('A' for Active; 'I' for Inactive)
REMARK    1  A    between atoms: C_4  and  C_5 
REMARK    2  A    between atoms: C_5  and  N_6 
REMARK    3  A    between atoms: N_10  and  S_11 
ROOT
HETATM    1  N   UNL     1      31.973  52.535  41.382  1.00  0.00    -0.063 N 
HETATM    2  H   UNL     1      32.710  52.538  42.093  1.00  0.00     0.280 HD
HETATM    3  C   UNL     1      30.638  51.283  41.797  1.00  0.00     0.267 C 
HETATM    4  C   UNL     1      30.569  49.856  40.486  1.00  0.00     0.067 C 
HETATM    5  N   UNL     1      29.162  49.525  40.012  1.00  0.00    -0.300 N 
HETATM    6  C   UNL     1      29.060  48.410  39.026  1.00  0.00     0.136 C 
HETATM    7  C   UNL     1      29.663  47.126  39.589  1.00  0.00     0.021 C 
HETATM    8  C   UNL     1      31.017  47.328  40.261  1.00  0.00     0.004 C 
HETATM    9  C   UNL     1      31.036  48.540  41.198  1.00  0.00     0.033 C 
HETATM   10  C   UNL     1      31.713  50.088  38.961  1.00  0.00     0.035 C 
HETATM   11  C   UNL     1      32.508  51.737  38.454  1.00  0.00     0.030 C 
HETATM   12  C   UNL     1      32.591  53.144  39.743  1.00  0.00     0.235 C 
ENDROOT
BRANCH   5  13
HETATM   13  S   UNL     1      27.750  49.842  40.912  1.00  0.00     0.225 S 
HETATM   14  C   UNL     1      26.497  48.777  40.226  1.00  0.00     0.186 C 
HETATM   15  O   UNL     1      27.951  49.385  42.267  1.00  0.00    -0.206 OA
HETATM   16  O   UNL     1      27.367  51.204  40.619  1.00  0.00    -0.206 OA
ENDBRANCH   5  13
BRANCH   1  17
HETATM   17  C   UNL     1      32.054  51.508  40.542  1.00  0.00     0.299 C 
BRANCH  17  18
HETATM   18  C   UNL     1      33.734  51.042  41.328  1.00  0.00     0.079 A 
HETATM   19  O   UNL     1      34.155  51.932  42.327  1.00  0.00    -0.318 OA
HETATM   20  C   UNL     1      35.356  51.542  42.814  1.00  0.00     0.049 A 
HETATM   21  C   UNL     1      35.986  52.426  43.816  1.00  0.00     0.076 C 
HETATM   22  C   UNL     1      35.739  50.369  42.224  1.00  0.00     0.035 A 
HETATM   23  C   UNL     1      34.713  50.032  41.304  1.00  0.00     0.037 A 
ENDBRANCH  17  18
ENDBRANCH   1  17
TORSDOF 3
ENDMDL
MODEL 4
REMARK VINA RESULT:      -7.4      3.100      4.919
REMARK  3 active torsions:
REMARK  status: ('A' for Active; 'I' for Inactive)
REMARK    1  A    between atoms: C_4  and  C_5 
REMARK    2  A    between atoms: C_5  and  N_6 
REMARK    3  A    between atoms: N_10  and  S_11 
ROOT
HETATM    1  N   UNL     1      31.862  48.987  39.839  1.00  0.00    -0.063 N 
HETATM    2  H   UNL     1      32.007  49.899  39.394  1.00  0.00     0.280 HD
HETATM    3  C   UNL     1      30.469  48.043  39.008  1.00  0.00     0.267 C 
HETATM    4  C   UNL     1      28.970  47.784  40.209  1.00  0.00     0.067 C 
HETATM    5  N   UNL     1      28.425  46.363  40.215  1.00  0.00    -0.300 N 
HETATM    6  C   UNL     1      27.249  46.128  41.103  1.00  0.00     0.136 C 
HETATM    7  C   UNL     1      26.094  47.056  40.736  1.00  0.00     0.021 C 
HETATM    8  C   UNL     1      26.516  48.506  40.525  1.00  0.00     0.004 C 
HETATM    9  C   UNL     1      27.774  48.635  39.659  1.00  0.00     0.033 C 
HETATM   10  C   UNL     1      29.261  48.358  42.019  1.00  0.00     0.035 C 
HETATM   11  C   UNL     1      30.968  48.708  42.775  1.00  0.00     0.030 C 
HETATM   12  C   UNL     1      32.449  48.976  41.597  1.00  0.00     0.235 C 
ENDROOT
BRANCH   5  13
HETATM   13  S   UNL     1      28.603  45.267  38.924  1.00  0.00     0.225 S 
HETATM   14  C   UNL     1      27.367  44.012  39.189  1.00  0.00     0.186 C 
HETATM   15  O   UNL     1      28.228  45.929  37.697  1.00  0.00    -0.206 OA
HETATM   16  O   UNL     1      29.896  44.641  39.085  1.00  0.00    -0.206 OA
ENDBRANCH   5  13
BRANCH   1  17
HETATM   17  C   UNL     1      30.807  48.956  40.646  1.00  0.00     0.299 C 
BRANCH  17  18
HETATM   18  C   UNL     1      30.597  50.840  40.390  1.00  0.00     0.079 A 
HETATM   19  O   UNL     1      29.699  51.172  39.365  1.00  0.00    -0.318 OA
HETATM   20  C   UNL     1      29.626  52.518  39.237  1.00  0.00     0.049 A 
HETATM   21  C   UNL     1      28.788  53.036  38.137  1.00  0.00     0.076 C 
HETATM   22  C   UNL     1      30.396  53.119  40.194  1.00  0.00     0.035 A 
HETATM   23  C   UNL     1      30.994  52.071  40.941  1.00  0.00     0.037 A 
ENDBRANCH  17  18
ENDBRANCH   1  17
TORSDOF 3
ENDMDL
MODEL 5
REMARK VINA RESULT:      -7.4      2.437      6.128
REMARK  3 active torsions:
REMARK  status: ('A' for Active; 'I' for Inactive)
REMARK    1  A    between atoms: C_4  and  C_5 
REMARK    2  A    between atoms: C_5  and  N_6 
REMARK    3  A    between atoms: N_10  and  S_11 
ROOT
HETATM    1  N   UNL     1      30.354  51.431  37.651  1.00  0.00    -0.063 N 
HETATM    2  H   UNL     1      29.939  50.657  37.123  1.00  0.00     0.280 HD
HETATM    3  C   UNL     1      31.830  50.850  38.652  1.00  0.00     0.267 C 
HETATM    4  C   UNL     1      31.502  51.003  40.558  1.00  0.00     0.067 C 
HETATM    5  N   UNL     1      32.648  51.640  41.329  1.00  0.00    -0.300 N 
HETATM    6  C   UNL     1      32.450  51.747  42.805  1.00  0.00     0.136 C 
HETATM    7  C   UNL     1      32.193  50.375  43.422  1.00  0.00     0.021 C 
HETATM    8  C   UNL     1      31.180  49.536  42.652  1.00  0.00     0.004 C 
HETATM    9  C   UNL     1      31.429  49.549  41.140  1.00  0.00     0.033 C 
HETATM   10  C   UNL     1      29.856  51.867  41.039  1.00  0.00     0.035 C 
HETATM   11  C   UNL     1      28.815  52.933  39.860  1.00  0.00     0.030 C 
HETATM   12  C   UNL     1      29.125  52.780  37.980  1.00  0.00     0.235 C 
ENDROOT
BRANCH   5  13
HETATM   13  S   UNL     1      34.268  51.647  40.802  1.00  0.00     0.225 S 
HETATM   14  C   UNL     1      35.246  51.895  42.271  1.00  0.00     0.186 C 
HETATM   15  O   UNL     1      34.608  50.327  40.327  1.00  0.00    -0.206 OA
HETATM   16  O   UNL     1      34.430  52.819  39.972  1.00  0.00    -0.206 OA
ENDBRANCH   5  13
BRANCH   1  17
HETATM   17  C   UNL     1      30.035  51.420  38.941  1.00  0.00     0.299 C 
BRANCH  17  18
HETATM   18  C   UNL     1      28.869  49.941  38.606  1.00  0.00     0.079 A 
HETATM   19  O   UNL     1      29.539  48.715  38.473  1.00  0.00    -0.318 OA
HETATM   20  C   UNL     1      28.646  47.730  38.218  1.00  0.00     0.049 A 
HETATM   21  C   UNL     1      29.198  46.384  37.961  1.00  0.00     0.076 C 
HETATM   22  C   UNL     1      27.375  48.235  38.242  1.00  0.00     0.035 A 
HETATM   23  C   UNL     1      27.503  49.622  38.510  1.00  0.00     0.037 A 
ENDBRANCH  17  18
ENDBRANCH   1  17
TORSDOF 3
ENDMDL
MODEL 6
REMARK VINA RESULT:      -7.3      2.297      3.053
REMARK  3 active torsions:
REMARK  status: ('A' for Active; 'I' for Inactive)
REMARK    1  A    between atoms: C_4  and  C_5 
REMARK    2  A    between atoms: C_5  and  N_6 
REMARK    3  A    between atoms: N_10  and  S_11 
ROOT
HETATM    1  N   UNL     1      28.907  51.696  41.704  1.00  0.00    -0.063 N 
HETATM    2  H   UNL     1      29.609  51.902  42.421  1.00  0.00     0.280 HD
HETATM    3  C   UNL     1      28.487  49.868  41.674  1.00  0.00     0.267 C 
HETATM    4  C   UNL     1      29.027  49.041  40.005  1.00  0.00     0.067 C 
HETATM    5  N   UNL     1      27.959  48.151  39.387  1.00  0.00    -0.300 N 
HETATM    6  C   UNL     1      28.345  47.469  38.117  1.00  0.00     0.136 C 
HETATM    7  C   UNL     1      29.593  46.612  38.315  1.00  0.00     0.021 C 
HETATM    8  C   UNL     1      30.706  47.318  39.082  1.00  0.00     0.004 C 
HETATM    9  C   UNL     1      30.194  48.046  40.329  1.00  0.00     0.033 C 
HETATM   10  C   UNL     1      29.694  50.250  38.670  1.00  0.00     0.035 C 
HETATM   11  C   UNL     1      29.440  52.132  38.700  1.00  0.00     0.030 C 
HETATM   12  C   UNL     1      28.919  52.956  40.343  1.00  0.00     0.235 C 
ENDROOT
BRANCH   5  13
HETATM   13  S   UNL     1      26.707  47.407  40.270  1.00  0.00     0.225 S 
HETATM   14  C   UNL     1      25.984  46.213  39.161  1.00  0.00     0.186 C 
HETATM   15  O   UNL     1      27.289  46.637  41.344  1.00  0.00    -0.206 OA
HETATM   16  O   UNL     1      25.711  48.424  40.518  1.00  0.00    -0.206 OA
ENDBRANCH   5  13
BRANCH   1  17
HETATM   17  C   UNL     1      29.418  51.144  40.608  1.00  0.00     0.299 C 
BRANCH  17  18
HETATM   18  C   UNL     1      31.156  51.270  41.396  1.00  0.00     0.079 A 
HETATM   19  O   UNL     1      31.132  51.503  42.779  1.00  0.00    -0.318 OA
HETATM   20  C   UNL     1      32.397  51.599  43.251  1.00  0.00     0.049 A 
HETATM   21  C   UNL     1      32.549  51.935  44.681  1.00  0.00     0.076 C 
HETATM   22  C   UNL     1      33.289  51.367  42.241  1.00  0.00     0.035 A 
HETATM   23  C   UNL     1      32.518  51.135  41.073  1.00  0.00     0.037 A 
ENDBRANCH  17  18
ENDBRANCH   1  17
TORSDOF 3
ENDMDL
MODEL 7
REMARK VINA RESULT:      -7.2      2.199      3.519
REMARK  3 active torsions:
REMARK  status: ('A' for Active; 'I' for Inactive)
REMARK    1  A    between atoms: C_4  and  C_5 
REMARK    2  A    between atoms: C_5  and  N_6 
REMARK    3  A    between atoms: N_10  and  S_11 
ROOT
HETATM    1  N   UNL     1      32.620  49.820  42.149  1.00  0.00    -0.063 N 
HETATM    2  H   UNL     1      33.577  49.795  41.783  1.00  0.00     0.280 HD
HETATM    3  C   UNL     1      31.393  49.194  40.876  1.00  0.00     0.267 C 
HETATM    4  C   UNL     1      30.179  50.596  40.309  1.00  0.00     0.067 C 
HETATM    5  N   UNL     1      28.719  50.170  40.281  1.00  0.00    -0.300 N 
HETATM    6  C   UNL     1      27.753  51.209  39.819  1.00  0.00     0.136 C 
HETATM    7  C   UNL     1      28.110  51.703  38.419  1.00  0.00     0.021 C 
HETATM    8  C   UNL     1      29.592  52.012  38.237  1.00  0.00     0.004 C 
HETATM    9  C   UNL     1      30.498  50.916  38.808  1.00  0.00     0.033 C 
HETATM   10  C   UNL     1      30.337  52.253  41.267  1.00  0.00     0.035 C 
HETATM   11  C   UNL     1      31.222  52.451  42.936  1.00  0.00     0.030 C 
HETATM   12  C   UNL     1      32.428  51.079  43.496  1.00  0.00     0.235 C 
ENDROOT
BRANCH   5  13
HETATM   13  S   UNL     1      28.197  48.556  40.116  1.00  0.00     0.225 S 
HETATM   14  C   UNL     1      26.441  48.649  39.827  1.00  0.00     0.186 C 
HETATM   15  O   UNL     1      28.761  48.007  38.905  1.00  0.00    -0.206 OA
HETATM   16  O   UNL     1      28.391  47.923  41.400  1.00  0.00    -0.206 OA
ENDBRANCH   5  13
BRANCH   1  17
HETATM   17  C   UNL     1      31.905  50.840  41.688  1.00  0.00     0.299 C 
BRANCH  17  18
HETATM   18  C   UNL     1      33.439  51.430  40.710  1.00  0.00     0.079 A 
HETATM   19  O   UNL     1      34.518  51.803  41.526  1.00  0.00    -0.318 OA
HETATM   20  C   UNL     1      35.550  52.225  40.759  1.00  0.00     0.049 A 
HETATM   21  C   UNL     1      36.737  52.741  41.468  1.00  0.00     0.076 C 
HETATM   22  C   UNL     1      35.233  52.086  39.435  1.00  0.00     0.035 A 
HETATM   23  C   UNL     1      33.915  51.563  39.393  1.00  0.00     0.037 A 
ENDBRANCH  17  18
ENDBRANCH   1  17
TORSDOF 3
ENDMDL
MODEL 8
REMARK VINA RESULT:      -7.0     12.495     14.217
REMARK  3 active torsions:
REMARK  status: ('A' for Active; 'I' for Inactive)
REMARK    1  A    between atoms: C_4  and  C_5 
REMARK    2  A    between atoms: C_5  and  N_6 
REMARK    3  A    between atoms: N_10  and  S_11 
ROOT
HETATM    1  N   UNL     1      19.730  48.909  49.870  1.00  0.00    -0.063 N 
HETATM    2  H   UNL     1      20.675  48.516  49.822  1.00  0.00     0.280 HD
HETATM    3  C   UNL     1      18.666  48.283  48.457  1.00  0.00     0.267 C 
HETATM    4  C   UNL     1      18.157  49.720  47.259  1.00  0.00     0.067 C 
HETATM    5  N   UNL     1      16.682  49.718  46.888  1.00  0.00    -0.300 N 
HETATM    6  C   UNL     1      16.254  50.789  45.941  1.00  0.00     0.136 C 
HETATM    7  C   UNL     1      17.049  50.718  44.641  1.00  0.00     0.021 C 
HETATM    8  C   UNL     1      18.550  50.544  44.848  1.00  0.00     0.004 C 
HETATM    9  C   UNL     1      18.881  49.470  45.891  1.00  0.00     0.033 C 
HETATM   10  C   UNL     1      18.664  51.482  47.831  1.00  0.00     0.035 C 
HETATM   11  C   UNL     1      19.183  51.930  49.603  1.00  0.00     0.030 C 
HETATM   12  C   UNL     1      19.697  50.520  50.786  1.00  0.00     0.235 C 
ENDROOT
BRANCH   5  13
HETATM   13  S   UNL     1      15.687  48.335  46.933  1.00  0.00     0.225 S 
HETATM   14  C   UNL     1      14.202  48.787  46.057  1.00  0.00     0.186 C 
HETATM   15  O   UNL     1      16.302  47.295  46.144  1.00  0.00    -0.206 OA
HETATM   16  O   UNL     1      15.326  48.127  48.316  1.00  0.00    -0.206 OA
ENDBRANCH   5  13
BRANCH   1  17
HETATM   17  C   UNL     1      19.523  49.894  49.003  1.00  0.00     0.299 C 
BRANCH  17  18
HETATM   18  C   UNL     1      21.386  49.856  48.567  1.00  0.00     0.079 A 
HETATM   19  O   UNL     1      22.093  48.829  49.210  1.00  0.00    -0.318 OA
HETATM   20  C   UNL     1      23.401  48.886  48.865  1.00  0.00     0.049 A 
HETATM   21  C   UNL     1      24.305  47.925  49.528  1.00  0.00     0.076 C 
HETATM   22  C   UNL     1      23.597  49.881  47.948  1.00  0.00     0.035 A 
HETATM   23  C   UNL     1      22.330  50.483  47.734  1.00  0.00     0.037 A 
ENDBRANCH  17  18
ENDBRANCH   1  17
TORSDOF 3
ENDMDL
MODEL 9
REMARK VINA RESULT:      -6.8      2.441      6.851
REMARK  3 active torsions:
REMARK  status: ('A' for Active; 'I' for Inactive)
REMARK    1  A    between atoms: C_4  and  C_5 
REMARK    2  A    between atoms: C_5  and  N_6 
REMARK    3  A    between atoms: N_10  and  S_11 
ROOT
HETATM    1  N   UNL     1      27.499  48.683  41.591  1.00  0.00    -0.063 N 
HETATM    2  H   UNL     1      26.513  48.924  41.456  1.00  0.00     0.280 HD
HETATM    3  C   UNL     1      28.576  50.219  41.594  1.00  0.00     0.267 C 
HETATM    4  C   UNL     1      29.790  50.239  40.082  1.00  0.00     0.067 C 
HETATM    5  N   UNL     1      31.223  50.597  40.448  1.00  0.00    -0.300 N 
HETATM    6  C   UNL     1      32.184  50.656  39.308  1.00  0.00     0.136 C 
HETATM    7  C   UNL     1      31.720  51.657  38.254  1.00  0.00     0.021 C 
HETATM    8  C   UNL     1      30.242  51.536  37.901  1.00  0.00     0.004 C 
HETATM    9  C   UNL     1      29.347  51.410  39.139  1.00  0.00     0.033 C 
HETATM   10  C   UNL     1      29.790  48.645  39.010  1.00  0.00     0.035 C 
HETATM   11  C   UNL     1      29.072  46.976  39.564  1.00  0.00     0.030 C 
HETATM   12  C   UNL     1      27.867  46.949  41.046  1.00  0.00     0.235 C 
ENDROOT
BRANCH   5  13
HETATM   13  S   UNL     1      31.659  51.499  41.826  1.00  0.00     0.225 S 
HETATM   14  C   UNL     1      31.863  50.306  43.133  1.00  0.00     0.186 C 
HETATM   15  O   UNL     1      32.968  52.069  41.612  1.00  0.00    -0.206 OA
HETATM   16  O   UNL     1      30.519  52.320  42.164  1.00  0.00    -0.206 OA
ENDBRANCH   5  13
BRANCH   1  17
HETATM   17  C   UNL     1      28.211  48.724  40.470  1.00  0.00     0.299 C 
BRANCH  17  18
HETATM   18  C   UNL     1      26.610  49.141  39.509  1.00  0.00     0.079 A 
HETATM   19  O   UNL     1      25.462  48.530  40.036  1.00  0.00    -0.318 OA
HETATM   20  C   UNL     1      24.383  48.858  39.289  1.00  0.00     0.049 A 
HETATM   21  C   UNL     1      23.102  48.223  39.657  1.00  0.00     0.076 C 
HETATM   22  C   UNL     1      24.747  49.735  38.304  1.00  0.00     0.035 A 
HETATM   23  C   UNL     1      26.144  49.939  38.449  1.00  0.00     0.037 A 
ENDBRANCH  17  18
ENDBRANCH   1  17
TORSDOF 3
ENDMDL
MODEL 10
REMARK VINA RESULT:      -6.6     25.376     27.014
REMARK  3 active torsions:
REMARK  status: ('A' for Active; 'I' for Inactive)
REMARK    1  A    between atoms: C_4  and  C_5 
REMARK    2  A    between atoms: C_5  and  N_6 
REMARK    3  A    between atoms: N_10  and  S_11 
ROOT
HETATM    1  N   UNL     1      38.000  45.545  67.490  1.00  0.00    -0.063 N 
HETATM    2  H   UNL     1      38.096  46.558  67.369  1.00  0.00     0.280 HD
HETATM    3  C   UNL     1      39.406  44.629  66.652  1.00  0.00     0.267 C 
HETATM    4  C   UNL     1      38.768  43.538  65.181  1.00  0.00     0.067 C 
HETATM    5  N   UNL     1      39.332  42.125  65.174  1.00  0.00    -0.300 N 
HETATM    6  C   UNL     1      38.891  41.261  64.040  1.00  0.00     0.136 C 
HETATM    7  C   UNL     1      39.244  41.898  62.699  1.00  0.00     0.021 C 
HETATM    8  C   UNL     1      38.892  43.379  62.612  1.00  0.00     0.004 C 
HETATM    9  C   UNL     1      39.324  44.163  63.856  1.00  0.00     0.033 C 
HETATM   10  C   UNL     1      36.859  43.458  64.989  1.00  0.00     0.035 C 
HETATM   11  C   UNL     1      35.619  43.964  66.337  1.00  0.00     0.030 C 
HETATM   12  C   UNL     1      36.238  45.049  67.783  1.00  0.00     0.235 C 
ENDROOT
BRANCH   5  13
HETATM   13  S   UNL     1      40.803  41.679  65.910  1.00  0.00     0.225 S 
HETATM   14  C   UNL     1      41.138  40.024  65.341  1.00  0.00     0.186 C 
HETATM   15  O   UNL     1      41.860  42.499  65.368  1.00  0.00    -0.206 OA
HETATM   16  O   UNL     1      40.551  41.605  67.331  1.00  0.00    -0.206 OA
ENDBRANCH   5  13
BRANCH   1  17
HETATM   17  C   UNL     1      37.540  44.926  66.408  1.00  0.00     0.299 C 
BRANCH  17  18
HETATM   18  C   UNL     1      37.354  46.627  65.554  1.00  0.00     0.079 A 
HETATM   19  O   UNL     1      38.570  47.305  65.377  1.00  0.00    -0.318 OA
HETATM   20  C   UNL     1      38.347  48.503  64.788  1.00  0.00     0.049 A 
HETATM   21  C   UNL     1      39.518  49.384  64.611  1.00  0.00     0.076 C 
HETATM   22  C   UNL     1      37.018  48.636  64.491  1.00  0.00     0.035 A 
HETATM   23  C   UNL     1      36.387  47.449  64.948  1.00  0.00     0.037 A 
ENDBRANCH  17  18
ENDBRANCH   1  17
TORSDOF 3
ENDMDL
