MODEL 1
REMARK VINA RESULT:      -8.9      0.000      0.000
REMARK  6 active torsions:
REMARK  status: ('A' for Active; 'I' for Inactive)
REMARK    1  A    between atoms: C_4  and  C_5 
REMARK    2  A    between atoms: C_5  and  N_6 
REMARK    3  A    between atoms: C_10  and  C_11 
REMARK    4  A    between atoms: C_11  and  C_12 
REMARK    5  A    between atoms: N_21  and  C_22 
REMARK    6  A    between atoms: C_22  and  C_23 
ROOT
HETATM    1  C   UNL     1      33.042  50.503  41.497  1.00  0.00     0.149 C 
HETATM    2  N   UNL     1      32.846  50.455  40.056  1.00  0.00    -0.220 NA
HETATM    3  C   UNL     1      32.200  51.589  39.606  1.00  0.00     0.304 C 
HETATM    4  O   UNL     1      32.063  51.828  38.420  1.00  0.00    -0.253 OA
HETATM    5  N   UNL     1      31.744  52.299  40.667  1.00  0.00    -0.270 N 
HETATM    6  C   UNL     1      32.104  51.682  41.832  1.00  0.00     0.257 C 
HETATM    7  O   UNL     1      31.734  51.982  42.958  1.00  0.00    -0.270 OA
HETATM    8  H   UNL     1      33.657  50.234  39.482  1.00  0.00     0.134 HD
ENDROOT
BRANCH   1   9
HETATM    9  C   UNL     1      32.593  49.194  42.229  1.00  0.00     0.028 C 
HETATM   10  C   UNL     1      32.754  47.899  41.411  1.00  0.00     0.035 C 
HETATM   11  C   UNL     1      31.739  47.762  40.287  1.00  0.00     0.235 C 
HETATM   12  N   UNL     1      30.337  47.820  40.853  1.00  0.00    -0.067 N 
HETATM   13  H   UNL     1      30.229  46.986  41.440  1.00  0.00     0.280 HD
HETATM   14  C   UNL     1      30.070  49.034  41.710  1.00  0.00     0.235 C 
HETATM   15  C   UNL     1      31.148  49.216  42.771  1.00  0.00     0.035 C 
BRANCH  12  16
HETATM   16  C   UNL     1      29.260  47.717  39.777  1.00  0.00     0.274 C 
BRANCH  16  17
HETATM   17  C   UNL     1      28.228  46.644  40.021  1.00  0.00    -0.026 A 
HETATM   18  C   UNL     1      28.597  45.295  39.842  1.00  0.00     0.016 A 
HETATM   19  C   UNL     1      27.666  44.262  40.004  1.00  0.00    -0.061 A 
HETATM   20  C   UNL     1      28.067  42.824  39.845  1.00  0.00     0.048 C 
HETATM   21  C   UNL     1      26.360  44.581  40.377  1.00  0.00     0.007 A 
HETATM   22  C   UNL     1      25.982  45.909  40.571  1.00  0.00     0.008 A 
HETATM   23  C   UNL     1      26.901  46.953  40.394  1.00  0.00    -0.054 A 
HETATM   24  C   UNL     1      26.435  48.363  40.650  1.00  0.00     0.049 C 
ENDBRANCH  16  17
ENDBRANCH  12  16
ENDBRANCH   1   9
BRANCH   1  25
HETATM   25  C   UNL     1      34.509  50.832  41.776  1.00  0.00     0.067 A 
HETATM   26  N   UNL     1      34.721  51.690  42.821  1.00  0.00    -0.263 NA
HETATM   27  C   UNL     1      36.001  52.024  43.107  1.00  0.00     0.117 A 
HETATM   28  C   UNL     1      37.090  51.569  42.388  1.00  0.00     0.019 A 
HETATM   29  C   UNL     1      36.860  50.718  41.314  1.00  0.00     0.003 A 
HETATM   30  C   UNL     1      35.556  50.345  40.996  1.00  0.00     0.030 A 
ENDBRANCH   1  25
BRANCH   5  31
HETATM   31  C   UNL     1      30.967  53.522  40.553  1.00  0.00     0.168 C 
BRANCH  31  32
HETATM   32  C   UNL     1      29.460  53.279  40.440  1.00  0.00     0.140 C 
HETATM   33  O   UNL     1      29.152  52.447  39.306  1.00  0.00    -0.384 OA
HETATM   34  C   UNL     1      27.995  51.658  39.634  1.00  0.00     0.168 C 
HETATM   35  C   UNL     1      27.594  52.010  41.055  1.00  0.00     0.029 C 
HETATM   36  C   UNL     1      28.880  52.545  41.636  1.00  0.00     0.036 C 
ENDBRANCH  31  32
ENDBRANCH   5  31
TORSDOF 6
ENDMDL
MODEL 2
REMARK VINA RESULT:      -8.8     10.425     12.417
REMARK  6 active torsions:
REMARK  status: ('A' for Active; 'I' for Inactive)
REMARK    1  A    between atoms: C_4  and  C_5 
REMARK    2  A    between atoms: C_5  and  N_6 
REMARK    3  A    between atoms: C_10  and  C_11 
REMARK    4  A    between atoms: C_11  and  C_12 
REMARK    5  A    between atoms: N_21  and  C_22 
REMARK    6  A    between atoms: C_22  and  C_23 
ROOT
HETATM    1  C   UNL     1      26.699  43.325  51.245  1.00  0.00     0.149 C 
HETATM    2  N   UNL     1      27.348  43.949  50.101  1.00  0.00    -0.220 NA
HETATM    3  C   UNL     1      26.934  45.257  49.951  1.00  0.00     0.304 C 
HETATM    4  O   UNL     1      27.455  46.012  49.150  1.00  0.00    -0.253 OA
HETATM    5  N   UNL     1      25.884  45.495  50.775  1.00  0.00    -0.270 N 
HETATM    6  C   UNL     1      25.603  44.378  51.509  1.00  0.00     0.257 C 
HETATM    7  O   UNL     1      24.635  44.211  52.238  1.00  0.00    -0.270 OA
HETATM    8  H   UNL     1      28.361  43.867  50.037  1.00  0.00     0.134 HD
ENDROOT
BRANCH   1   9
HETATM    9  C   UNL     1      26.078  41.926  50.919  1.00  0.00     0.028 C 
HETATM   10  C   UNL     1      27.077  40.754  50.896  1.00  0.00     0.035 C 
HETATM   11  C   UNL     1      27.994  40.763  49.683  1.00  0.00     0.235 C 
HETATM   12  N   UNL     1      27.168  40.735  48.416  1.00  0.00    -0.067 N 
HETATM   13  H   UNL     1      26.688  39.828  48.406  1.00  0.00     0.280 HD
HETATM   14  C   UNL     1      26.121  41.820  48.341  1.00  0.00     0.235 C 
HETATM   15  C   UNL     1      25.271  41.864  49.604  1.00  0.00     0.035 C 
BRANCH  12  16
HETATM   16  C   UNL     1      28.022  40.770  47.152  1.00  0.00     0.274 C 
BRANCH  16  17
HETATM   17  C   UNL     1      27.928  39.533  46.294  1.00  0.00    -0.026 A 
HETATM   18  C   UNL     1      27.530  38.320  46.893  1.00  0.00     0.016 A 
HETATM   19  C   UNL     1      27.476  37.132  46.156  1.00  0.00    -0.061 A 
HETATM   20  C   UNL     1      27.022  35.847  46.786  1.00  0.00     0.048 C 
HETATM   21  C   UNL     1      27.795  37.163  44.797  1.00  0.00     0.007 A 
HETATM   22  C   UNL     1      28.177  38.357  44.186  1.00  0.00     0.008 A 
HETATM   23  C   UNL     1      28.252  39.550  44.919  1.00  0.00    -0.054 A 
HETATM   24  C   UNL     1      28.642  40.811  44.190  1.00  0.00     0.049 C 
ENDBRANCH  16  17
ENDBRANCH  12  16
ENDBRANCH   1   9
BRANCH   1  25
HETATM   25  C   UNL     1      27.711  43.241  52.389  1.00  0.00     0.067 A 
HETATM   26  N   UNL     1      27.169  43.297  53.644  1.00  0.00    -0.263 NA
HETATM   27  C   UNL     1      28.019  43.236  54.696  1.00  0.00     0.117 A 
HETATM   28  C   UNL     1      29.392  43.150  54.567  1.00  0.00     0.019 A 
HETATM   29  C   UNL     1      29.931  43.119  53.286  1.00  0.00     0.003 A 
HETATM   30  C   UNL     1      29.086  43.169  52.180  1.00  0.00     0.030 A 
ENDBRANCH   1  25
BRANCH   5  31
HETATM   31  C   UNL     1      25.164  46.757  50.830  1.00  0.00     0.168 C 
BRANCH  31  32
HETATM   32  C   UNL     1      24.413  47.088  49.538  1.00  0.00     0.140 C 
HETATM   33  O   UNL     1      23.432  46.079  49.235  1.00  0.00    -0.384 OA
HETATM   34  C   UNL     1      22.327  46.717  48.572  1.00  0.00     0.168 C 
HETATM   35  C   UNL     1      22.642  48.199  48.491  1.00  0.00     0.029 C 
HETATM   36  C   UNL     1      23.630  48.387  49.615  1.00  0.00     0.036 C 
ENDBRANCH  31  32
ENDBRANCH   5  31
TORSDOF 6
ENDMDL
MODEL 3
REMARK VINA RESULT:      -8.5     11.287     13.597
REMARK  6 active torsions:
REMARK  status: ('A' for Active; 'I' for Inactive)
REMARK    1  A    between atoms: C_4  and  C_5 
REMARK    2  A    between atoms: C_5  and  N_6 
REMARK    3  A    between atoms: C_10  and  C_11 
REMARK    4  A    between atoms: C_11  and  C_12 
REMARK    5  A    between atoms: N_21  and  C_22 
REMARK    6  A    between atoms: C_22  and  C_23 
ROOT
HETATM    1  C   UNL     1      25.172  42.946  49.618  1.00  0.00     0.149 C 
HETATM    2  N   UNL     1      25.697  44.083  48.878  1.00  0.00    -0.220 NA
HETATM    3  C   UNL     1      26.229  45.027  49.733  1.00  0.00     0.304 C 
HETATM    4  O   UNL     1      26.852  45.991  49.326  1.00  0.00    -0.253 OA
HETATM    5  N   UNL     1      25.900  44.714  51.011  1.00  0.00    -0.270 N 
HETATM    6  C   UNL     1      25.185  43.551  51.038  1.00  0.00     0.257 C 
HETATM    7  O   UNL     1      24.619  43.067  52.008  1.00  0.00    -0.270 OA
HETATM    8  H   UNL     1      26.325  43.886  48.102  1.00  0.00     0.134 HD
ENDROOT
BRANCH   1   9
HETATM    9  C   UNL     1      23.724  42.539  49.187  1.00  0.00     0.028 C 
HETATM   10  C   UNL     1      23.448  42.606  47.673  1.00  0.00     0.035 C 
HETATM   11  C   UNL     1      23.337  44.027  47.140  1.00  0.00     0.235 C 
HETATM   12  N   UNL     1      22.243  44.766  47.877  1.00  0.00    -0.067 N 
HETATM   13  H   UNL     1      21.363  44.298  47.631  1.00  0.00     0.280 HD
HETATM   14  C   UNL     1      22.385  44.736  49.379  1.00  0.00     0.235 C 
HETATM   15  C   UNL     1      22.593  43.317  49.893  1.00  0.00     0.035 C 
BRANCH  12  16
HETATM   16  C   UNL     1      22.091  46.212  47.414  1.00  0.00     0.274 C 
BRANCH  16  17
HETATM   17  C   UNL     1      20.983  46.978  48.095  1.00  0.00    -0.026 A 
HETATM   18  C   UNL     1      19.658  46.517  47.960  1.00  0.00     0.016 A 
HETATM   19  C   UNL     1      18.587  47.217  48.526  1.00  0.00    -0.061 A 
HETATM   20  C   UNL     1      17.178  46.710  48.410  1.00  0.00     0.048 C 
HETATM   21  C   UNL     1      18.848  48.375  49.261  1.00  0.00     0.007 A 
HETATM   22  C   UNL     1      20.154  48.837  49.415  1.00  0.00     0.008 A 
HETATM   23  C   UNL     1      21.233  48.153  48.837  1.00  0.00    -0.054 A 
HETATM   24  C   UNL     1      22.623  48.690  49.069  1.00  0.00     0.049 C 
ENDBRANCH  16  17
ENDBRANCH  12  16
ENDBRANCH   1   9
BRANCH   1  25
HETATM   25  C   UNL     1      26.153  41.781  49.475  1.00  0.00     0.067 A 
HETATM   26  N   UNL     1      27.158  41.980  48.568  1.00  0.00    -0.263 NA
HETATM   27  C   UNL     1      28.050  40.978  48.393  1.00  0.00     0.117 A 
HETATM   28  C   UNL     1      27.982  39.768  49.056  1.00  0.00     0.019 A 
HETATM   29  C   UNL     1      26.943  39.568  49.956  1.00  0.00     0.003 A 
HETATM   30  C   UNL     1      26.011  40.581  50.170  1.00  0.00     0.030 A 
ENDBRANCH   1  25
BRANCH   5  31
HETATM   31  C   UNL     1      26.251  45.529  52.163  1.00  0.00     0.168 C 
BRANCH  31  32
HETATM   32  C   UNL     1      26.984  44.751  53.259  1.00  0.00     0.140 C 
HETATM   33  O   UNL     1      28.104  44.025  52.718  1.00  0.00    -0.384 OA
HETATM   34  C   UNL     1      29.127  43.970  53.727  1.00  0.00     0.168 C 
HETATM   35  C   UNL     1      28.612  44.728  54.937  1.00  0.00     0.029 C 
HETATM   36  C   UNL     1      27.576  45.644  54.335  1.00  0.00     0.036 C 
ENDBRANCH  31  32
ENDBRANCH   5  31
TORSDOF 6
ENDMDL
MODEL 4
REMARK VINA RESULT:      -8.4     12.102     15.404
REMARK  6 active torsions:
REMARK  status: ('A' for Active; 'I' for Inactive)
REMARK    1  A    between atoms: C_4  and  C_5 
REMARK    2  A    between atoms: C_5  and  N_6 
REMARK    3  A    between atoms: C_10  and  C_11 
REMARK    4  A    between atoms: C_11  and  C_12 
REMARK    5  A    between atoms: N_21  and  C_22 
REMARK    6  A    between atoms: C_22  and  C_23 
ROOT
HETATM    1  C   UNL     1      17.957  50.383  48.632  1.00  0.00     0.149 C 
HETATM    2  N   UNL     1      18.743  50.687  47.445  1.00  0.00    -0.220 NA
HETATM    3  C   UNL     1      18.369  49.886  46.385  1.00  0.00     0.304 C 
HETATM    4  O   UNL     1      18.790  50.066  45.257  1.00  0.00    -0.253 OA
HETATM    5  N   UNL     1      17.541  48.908  46.830  1.00  0.00    -0.270 N 
HETATM    6  C   UNL     1      17.320  49.056  48.169  1.00  0.00     0.257 C 
HETATM    7  O   UNL     1      16.739  48.268  48.903  1.00  0.00    -0.270 OA
HETATM    8  H   UNL     1      18.813  51.664  47.168  1.00  0.00     0.134 HD
ENDROOT
BRANCH   1   9
HETATM    9  C   UNL     1      18.828  50.179  49.916  1.00  0.00     0.028 C 
HETATM   10  C   UNL     1      20.045  51.115  50.039  1.00  0.00     0.035 C 
HETATM   11  C   UNL     1      21.171  50.773  49.076  1.00  0.00     0.235 C 
HETATM   12  N   UNL     1      21.619  49.345  49.297  1.00  0.00    -0.067 N 
HETATM   13  H   UNL     1      22.027  49.315  50.238  1.00  0.00     0.280 HD
HETATM   14  C   UNL     1      20.500  48.334  49.239  1.00  0.00     0.235 C 
HETATM   15  C   UNL     1      19.336  48.737  50.134  1.00  0.00     0.035 C 
BRANCH  12  16
HETATM   16  C   UNL     1      22.733  48.920  48.344  1.00  0.00     0.274 C 
BRANCH  16  17
HETATM   17  C   UNL     1      23.999  48.460  49.022  1.00  0.00    -0.026 A 
HETATM   18  C   UNL     1      23.931  47.385  49.932  1.00  0.00     0.016 A 
HETATM   19  C   UNL     1      25.065  46.952  50.627  1.00  0.00    -0.061 A 
HETATM   20  C   UNL     1      24.998  45.787  51.572  1.00  0.00     0.048 C 
HETATM   21  C   UNL     1      26.287  47.581  50.388  1.00  0.00     0.007 A 
HETATM   22  C   UNL     1      26.376  48.636  49.481  1.00  0.00     0.008 A 
HETATM   23  C   UNL     1      25.242  49.091  48.792  1.00  0.00    -0.054 A 
HETATM   24  C   UNL     1      25.413  50.216  47.803  1.00  0.00     0.049 C 
ENDBRANCH  16  17
ENDBRANCH  12  16
ENDBRANCH   1   9
BRANCH   1  25
HETATM   25  C   UNL     1      16.920  51.491  48.822  1.00  0.00     0.067 A 
HETATM   26  N   UNL     1      16.139  51.745  47.727  1.00  0.00    -0.263 NA
HETATM   27  C   UNL     1      15.210  52.723  47.836  1.00  0.00     0.117 A 
HETATM   28  C   UNL     1      15.030  53.486  48.973  1.00  0.00     0.019 A 
HETATM   29  C   UNL     1      15.846  53.234  50.069  1.00  0.00     0.003 A 
HETATM   30  C   UNL     1      16.807  52.229  49.998  1.00  0.00     0.030 A 
ENDBRANCH   1  25
BRANCH   5  31
HETATM   31  C   UNL     1      17.003  47.853  45.987  1.00  0.00     0.168 C 
BRANCH  31  32
HETATM   32  C   UNL     1      15.712  48.249  45.265  1.00  0.00     0.140 C 
HETATM   33  O   UNL     1      15.341  47.262  44.285  1.00  0.00    -0.384 OA
HETATM   34  C   UNL     1      13.906  47.231  44.205  1.00  0.00     0.168 C 
HETATM   35  C   UNL     1      13.374  48.235  45.211  1.00  0.00     0.029 C 
HETATM   36  C   UNL     1      14.514  48.352  46.192  1.00  0.00     0.036 C 
ENDBRANCH  31  32
ENDBRANCH   5  31
TORSDOF 6
ENDMDL
MODEL 5
REMARK VINA RESULT:      -8.4     11.623     15.085
REMARK  6 active torsions:
REMARK  status: ('A' for Active; 'I' for Inactive)
REMARK    1  A    between atoms: C_4  and  C_5 
REMARK    2  A    between atoms: C_5  and  N_6 
REMARK    3  A    between atoms: C_10  and  C_11 
REMARK    4  A    between atoms: C_11  and  C_12 
REMARK    5  A    between atoms: N_21  and  C_22 
REMARK    6  A    between atoms: C_22  and  C_23 
ROOT
HETATM    1  C   UNL     1      17.987  50.299  48.564  1.00  0.00     0.149 C 
HETATM    2  N   UNL     1      18.789  50.619  47.392  1.00  0.00    -0.220 NA
HETATM    3  C   UNL     1      18.439  49.823  46.320  1.00  0.00     0.304 C 
HETATM    4  O   UNL     1      18.877  50.015  45.200  1.00  0.00    -0.253 OA
HETATM    5  N   UNL     1      17.613  48.834  46.744  1.00  0.00    -0.270 N 
HETATM    6  C   UNL     1      17.369  48.970  48.081  1.00  0.00     0.257 C 
HETATM    7  O   UNL     1      16.783  48.171  48.799  1.00  0.00    -0.270 OA
HETATM    8  H   UNL     1      18.854  51.599  47.124  1.00  0.00     0.134 HD
ENDROOT
BRANCH   1   9
HETATM    9  C   UNL     1      18.838  50.092  49.861  1.00  0.00     0.028 C 
HETATM   10  C   UNL     1      20.009  51.077  50.040  1.00  0.00     0.035 C 
HETATM   11  C   UNL     1      21.170  50.816  49.092  1.00  0.00     0.235 C 
HETATM   12  N   UNL     1      21.677  49.404  49.279  1.00  0.00    -0.067 N 
HETATM   13  H   UNL     1      22.066  49.361  50.228  1.00  0.00     0.280 HD
HETATM   14  C   UNL     1      20.606  48.346  49.164  1.00  0.00     0.235 C 
HETATM   15  C   UNL     1      19.406  48.668  50.045  1.00  0.00     0.035 C 
BRANCH  12  16
HETATM   16  C   UNL     1      22.828  49.059  48.339  1.00  0.00     0.274 C 
BRANCH  16  17
HETATM   17  C   UNL     1      24.065  48.535  49.025  1.00  0.00    -0.026 A 
HETATM   18  C   UNL     1      23.937  47.459  49.927  1.00  0.00     0.016 A 
HETATM   19  C   UNL     1      25.043  46.967  50.630  1.00  0.00    -0.061 A 
HETATM   20  C   UNL     1      24.912  45.801  51.567  1.00  0.00     0.048 C 
HETATM   21  C   UNL     1      26.296  47.538  50.405  1.00  0.00     0.007 A 
HETATM   22  C   UNL     1      26.443  48.594  49.506  1.00  0.00     0.008 A 
HETATM   23  C   UNL     1      25.339  49.106  48.810  1.00  0.00    -0.054 A 
HETATM   24  C   UNL     1      25.573  50.228  47.829  1.00  0.00     0.049 C 
ENDBRANCH  16  17
ENDBRANCH  12  16
ENDBRANCH   1   9
BRANCH   1  25
HETATM   25  C   UNL     1      16.937  51.396  48.746  1.00  0.00     0.067 A 
HETATM   26  N   UNL     1      16.235  51.717  47.615  1.00  0.00    -0.263 NA
HETATM   27  C   UNL     1      15.298  52.688  47.715  1.00  0.00     0.117 A 
HETATM   28  C   UNL     1      15.038  53.383  48.881  1.00  0.00     0.019 A 
HETATM   29  C   UNL     1      15.774  53.065  50.015  1.00  0.00     0.003 A 
HETATM   30  C   UNL     1      16.740  52.063  49.952  1.00  0.00     0.030 A 
ENDBRANCH   1  25
BRANCH   5  31
HETATM   31  C   UNL     1      17.098  47.781  45.884  1.00  0.00     0.168 C 
BRANCH  31  32
HETATM   32  C   UNL     1      18.005  46.549  45.819  1.00  0.00     0.140 C 
HETATM   33  O   UNL     1      19.344  46.868  46.239  1.00  0.00    -0.384 OA
HETATM   34  C   UNL     1      19.901  45.703  46.871  1.00  0.00     0.168 C 
HETATM   35  C   UNL     1      18.832  44.625  46.859  1.00  0.00     0.029 C 
HETATM   36  C   UNL     1      17.559  45.427  46.739  1.00  0.00     0.036 C 
ENDBRANCH  31  32
ENDBRANCH   5  31
TORSDOF 6
ENDMDL
MODEL 6
REMARK VINA RESULT:      -8.3      2.025      7.441
REMARK  6 active torsions:
REMARK  status: ('A' for Active; 'I' for Inactive)
REMARK    1  A    between atoms: C_4  and  C_5 
REMARK    2  A    between atoms: C_5  and  N_6 
REMARK    3  A    between atoms: C_10  and  C_11 
REMARK    4  A    between atoms: C_11  and  C_12 
REMARK    5  A    between atoms: N_21  and  C_22 
REMARK    6  A    between atoms: C_22  and  C_23 
ROOT
HETATM    1  C   UNL     1      29.072  48.561  39.283  1.00  0.00     0.149 C 
HETATM    2  N   UNL     1      28.852  48.450  40.717  1.00  0.00    -0.220 NA
HETATM    3  C   UNL     1      28.166  49.546  41.199  1.00  0.00     0.304 C 
HETATM    4  O   UNL     1      27.747  49.596  42.342  1.00  0.00    -0.253 OA
HETATM    5  N   UNL     1      28.103  50.497  40.235  1.00  0.00    -0.270 N 
HETATM    6  C   UNL     1      28.703  50.048  39.094  1.00  0.00     0.257 C 
HETATM    7  O   UNL     1      28.942  50.704  38.090  1.00  0.00    -0.270 OA
HETATM    8  H   UNL     1      28.454  47.578  41.062  1.00  0.00     0.134 HD
ENDROOT
BRANCH   1   9
HETATM    9  C   UNL     1      30.553  48.284  38.859  1.00  0.00     0.028 C 
HETATM   10  C   UNL     1      31.338  47.344  39.794  1.00  0.00     0.035 C 
HETATM   11  C   UNL     1      31.711  47.984  41.123  1.00  0.00     0.235 C 
HETATM   12  N   UNL     1      32.526  49.234  40.878  1.00  0.00    -0.067 N 
HETATM   13  H   UNL     1      33.407  48.924  40.452  1.00  0.00     0.280 HD
HETATM   14  C   UNL     1      31.874  50.220  39.940  1.00  0.00     0.235 C 
HETATM   15  C   UNL     1      31.417  49.548  38.652  1.00  0.00     0.035 C 
BRANCH  12  16
HETATM   16  C   UNL     1      32.916  49.949  42.169  1.00  0.00     0.274 C 
BRANCH  16  17
HETATM   17  C   UNL     1      34.226  50.694  42.105  1.00  0.00    -0.026 A 
HETATM   18  C   UNL     1      35.079  50.474  41.005  1.00  0.00     0.016 A 
HETATM   19  C   UNL     1      36.328  51.099  40.921  1.00  0.00    -0.061 A 
HETATM   20  C   UNL     1      37.223  50.890  39.733  1.00  0.00     0.048 C 
HETATM   21  C   UNL     1      36.716  51.977  41.934  1.00  0.00     0.007 A 
HETATM   22  C   UNL     1      35.878  52.216  43.023  1.00  0.00     0.008 A 
HETATM   23  C   UNL     1      34.632  51.581  43.127  1.00  0.00    -0.054 A 
HETATM   24  C   UNL     1      33.762  51.908  44.314  1.00  0.00     0.049 C 
ENDBRANCH  16  17
ENDBRANCH  12  16
ENDBRANCH   1   9
BRANCH   1  25
HETATM   25  C   UNL     1      28.096  47.625  38.569  1.00  0.00     0.067 A 
HETATM   26  N   UNL     1      28.682  46.658  37.798  1.00  0.00    -0.263 NA
HETATM   27  C   UNL     1      27.865  45.807  37.135  1.00  0.00     0.117 A 
HETATM   28  C   UNL     1      26.486  45.882  37.174  1.00  0.00     0.019 A 
HETATM   29  C   UNL     1      25.904  46.884  37.941  1.00  0.00     0.003 A 
HETATM   30  C   UNL     1      26.713  47.772  38.645  1.00  0.00     0.030 A 
ENDBRANCH   1  25
BRANCH   5  31
HETATM   31  C   UNL     1      27.499  51.807  40.424  1.00  0.00     0.168 C 
BRANCH  31  32
HETATM   32  C   UNL     1      28.478  52.859  40.952  1.00  0.00     0.140 C 
HETATM   33  O   UNL     1      29.318  52.314  41.986  1.00  0.00    -0.384 OA
HETATM   34  C   UNL     1      30.597  52.967  41.910  1.00  0.00     0.168 C 
HETATM   35  C   UNL     1      30.540  53.942  40.749  1.00  0.00     0.029 C 
HETATM   36  C   UNL     1      29.438  53.370  39.892  1.00  0.00     0.036 C 
ENDBRANCH  31  32
ENDBRANCH   5  31
TORSDOF 6
ENDMDL
MODEL 7
REMARK VINA RESULT:      -8.2     12.987     16.312
REMARK  6 active torsions:
REMARK  status: ('A' for Active; 'I' for Inactive)
REMARK    1  A    between atoms: C_4  and  C_5 
REMARK    2  A    between atoms: C_5  and  N_6 
REMARK    3  A    between atoms: C_10  and  C_11 
REMARK    4  A    between atoms: C_11  and  C_12 
REMARK    5  A    between atoms: N_21  and  C_22 
REMARK    6  A    between atoms: C_22  and  C_23 
ROOT
HETATM    1  C   UNL     1      19.528  49.990  47.895  1.00  0.00     0.149 C 
HETATM    2  N   UNL     1      18.792  49.590  49.084  1.00  0.00    -0.220 NA
HETATM    3  C   UNL     1      18.192  48.360  48.905  1.00  0.00     0.304 C 
HETATM    4  O   UNL     1      17.648  47.766  49.818  1.00  0.00    -0.253 OA
HETATM    5  N   UNL     1      18.283  48.000  47.601  1.00  0.00    -0.270 N 
HETATM    6  C   UNL     1      18.968  48.951  46.900  1.00  0.00     0.257 C 
HETATM    7  O   UNL     1      19.104  49.004  45.686  1.00  0.00    -0.270 OA
HETATM    8  H   UNL     1      19.282  49.641  49.976  1.00  0.00     0.134 HD
ENDROOT
BRANCH   1   9
HETATM    9  C   UNL     1      19.212  51.451  47.430  1.00  0.00     0.028 C 
HETATM   10  C   UNL     1      19.139  52.496  48.560  1.00  0.00     0.035 C 
HETATM   11  C   UNL     1      17.893  52.371  49.422  1.00  0.00     0.235 C 
HETATM   12  N   UNL     1      16.658  52.490  48.556  1.00  0.00    -0.067 N 
HETATM   13  H   UNL     1      16.656  53.447  48.187  1.00  0.00     0.280 HD
HETATM   14  C   UNL     1      16.633  51.536  47.387  1.00  0.00     0.235 C 
HETATM   15  C   UNL     1      17.927  51.600  46.586  1.00  0.00     0.035 C 
BRANCH  12  16
HETATM   16  C   UNL     1      15.363  52.346  49.351  1.00  0.00     0.274 C 
BRANCH  16  17
HETATM   17  C   UNL     1      14.735  53.651  49.773  1.00  0.00    -0.026 A 
HETATM   18  C   UNL     1      14.802  54.029  51.130  1.00  0.00     0.016 A 
HETATM   19  C   UNL     1      14.192  55.203  51.586  1.00  0.00    -0.061 A 
HETATM   20  C   UNL     1      14.291  55.621  53.025  1.00  0.00     0.048 C 
HETATM   21  C   UNL     1      13.534  56.023  50.669  1.00  0.00     0.007 A 
HETATM   22  C   UNL     1      13.470  55.672  49.322  1.00  0.00     0.008 A 
HETATM   23  C   UNL     1      14.062  54.489  48.856  1.00  0.00    -0.054 A 
HETATM   24  C   UNL     1      13.982  54.184  47.382  1.00  0.00     0.049 C 
ENDBRANCH  16  17
ENDBRANCH  12  16
ENDBRANCH   1   9
BRANCH   1  25
HETATM   25  C   UNL     1      21.022  49.793  48.160  1.00  0.00     0.067 A 
HETATM   26  N   UNL     1      21.325  48.774  49.022  1.00  0.00    -0.263 NA
HETATM   27  C   UNL     1      22.632  48.559  49.301  1.00  0.00     0.117 A 
HETATM   28  C   UNL     1      23.660  49.325  48.788  1.00  0.00     0.019 A 
HETATM   29  C   UNL     1      23.337  50.373  47.934  1.00  0.00     0.003 A 
HETATM   30  C   UNL     1      22.003  50.617  47.616  1.00  0.00     0.030 A 
ENDBRANCH   1  25
BRANCH   5  31
HETATM   31  C   UNL     1      17.704  46.785  47.051  1.00  0.00     0.168 C 
BRANCH  31  32
HETATM   32  C   UNL     1      18.571  45.543  47.273  1.00  0.00     0.140 C 
HETATM   33  O   UNL     1      18.027  44.401  46.585  1.00  0.00    -0.384 OA
HETATM   34  C   UNL     1      19.123  43.564  46.177  1.00  0.00     0.168 C 
HETATM   35  C   UNL     1      20.404  44.248  46.616  1.00  0.00     0.029 C 
HETATM   36  C   UNL     1      19.983  45.692  46.733  1.00  0.00     0.036 C 
ENDBRANCH  31  32
ENDBRANCH   5  31
TORSDOF 6
ENDMDL
MODEL 8
REMARK VINA RESULT:      -8.2      2.297      7.992
REMARK  6 active torsions:
REMARK  status: ('A' for Active; 'I' for Inactive)
REMARK    1  A    between atoms: C_4  and  C_5 
REMARK    2  A    between atoms: C_5  and  N_6 
REMARK    3  A    between atoms: C_10  and  C_11 
REMARK    4  A    between atoms: C_11  and  C_12 
REMARK    5  A    between atoms: N_21  and  C_22 
REMARK    6  A    between atoms: C_22  and  C_23 
ROOT
HETATM    1  C   UNL     1      30.262  49.443  41.092  1.00  0.00     0.149 C 
HETATM    2  N   UNL     1      31.028  49.021  39.929  1.00  0.00    -0.220 NA
HETATM    3  C   UNL     1      30.327  48.092  39.185  1.00  0.00     0.304 C 
HETATM    4  O   UNL     1      30.714  47.711  38.095  1.00  0.00    -0.253 OA
HETATM    5  N   UNL     1      29.237  47.687  39.882  1.00  0.00    -0.270 N 
HETATM    6  C   UNL     1      29.167  48.356  41.071  1.00  0.00     0.257 C 
HETATM    7  O   UNL     1      28.392  48.128  41.989  1.00  0.00    -0.270 OA
HETATM    8  H   UNL     1      31.422  49.751  39.339  1.00  0.00     0.134 HD
ENDROOT
BRANCH   1   9
HETATM    9  C   UNL     1      31.082  49.399  42.424  1.00  0.00     0.028 C 
HETATM   10  C   UNL     1      31.737  50.731  42.835  1.00  0.00     0.035 C 
HETATM   11  C   UNL     1      32.930  51.112  41.972  1.00  0.00     0.235 C 
HETATM   12  N   UNL     1      33.968  50.013  42.022  1.00  0.00    -0.067 N 
HETATM   13  H   UNL     1      34.311  49.984  42.988  1.00  0.00     0.280 HD
HETATM   14  C   UNL     1      33.433  48.645  41.674  1.00  0.00     0.235 C 
HETATM   15  C   UNL     1      32.180  48.315  42.475  1.00  0.00     0.035 C 
BRANCH  12  16
HETATM   16  C   UNL     1      35.188  50.312  41.155  1.00  0.00     0.274 C 
BRANCH  16  17
HETATM   17  C   UNL     1      35.971  51.533  41.569  1.00  0.00    -0.026 A 
HETATM   18  C   UNL     1      36.241  51.733  42.938  1.00  0.00     0.016 A 
HETATM   19  C   UNL     1      36.918  52.875  43.383  1.00  0.00    -0.061 A 
HETATM   20  C   UNL     1      37.233  53.073  44.837  1.00  0.00     0.048 C 
HETATM   21  C   UNL     1      37.355  53.811  42.445  1.00  0.00     0.007 A 
HETATM   22  C   UNL     1      37.108  53.621  41.086  1.00  0.00     0.008 A 
HETATM   23  C   UNL     1      36.415  52.490  40.630  1.00  0.00    -0.054 A 
HETATM   24  C   UNL     1      36.209  52.332  39.145  1.00  0.00     0.049 C 
ENDBRANCH  16  17
ENDBRANCH  12  16
ENDBRANCH   1   9
BRANCH   1  25
HETATM   25  C   UNL     1      29.699  50.839  40.820  1.00  0.00     0.067 A 
HETATM   26  N   UNL     1      30.310  51.520  39.802  1.00  0.00    -0.263 NA
HETATM   27  C   UNL     1      29.859  52.765  39.524  1.00  0.00     0.117 A 
HETATM   28  C   UNL     1      28.844  53.387  40.225  1.00  0.00     0.019 A 
HETATM   29  C   UNL     1      28.248  52.694  41.273  1.00  0.00     0.003 A 
HETATM   30  C   UNL     1      28.680  51.406  41.582  1.00  0.00     0.030 A 
ENDBRANCH   1  25
BRANCH   5  31
HETATM   31  C   UNL     1      28.307  46.671  39.418  1.00  0.00     0.168 C 
BRANCH  31  32
HETATM   32  C   UNL     1      28.889  45.255  39.445  1.00  0.00     0.140 C 
HETATM   33  O   UNL     1      28.162  44.413  40.359  1.00  0.00    -0.384 OA
HETATM   34  C   UNL     1      28.185  43.071  39.842  1.00  0.00     0.168 C 
HETATM   35  C   UNL     1      28.943  43.104  38.528  1.00  0.00     0.029 C 
HETATM   36  C   UNL     1      28.805  44.546  38.105  1.00  0.00     0.036 C 
ENDBRANCH  31  32
ENDBRANCH   5  31
TORSDOF 6
ENDMDL
MODEL 9
REMARK VINA RESULT:      -8.1      2.217      7.532
REMARK  6 active torsions:
REMARK  status: ('A' for Active; 'I' for Inactive)
REMARK    1  A    between atoms: C_4  and  C_5 
REMARK    2  A    between atoms: C_5  and  N_6 
REMARK    3  A    between atoms: C_10  and  C_11 
REMARK    4  A    between atoms: C_11  and  C_12 
REMARK    5  A    between atoms: N_21  and  C_22 
REMARK    6  A    between atoms: C_22  and  C_23 
ROOT
HETATM    1  C   UNL     1      30.250  49.577  41.104  1.00  0.00     0.149 C 
HETATM    2  N   UNL     1      30.981  49.046  39.964  1.00  0.00    -0.220 NA
HETATM    3  C   UNL     1      30.218  48.128  39.270  1.00  0.00     0.304 C 
HETATM    4  O   UNL     1      30.573  47.667  38.200  1.00  0.00    -0.253 OA
HETATM    5  N   UNL     1      29.106  47.833  39.988  1.00  0.00    -0.270 N 
HETATM    6  C   UNL     1      29.086  48.565  41.141  1.00  0.00     0.257 C 
HETATM    7  O   UNL     1      28.302  48.438  42.070  1.00  0.00    -0.270 OA
HETATM    8  H   UNL     1      31.420  49.717  39.336  1.00  0.00     0.134 HD
ENDROOT
BRANCH   1   9
HETATM    9  C   UNL     1      31.072  49.548  42.436  1.00  0.00     0.028 C 
HETATM   10  C   UNL     1      31.751  50.878  42.816  1.00  0.00     0.035 C 
HETATM   11  C   UNL     1      32.949  51.217  41.944  1.00  0.00     0.235 C 
HETATM   12  N   UNL     1      33.968  50.102  42.016  1.00  0.00    -0.067 N 
HETATM   13  H   UNL     1      34.312  50.088  42.983  1.00  0.00     0.280 HD
HETATM   14  C   UNL     1      33.408  48.736  41.700  1.00  0.00     0.235 C 
HETATM   15  C   UNL     1      32.151  48.446  42.509  1.00  0.00     0.035 C 
BRANCH  12  16
HETATM   16  C   UNL     1      35.191  50.360  41.141  1.00  0.00     0.274 C 
BRANCH  16  17
HETATM   17  C   UNL     1      35.987  51.585  41.517  1.00  0.00    -0.026 A 
HETATM   18  C   UNL     1      36.272  51.817  42.878  1.00  0.00     0.016 A 
HETATM   19  C   UNL     1      36.962  52.965  43.287  1.00  0.00    -0.061 A 
HETATM   20  C   UNL     1      37.294  53.196  44.733  1.00  0.00     0.048 C 
HETATM   21  C   UNL     1      37.396  53.874  42.322  1.00  0.00     0.007 A 
HETATM   22  C   UNL     1      37.133  53.652  40.971  1.00  0.00     0.008 A 
HETATM   23  C   UNL     1      36.428  52.516  40.550  1.00  0.00    -0.054 A 
HETATM   24  C   UNL     1      36.205  52.321  39.072  1.00  0.00     0.049 C 
ENDBRANCH  16  17
ENDBRANCH  12  16
ENDBRANCH   1   9
BRANCH   1  25
HETATM   25  C   UNL     1      29.780  50.992  40.761  1.00  0.00     0.067 A 
HETATM   26  N   UNL     1      28.811  51.494  41.586  1.00  0.00    -0.263 NA
HETATM   27  C   UNL     1      28.349  52.739  41.324  1.00  0.00     0.117 A 
HETATM   28  C   UNL     1      28.782  53.508  40.261  1.00  0.00     0.019 A 
HETATM   29  C   UNL     1      29.749  52.977  39.416  1.00  0.00     0.003 A 
HETATM   30  C   UNL     1      30.254  51.702  39.661  1.00  0.00     0.030 A 
ENDBRANCH   1  25
BRANCH   5  31
HETATM   31  C   UNL     1      28.109  46.858  39.578  1.00  0.00     0.168 C 
BRANCH  31  32
HETATM   32  C   UNL     1      26.874  47.486  38.926  1.00  0.00     0.140 C 
HETATM   33  O   UNL     1      25.889  47.839  39.915  1.00  0.00    -0.384 OA
HETATM   34  C   UNL     1      25.190  49.006  39.449  1.00  0.00     0.168 C 
HETATM   35  C   UNL     1      25.803  49.401  38.118  1.00  0.00     0.029 C 
HETATM   36  C   UNL     1      27.176  48.780  38.191  1.00  0.00     0.036 C 
ENDBRANCH  31  32
ENDBRANCH   5  31
TORSDOF 6
ENDMDL
MODEL 10
REMARK VINA RESULT:      -8.1     10.835     13.103
REMARK  6 active torsions:
REMARK  status: ('A' for Active; 'I' for Inactive)
REMARK    1  A    between atoms: C_4  and  C_5 
REMARK    2  A    between atoms: C_5  and  N_6 
REMARK    3  A    between atoms: C_10  and  C_11 
REMARK    4  A    between atoms: C_11  and  C_12 
REMARK    5  A    between atoms: N_21  and  C_22 
REMARK    6  A    between atoms: C_22  and  C_23 
ROOT
HETATM    1  C   UNL     1      26.675  43.165  51.564  1.00  0.00     0.149 C 
HETATM    2  N   UNL     1      27.126  43.947  50.423  1.00  0.00    -0.220 NA
HETATM    3  C   UNL     1      26.744  45.267  50.546  1.00  0.00     0.304 C 
HETATM    4  O   UNL     1      27.138  46.130  49.781  1.00  0.00    -0.253 OA
HETATM    5  N   UNL     1      25.873  45.390  51.578  1.00  0.00    -0.270 N 
HETATM    6  C   UNL     1      25.688  44.178  52.180  1.00  0.00     0.257 C 
HETATM    7  O   UNL     1      24.865  43.913  53.045  1.00  0.00    -0.270 OA
HETATM    8  H   UNL     1      28.106  43.865  50.158  1.00  0.00     0.134 HD
ENDROOT
BRANCH   1   9
HETATM    9  C   UNL     1      25.949  41.838  51.158  1.00  0.00     0.028 C 
HETATM   10  C   UNL     1      26.870  40.617  50.974  1.00  0.00     0.035 C 
HETATM   11  C   UNL     1      27.716  40.681  49.712  1.00  0.00     0.235 C 
HETATM   12  N   UNL     1      26.819  40.814  48.501  1.00  0.00    -0.067 N 
HETATM   13  H   UNL     1      26.284  39.940  48.443  1.00  0.00     0.280 HD
HETATM   14  C   UNL     1      25.840  41.959  48.583  1.00  0.00     0.235 C 
HETATM   15  C   UNL     1      25.067  41.940  49.895  1.00  0.00     0.035 C 
BRANCH  12  16
HETATM   16  C   UNL     1      27.601  40.912  47.194  1.00  0.00     0.274 C 
BRANCH  16  17
HETATM   17  C   UNL     1      27.682  39.625  46.410  1.00  0.00    -0.026 A 
HETATM   18  C   UNL     1      27.274  38.427  47.030  1.00  0.00     0.016 A 
HETATM   19  C   UNL     1      27.376  37.198  46.368  1.00  0.00    -0.061 A 
HETATM   20  C   UNL     1      26.912  35.925  47.017  1.00  0.00     0.048 C 
HETATM   21  C   UNL     1      27.864  37.172  45.061  1.00  0.00     0.007 A 
HETATM   22  C   UNL     1      28.258  38.350  44.428  1.00  0.00     0.008 A 
HETATM   23  C   UNL     1      28.178  39.585  45.088  1.00  0.00    -0.054 A 
HETATM   24  C   UNL     1      28.592  40.823  44.336  1.00  0.00     0.049 C 
ENDBRANCH  16  17
ENDBRANCH  12  16
ENDBRANCH   1   9
BRANCH   1  25
HETATM   25  C   UNL     1      27.876  42.897  52.473  1.00  0.00     0.067 A 
HETATM   26  N   UNL     1      29.082  43.305  51.971  1.00  0.00    -0.263 NA
HETATM   27  C   UNL     1      30.181  43.084  52.729  1.00  0.00     0.117 A 
HETATM   28  C   UNL     1      30.150  42.451  53.957  1.00  0.00     0.019 A 
HETATM   29  C   UNL     1      28.922  42.019  54.443  1.00  0.00     0.003 A 
HETATM   30  C   UNL     1      27.768  42.238  53.695  1.00  0.00     0.030 A 
ENDBRANCH   1  25
BRANCH   5  31
HETATM   31  C   UNL     1      25.227  46.638  51.952  1.00  0.00     0.168 C 
BRANCH  31  32
HETATM   32  C   UNL     1      26.066  47.499  52.899  1.00  0.00     0.140 C 
HETATM   33  O   UNL     1      25.246  48.101  53.918  1.00  0.00    -0.384 OA
HETATM   34  C   UNL     1      26.037  48.221  55.112  1.00  0.00     0.168 C 
HETATM   35  C   UNL     1      27.404  47.634  54.813  1.00  0.00     0.029 C 
HETATM   36  C   UNL     1      27.117  46.707  53.657  1.00  0.00     0.036 C 
ENDBRANCH  31  32
ENDBRANCH   5  31
TORSDOF 6
ENDMDL
