MODEL 1
REMARK VINA RESULT:     -12.0      0.000      0.000
REMARK  6 active torsions:
REMARK  status: ('A' for Active; 'I' for Inactive)
REMARK    1  A    between atoms: N_9  and  C_10 
REMARK    2  A    between atoms: C_10  and  C_11 
REMARK       I    between atoms: C_11  and  N_12 
REMARK    3  A    between atoms: N_12  and  C_13 
REMARK    4  A    between atoms: C_14  and  C_15 
REMARK       I    between atoms: C_15  and  N_16 
REMARK    5  A    between atoms: N_16  and  C_17 
REMARK    6  A    between atoms: C_17  and  C_18 
ROOT
HETATM    1  C   UNL     1      25.244  46.710  51.753  1.00  0.00     0.240 C 
HETATM    2  N   UNL     1      25.226  46.845  50.372  1.00  0.00    -0.325 N 
HETATM    3  O   UNL     1      25.504  47.587  52.566  1.00  0.00    -0.271 OA
HETATM    4  H   UNL     1      25.158  45.981  49.849  1.00  0.00     0.169 HD
ENDROOT
BRANCH   1   5
HETATM    5  C   UNL     1      24.863  45.295  52.200  1.00  0.00     0.240 C 
BRANCH   5   6
HETATM    6  N   UNL     1      25.743  44.806  53.234  1.00  0.00    -0.259 N 
HETATM    7  C   UNL     1      25.301  44.243  54.391  1.00  0.00     0.326 C 
HETATM    8  N   UNL     1      26.370  43.700  55.053  1.00  0.00    -0.320 N 
HETATM    9  O   UNL     1      24.146  44.177  54.779  1.00  0.00    -0.247 OA
HETATM   10  C   UNL     1      27.569  43.662  54.240  1.00  0.00     0.144 C 
HETATM   11  H   UNL     1      26.260  43.248  55.950  1.00  0.00     0.165 HD
HETATM   12  C   UNL     1      28.749  44.321  54.929  1.00  0.00    -0.014 A 
HETATM   13  C   UNL     1      27.052  44.460  53.015  1.00  0.00     0.261 C 
HETATM   14  C   UNL     1      27.814  42.199  53.815  1.00  0.00     0.047 C 
HETATM   15  C   UNL     1      30.008  43.686  54.993  1.00  0.00    -0.049 A 
HETATM   16  C   UNL     1      28.616  45.600  55.500  1.00  0.00     0.011 A 
HETATM   17  C   UNL     1      31.072  44.311  55.661  1.00  0.00     0.007 A 
HETATM   18  C   UNL     1      30.238  42.319  54.397  1.00  0.00     0.039 C 
HETATM   19  C   UNL     1      30.913  45.570  56.235  1.00  0.00     0.001 A 
HETATM   20  C   UNL     1      29.685  46.216  56.150  1.00  0.00     0.001 A 
HETATM   21  C   UNL     1      29.232  41.983  53.303  1.00  0.00     0.008 C 
HETATM   22  O   UNL     1      27.671  44.655  51.975  1.00  0.00    -0.270 OA
ENDBRANCH   5   6
ENDBRANCH   1   5
BRANCH   2  23
HETATM   23  C   UNL     1      25.474  47.992  49.583  1.00  0.00     0.050 A 
HETATM   24  C   UNL     1      24.549  48.791  48.895  1.00  0.00     0.058 A 
HETATM   25  C   UNL     1      24.994  49.958  48.235  1.00  0.00     0.019 A 
HETATM   26  C   UNL     1      26.341  50.312  48.215  1.00  0.00     0.001 A 
HETATM   27  C   UNL     1      27.268  49.496  48.844  1.00  0.00     0.002 A 
HETATM   28  C   UNL     1      26.839  48.348  49.514  1.00  0.00     0.030 A 
BRANCH  24  29
HETATM   29  C   UNL     1      23.117  48.489  48.654  1.00  0.00     0.254 C 
HETATM   30  N   UNL     1      22.214  48.994  49.568  1.00  0.00    -0.351 N 
HETATM   31  H   UNL     1      22.505  49.741  50.190  1.00  0.00     0.163 HD
HETATM   32  O   UNL     1      22.810  47.715  47.751  1.00  0.00    -0.268 OA
BRANCH  30  33
HETATM   33  C   UNL     1      20.804  48.845  49.303  1.00  0.00     0.187 C 
BRANCH  33  34
HETATM   34  C   UNL     1      20.178  50.180  49.141  1.00  0.00     0.070 A 
HETATM   35  O   UNL     1      19.315  50.578  50.119  1.00  0.00    -0.325 OA
HETATM   36  C   UNL     1      18.908  51.835  49.807  1.00  0.00     0.142 A 
HETATM   37  C   UNL     1      19.488  52.248  48.632  1.00  0.00     0.027 A 
HETATM   38  C   UNL     1      20.309  51.179  48.199  1.00  0.00     0.036 A 
ENDBRANCH  33  34
ENDBRANCH  30  33
ENDBRANCH  24  29
ENDBRANCH   2  23
TORSDOF 6
ENDMDL
MODEL 2
REMARK VINA RESULT:     -10.8      2.136      2.772
REMARK  6 active torsions:
REMARK  status: ('A' for Active; 'I' for Inactive)
REMARK    1  A    between atoms: N_9  and  C_10 
REMARK    2  A    between atoms: C_10  and  C_11 
REMARK       I    between atoms: C_11  and  N_12 
REMARK    3  A    between atoms: N_12  and  C_13 
REMARK    4  A    between atoms: C_14  and  C_15 
REMARK       I    between atoms: C_15  and  N_16 
REMARK    5  A    between atoms: N_16  and  C_17 
REMARK    6  A    between atoms: C_17  and  C_18 
ROOT
HETATM    1  C   UNL     1      24.742  46.933  49.741  1.00  0.00     0.240 C 
HETATM    2  N   UNL     1      23.898  47.399  48.743  1.00  0.00    -0.325 N 
HETATM    3  O   UNL     1      25.127  47.560  50.719  1.00  0.00    -0.271 OA
HETATM    4  H   UNL     1      23.819  46.807  47.925  1.00  0.00     0.169 HD
ENDROOT
BRANCH   1   5
HETATM    5  C   UNL     1      25.153  45.474  49.516  1.00  0.00     0.240 C 
BRANCH   5   6
HETATM    6  N   UNL     1      25.581  44.844  50.742  1.00  0.00    -0.259 N 
HETATM    7  C   UNL     1      24.731  44.224  51.603  1.00  0.00     0.326 C 
HETATM    8  N   UNL     1      25.467  43.556  52.545  1.00  0.00    -0.320 N 
HETATM    9  O   UNL     1      23.512  44.210  51.546  1.00  0.00    -0.247 OA
HETATM   10  C   UNL     1      26.877  43.499  52.212  1.00  0.00     0.144 C 
HETATM   11  H   UNL     1      25.024  43.044  53.294  1.00  0.00     0.165 HD
HETATM   12  C   UNL     1      27.752  44.016  53.339  1.00  0.00    -0.014 A 
HETATM   13  C   UNL     1      26.867  44.425  50.970  1.00  0.00     0.261 C 
HETATM   14  C   UNL     1      27.204  42.060  51.761  1.00  0.00     0.047 C 
HETATM   15  C   UNL     1      28.878  43.291  53.783  1.00  0.00    -0.049 A 
HETATM   16  C   UNL     1      27.470  45.252  53.949  1.00  0.00     0.011 A 
HETATM   17  C   UNL     1      29.653  43.784  54.845  1.00  0.00     0.007 A 
HETATM   18  C   UNL     1      29.257  41.962  53.176  1.00  0.00     0.039 C 
HETATM   19  C   UNL     1      29.344  45.002  55.446  1.00  0.00     0.001 A 
HETATM   20  C   UNL     1      28.255  45.738  54.994  1.00  0.00     0.001 A 
HETATM   21  C   UNL     1      28.702  41.786  51.768  1.00  0.00     0.008 C 
HETATM   22  O   UNL     1      27.827  44.658  50.243  1.00  0.00    -0.270 OA
ENDBRANCH   5   6
ENDBRANCH   1   5
BRANCH   2  23
HETATM   23  C   UNL     1      23.275  48.662  48.617  1.00  0.00     0.050 A 
HETATM   24  C   UNL     1      21.934  48.999  48.855  1.00  0.00     0.058 A 
HETATM   25  C   UNL     1      21.529  50.349  48.761  1.00  0.00     0.019 A 
HETATM   26  C   UNL     1      22.424  51.351  48.393  1.00  0.00     0.001 A 
HETATM   27  C   UNL     1      23.737  51.017  48.100  1.00  0.00     0.002 A 
HETATM   28  C   UNL     1      24.154  49.688  48.206  1.00  0.00     0.030 A 
BRANCH  24  29
HETATM   29  C   UNL     1      20.808  48.061  49.081  1.00  0.00     0.254 C 
HETATM   30  N   UNL     1      19.801  48.491  49.923  1.00  0.00    -0.351 N 
HETATM   31  H   UNL     1      19.724  49.480  50.137  1.00  0.00     0.163 HD
HETATM   32  O   UNL     1      20.874  46.921  48.629  1.00  0.00    -0.268 OA
BRANCH  30  33
HETATM   33  C   UNL     1      18.621  47.675  50.065  1.00  0.00     0.187 C 
BRANCH  33  34
HETATM   34  C   UNL     1      17.529  48.217  49.222  1.00  0.00     0.070 A 
HETATM   35  O   UNL     1      17.498  49.569  49.047  1.00  0.00    -0.325 OA
HETATM   36  C   UNL     1      16.469  49.841  48.206  1.00  0.00     0.142 A 
HETATM   37  C   UNL     1      15.824  48.682  47.846  1.00  0.00     0.027 A 
HETATM   38  C   UNL     1      16.507  47.631  48.502  1.00  0.00     0.036 A 
ENDBRANCH  33  34
ENDBRANCH  30  33
ENDBRANCH  24  29
ENDBRANCH   2  23
TORSDOF 6
ENDMDL
MODEL 3
REMARK VINA RESULT:     -10.7      2.836      4.837
REMARK  6 active torsions:
REMARK  status: ('A' for Active; 'I' for Inactive)
REMARK    1  A    between atoms: N_9  and  C_10 
REMARK    2  A    between atoms: C_10  and  C_11 
REMARK       I    between atoms: C_11  and  N_12 
REMARK    3  A    between atoms: N_12  and  C_13 
REMARK    4  A    between atoms: C_14  and  C_15 
REMARK       I    between atoms: C_15  and  N_16 
REMARK    5  A    between atoms: N_16  and  C_17 
REMARK    6  A    between atoms: C_17  and  C_18 
ROOT
HETATM    1  C   UNL     1      23.548  43.012  50.129  1.00  0.00     0.240 C 
HETATM    2  N   UNL     1      23.703  43.288  48.778  1.00  0.00    -0.325 N 
HETATM    3  O   UNL     1      22.580  43.295  50.822  1.00  0.00    -0.271 OA
HETATM    4  H   UNL     1      24.632  43.135  48.404  1.00  0.00     0.169 HD
ENDROOT
BRANCH   1   5
HETATM    5  C   UNL     1      24.748  42.254  50.706  1.00  0.00     0.240 C 
BRANCH   5   6
HETATM    6  N   UNL     1      25.782  43.154  51.156  1.00  0.00    -0.259 N 
HETATM    7  C   UNL     1      26.710  43.706  50.328  1.00  0.00     0.326 C 
HETATM    8  N   UNL     1      27.404  44.662  51.020  1.00  0.00    -0.320 N 
HETATM    9  O   UNL     1      26.887  43.444  49.150  1.00  0.00    -0.247 OA
HETATM   10  C   UNL     1      26.801  44.971  52.301  1.00  0.00     0.144 C 
HETATM   11  H   UNL     1      28.156  45.181  50.590  1.00  0.00     0.165 HD
HETATM   12  C   UNL     1      27.793  44.848  53.443  1.00  0.00    -0.014 A 
HETATM   13  C   UNL     1      25.706  43.875  52.321  1.00  0.00     0.261 C 
HETATM   14  C   UNL     1      26.123  46.352  52.192  1.00  0.00     0.047 C 
HETATM   15  C   UNL     1      27.920  45.864  54.415  1.00  0.00    -0.049 A 
HETATM   16  C   UNL     1      28.591  43.696  53.572  1.00  0.00     0.011 A 
HETATM   17  C   UNL     1      28.865  45.731  55.444  1.00  0.00     0.007 A 
HETATM   18  C   UNL     1      27.094  47.126  54.357  1.00  0.00     0.039 C 
HETATM   19  C   UNL     1      29.658  44.591  55.541  1.00  0.00     0.001 A 
HETATM   20  C   UNL     1      29.517  43.571  54.607  1.00  0.00     0.001 A 
HETATM   21  C   UNL     1      25.809  46.944  53.559  1.00  0.00     0.008 C 
HETATM   22  O   UNL     1      24.842  43.741  53.180  1.00  0.00    -0.270 OA
ENDBRANCH   5   6
ENDBRANCH   1   5
BRANCH   2  23
HETATM   23  C   UNL     1      22.809  43.926  47.888  1.00  0.00     0.050 A 
HETATM   24  C   UNL     1      22.578  45.300  47.722  1.00  0.00     0.058 A 
HETATM   25  C   UNL     1      21.704  45.740  46.705  1.00  0.00     0.019 A 
HETATM   26  C   UNL     1      21.028  44.837  45.886  1.00  0.00     0.001 A 
HETATM   27  C   UNL     1      21.207  43.477  46.082  1.00  0.00     0.002 A 
HETATM   28  C   UNL     1      22.082  43.029  47.075  1.00  0.00     0.030 A 
BRANCH  24  29
HETATM   29  C   UNL     1      23.060  46.395  48.600  1.00  0.00     0.254 C 
HETATM   30  N   UNL     1      22.813  47.685  48.174  1.00  0.00    -0.351 N 
HETATM   31  H   UNL     1      22.114  47.844  47.455  1.00  0.00     0.163 HD
HETATM   32  O   UNL     1      23.753  46.123  49.576  1.00  0.00    -0.268 OA
BRANCH  30  33
HETATM   33  C   UNL     1      23.137  48.780  49.056  1.00  0.00     0.187 C 
BRANCH  33  34
HETATM   34  C   UNL     1      24.536  49.214  48.826  1.00  0.00     0.070 A 
HETATM   35  O   UNL     1      25.492  48.662  49.626  1.00  0.00    -0.325 OA
HETATM   36  C   UNL     1      26.690  49.147  49.213  1.00  0.00     0.142 A 
HETATM   37  C   UNL     1      26.518  50.017  48.162  1.00  0.00     0.027 A 
HETATM   38  C   UNL     1      25.126  50.062  47.911  1.00  0.00     0.036 A 
ENDBRANCH  33  34
ENDBRANCH  30  33
ENDBRANCH  24  29
ENDBRANCH   2  23
TORSDOF 6
ENDMDL
MODEL 4
REMARK VINA RESULT:     -10.5      2.762      4.170
REMARK  6 active torsions:
REMARK  status: ('A' for Active; 'I' for Inactive)
REMARK    1  A    between atoms: N_9  and  C_10 
REMARK    2  A    between atoms: C_10  and  C_11 
REMARK       I    between atoms: C_11  and  N_12 
REMARK    3  A    between atoms: N_12  and  C_13 
REMARK    4  A    between atoms: C_14  and  C_15 
REMARK       I    between atoms: C_15  and  N_16 
REMARK    5  A    between atoms: N_16  and  C_17 
REMARK    6  A    between atoms: C_17  and  C_18 
ROOT
HETATM    1  C   UNL     1      23.523  43.155  50.142  1.00  0.00     0.240 C 
HETATM    2  N   UNL     1      23.732  43.428  48.797  1.00  0.00    -0.325 N 
HETATM    3  O   UNL     1      22.521  43.423  50.791  1.00  0.00    -0.271 OA
HETATM    4  H   UNL     1      24.678  43.292  48.465  1.00  0.00     0.169 HD
ENDROOT
BRANCH   1   5
HETATM    5  C   UNL     1      24.713  42.425  50.774  1.00  0.00     0.240 C 
BRANCH   5   6
HETATM    6  N   UNL     1      25.727  43.346  51.227  1.00  0.00    -0.259 N 
HETATM    7  C   UNL     1      26.655  43.904  50.403  1.00  0.00     0.326 C 
HETATM    8  N   UNL     1      27.325  44.880  51.092  1.00  0.00    -0.320 N 
HETATM    9  O   UNL     1      26.850  43.633  49.230  1.00  0.00    -0.247 OA
HETATM   10  C   UNL     1      26.704  45.192  52.363  1.00  0.00     0.144 C 
HETATM   11  H   UNL     1      28.074  45.405  50.664  1.00  0.00     0.165 HD
HETATM   12  C   UNL     1      27.683  45.098  53.517  1.00  0.00    -0.014 A 
HETATM   13  C   UNL     1      25.626  44.079  52.382  1.00  0.00     0.261 C 
HETATM   14  C   UNL     1      26.005  46.561  52.230  1.00  0.00     0.047 C 
HETATM   15  C   UNL     1      27.784  46.127  54.479  1.00  0.00    -0.049 A 
HETATM   16  C   UNL     1      28.499  43.961  53.668  1.00  0.00     0.011 A 
HETATM   17  C   UNL     1      28.718  46.021  55.520  1.00  0.00     0.007 A 
HETATM   18  C   UNL     1      26.938  47.374  54.397  1.00  0.00     0.039 C 
HETATM   19  C   UNL     1      29.528  44.894  55.639  1.00  0.00     0.001 A 
HETATM   20  C   UNL     1      29.415  43.862  54.715  1.00  0.00     0.001 A 
HETATM   21  C   UNL     1      25.665  47.163  53.588  1.00  0.00     0.008 C 
HETATM   22  O   UNL     1      24.754  43.941  53.233  1.00  0.00    -0.270 OA
ENDBRANCH   5   6
ENDBRANCH   1   5
BRANCH   2  23
HETATM   23  C   UNL     1      22.864  44.043  47.866  1.00  0.00     0.050 A 
HETATM   24  C   UNL     1      22.589  45.409  47.703  1.00  0.00     0.058 A 
HETATM   25  C   UNL     1      21.756  45.829  46.643  1.00  0.00     0.019 A 
HETATM   26  C   UNL     1      21.163  44.912  45.778  1.00  0.00     0.001 A 
HETATM   27  C   UNL     1      21.384  43.558  45.968  1.00  0.00     0.002 A 
HETATM   28  C   UNL     1      22.219  43.130  47.003  1.00  0.00     0.030 A 
BRANCH  24  29
HETATM   29  C   UNL     1      22.978  46.510  48.619  1.00  0.00     0.254 C 
HETATM   30  N   UNL     1      22.490  47.767  48.320  1.00  0.00    -0.351 N 
HETATM   31  H   UNL     1      21.708  47.855  47.680  1.00  0.00     0.163 HD
HETATM   32  O   UNL     1      23.798  46.293  49.506  1.00  0.00    -0.268 OA
BRANCH  30  33
HETATM   33  C   UNL     1      22.725  48.841  49.253  1.00  0.00     0.187 C 
BRANCH  33  34
HETATM   34  C   UNL     1      21.681  49.882  49.096  1.00  0.00     0.070 A 
HETATM   35  O   UNL     1      20.539  49.723  49.824  1.00  0.00    -0.325 OA
HETATM   36  C   UNL     1      19.754  50.803  49.579  1.00  0.00     0.142 A 
HETATM   37  C   UNL     1      20.371  51.652  48.690  1.00  0.00     0.027 A 
HETATM   38  C   UNL     1      21.616  51.058  48.376  1.00  0.00     0.036 A 
ENDBRANCH  33  34
ENDBRANCH  30  33
ENDBRANCH  24  29
ENDBRANCH   2  23
TORSDOF 6
ENDMDL
MODEL 5
REMARK VINA RESULT:     -10.3      2.650      3.635
REMARK  6 active torsions:
REMARK  status: ('A' for Active; 'I' for Inactive)
REMARK    1  A    between atoms: N_9  and  C_10 
REMARK    2  A    between atoms: C_10  and  C_11 
REMARK       I    between atoms: C_11  and  N_12 
REMARK    3  A    between atoms: N_12  and  C_13 
REMARK    4  A    between atoms: C_14  and  C_15 
REMARK       I    between atoms: C_15  and  N_16 
REMARK    5  A    between atoms: N_16  and  C_17 
REMARK    6  A    between atoms: C_17  and  C_18 
ROOT
HETATM    1  C   UNL     1      24.552  46.991  49.967  1.00  0.00     0.240 C 
HETATM    2  N   UNL     1      23.725  47.400  48.931  1.00  0.00    -0.325 N 
HETATM    3  O   UNL     1      24.793  47.612  50.994  1.00  0.00    -0.271 OA
HETATM    4  H   UNL     1      23.774  46.844  48.086  1.00  0.00     0.169 HD
ENDROOT
BRANCH   1   5
HETATM    5  C   UNL     1      25.154  45.605  49.714  1.00  0.00     0.240 C 
BRANCH   5   6
HETATM    6  N   UNL     1      25.604  44.985  50.937  1.00  0.00    -0.259 N 
HETATM    7  C   UNL     1      24.779  44.317  51.787  1.00  0.00     0.326 C 
HETATM    8  N   UNL     1      25.541  43.677  52.729  1.00  0.00    -0.320 N 
HETATM    9  O   UNL     1      23.563  44.244  51.722  1.00  0.00    -0.247 OA
HETATM   10  C   UNL     1      26.953  43.691  52.405  1.00  0.00     0.144 C 
HETATM   11  H   UNL     1      25.118  43.138  53.470  1.00  0.00     0.165 HD
HETATM   12  C   UNL     1      27.795  44.240  53.542  1.00  0.00    -0.014 A 
HETATM   13  C   UNL     1      26.907  44.627  51.170  1.00  0.00     0.261 C 
HETATM   14  C   UNL     1      27.353  42.274  51.943  1.00  0.00     0.047 C 
HETATM   15  C   UNL     1      28.952  43.566  53.988  1.00  0.00    -0.049 A 
HETATM   16  C   UNL     1      27.450  45.456  54.161  1.00  0.00     0.011 A 
HETATM   17  C   UNL     1      29.695  44.087  55.059  1.00  0.00     0.007 A 
HETATM   18  C   UNL     1      29.399  42.263  53.372  1.00  0.00     0.039 C 
HETATM   19  C   UNL     1      29.324  45.283  55.668  1.00  0.00     0.001 A 
HETATM   20  C   UNL     1      28.204  45.970  55.215  1.00  0.00     0.001 A 
HETATM   21  C   UNL     1      28.862  42.072  51.959  1.00  0.00     0.008 C 
HETATM   22  O   UNL     1      27.859  44.912  50.452  1.00  0.00    -0.270 OA
ENDBRANCH   5   6
ENDBRANCH   1   5
BRANCH   2  23
HETATM   23  C   UNL     1      22.962  48.584  48.812  1.00  0.00     0.050 A 
HETATM   24  C   UNL     1      21.578  48.748  48.978  1.00  0.00     0.058 A 
HETATM   25  C   UNL     1      21.018  50.043  48.907  1.00  0.00     0.019 A 
HETATM   26  C   UNL     1      21.804  51.160  48.631  1.00  0.00     0.001 A 
HETATM   27  C   UNL     1      23.162  50.998  48.410  1.00  0.00     0.002 A 
HETATM   28  C   UNL     1      23.731  49.725  48.493  1.00  0.00     0.030 A 
BRANCH  24  29
HETATM   29  C   UNL     1      20.563  47.673  49.100  1.00  0.00     0.254 C 
HETATM   30  N   UNL     1      20.906  46.436  48.592  1.00  0.00    -0.351 N 
HETATM   31  H   UNL     1      21.881  46.231  48.405  1.00  0.00     0.163 HD
HETATM   32  O   UNL     1      19.442  47.950  49.518  1.00  0.00    -0.268 OA
BRANCH  30  33
HETATM   33  C   UNL     1      20.011  45.326  48.810  1.00  0.00     0.187 C 
BRANCH  33  34
HETATM   34  C   UNL     1      19.328  44.973  47.542  1.00  0.00     0.070 A 
HETATM   35  O   UNL     1      17.964  44.958  47.560  1.00  0.00    -0.325 OA
HETATM   36  C   UNL     1      17.550  44.672  46.299  1.00  0.00     0.142 A 
HETATM   37  C   UNL     1      18.631  44.489  45.470  1.00  0.00     0.027 A 
HETATM   38  C   UNL     1      19.781  44.682  46.271  1.00  0.00     0.036 A 
ENDBRANCH  33  34
ENDBRANCH  30  33
ENDBRANCH  24  29
ENDBRANCH   2  23
TORSDOF 6
ENDMDL
MODEL 6
REMARK VINA RESULT:     -10.2      1.958      3.306
REMARK  6 active torsions:
REMARK  status: ('A' for Active; 'I' for Inactive)
REMARK    1  A    between atoms: N_9  and  C_10 
REMARK    2  A    between atoms: C_10  and  C_11 
REMARK       I    between atoms: C_11  and  N_12 
REMARK    3  A    between atoms: N_12  and  C_13 
REMARK    4  A    between atoms: C_14  and  C_15 
REMARK       I    between atoms: C_15  and  N_16 
REMARK    5  A    between atoms: N_16  and  C_17 
REMARK    6  A    between atoms: C_17  and  C_18 
ROOT
HETATM    1  C   UNL     1      23.500  45.612  49.340  1.00  0.00     0.240 C 
HETATM    2  N   UNL     1      23.644  46.895  49.848  1.00  0.00    -0.325 N 
HETATM    3  O   UNL     1      23.158  45.314  48.203  1.00  0.00    -0.271 OA
HETATM    4  H   UNL     1      23.768  46.957  50.851  1.00  0.00     0.169 HD
ENDROOT
BRANCH   1   5
HETATM    5  C   UNL     1      23.851  44.538  50.374  1.00  0.00     0.240 C 
BRANCH   5   6
HETATM    6  N   UNL     1      25.167  44.741  50.931  1.00  0.00    -0.259 N 
HETATM    7  C   UNL     1      26.195  45.305  50.241  1.00  0.00     0.326 C 
HETATM    8  N   UNL     1      27.228  45.545  51.107  1.00  0.00    -0.320 N 
HETATM    9  O   UNL     1      26.207  45.601  49.057  1.00  0.00    -0.247 OA
HETATM   10  C   UNL     1      26.845  45.369  52.494  1.00  0.00     0.144 C 
HETATM   11  H   UNL     1      28.099  45.944  50.789  1.00  0.00     0.165 HD
HETATM   12  C   UNL     1      27.769  44.414  53.226  1.00  0.00    -0.014 A 
HETATM   13  C   UNL     1      25.420  44.798  52.278  1.00  0.00     0.261 C 
HETATM   14  C   UNL     1      26.731  46.766  53.140  1.00  0.00     0.047 C 
HETATM   15  C   UNL     1      28.313  44.743  54.486  1.00  0.00    -0.049 A 
HETATM   16  C   UNL     1      28.082  43.160  52.670  1.00  0.00     0.011 A 
HETATM   17  C   UNL     1      29.185  43.848  55.126  1.00  0.00     0.007 A 
HETATM   18  C   UNL     1      28.019  46.062  55.158  1.00  0.00     0.039 C 
HETATM   19  C   UNL     1      29.495  42.620  54.547  1.00  0.00     0.001 A 
HETATM   20  C   UNL     1      28.940  42.274  53.321  1.00  0.00     0.001 A 
HETATM   21  C   UNL     1      26.724  46.693  54.661  1.00  0.00     0.008 C 
HETATM   22  O   UNL     1      24.610  44.543  53.162  1.00  0.00    -0.270 OA
ENDBRANCH   5   6
ENDBRANCH   1   5
BRANCH   2  23
HETATM   23  C   UNL     1      23.459  48.139  49.200  1.00  0.00     0.050 A 
HETATM   24  C   UNL     1      22.258  48.817  48.945  1.00  0.00     0.058 A 
HETATM   25  C   UNL     1      22.295  50.103  48.364  1.00  0.00     0.019 A 
HETATM   26  C   UNL     1      23.500  50.698  47.995  1.00  0.00     0.001 A 
HETATM   27  C   UNL     1      24.686  50.010  48.191  1.00  0.00     0.002 A 
HETATM   28  C   UNL     1      24.664  48.744  48.780  1.00  0.00     0.030 A 
BRANCH  24  29
HETATM   29  C   UNL     1      20.883  48.281  49.101  1.00  0.00     0.254 C 
HETATM   30  N   UNL     1      20.076  48.903  50.033  1.00  0.00    -0.351 N 
HETATM   31  H   UNL     1      20.333  49.824  50.374  1.00  0.00     0.163 HD
HETATM   32  O   UNL     1      20.567  47.255  48.506  1.00  0.00    -0.268 OA
BRANCH  30  33
HETATM   33  C   UNL     1      18.692  48.510  50.123  1.00  0.00     0.187 C 
BRANCH  33  34
HETATM   34  C   UNL     1      17.824  49.609  49.636  1.00  0.00     0.070 A 
HETATM   35  O   UNL     1      17.869  50.783  50.329  1.00  0.00    -0.325 OA
HETATM   36  C   UNL     1      17.054  51.659  49.687  1.00  0.00     0.142 A 
HETATM   37  C   UNL     1      16.472  51.060  48.596  1.00  0.00     0.027 A 
HETATM   38  C   UNL     1      16.967  49.734  48.562  1.00  0.00     0.036 A 
ENDBRANCH  33  34
ENDBRANCH  30  33
ENDBRANCH  24  29
ENDBRANCH   2  23
TORSDOF 6
ENDMDL
MODEL 7
REMARK VINA RESULT:      -9.8      2.290     10.337
REMARK  6 active torsions:
REMARK  status: ('A' for Active; 'I' for Inactive)
REMARK    1  A    between atoms: N_9  and  C_10 
REMARK    2  A    between atoms: C_10  and  C_11 
REMARK       I    between atoms: C_11  and  N_12 
REMARK    3  A    between atoms: N_12  and  C_13 
REMARK    4  A    between atoms: C_14  and  C_15 
REMARK       I    between atoms: C_15  and  N_16 
REMARK    5  A    between atoms: N_16  and  C_17 
REMARK    6  A    between atoms: C_17  and  C_18 
ROOT
HETATM    1  C   UNL     1      22.600  46.233  48.640  1.00  0.00     0.240 C 
HETATM    2  N   UNL     1      23.015  47.426  49.213  1.00  0.00    -0.325 N 
HETATM    3  O   UNL     1      23.314  45.398  48.099  1.00  0.00    -0.271 OA
HETATM    4  H   UNL     1      22.277  48.072  49.462  1.00  0.00     0.169 HD
ENDROOT
BRANCH   1   5
HETATM    5  C   UNL     1      21.088  46.024  48.771  1.00  0.00     0.240 C 
BRANCH   5   6
HETATM    6  N   UNL     1      20.344  47.099  48.159  1.00  0.00    -0.259 N 
HETATM    7  C   UNL     1      20.358  47.356  46.824  1.00  0.00     0.326 C 
HETATM    8  N   UNL     1      19.398  48.292  46.545  1.00  0.00    -0.320 N 
HETATM    9  O   UNL     1      21.065  46.824  45.983  1.00  0.00    -0.247 OA
HETATM   10  C   UNL     1      18.515  48.536  47.667  1.00  0.00     0.144 C 
HETATM   11  H   UNL     1      19.258  48.638  45.606  1.00  0.00     0.165 HD
HETATM   12  C   UNL     1      18.432  50.009  48.020  1.00  0.00    -0.014 A 
HETATM   13  C   UNL     1      19.250  47.690  48.738  1.00  0.00     0.261 C 
HETATM   14  C   UNL     1      17.154  47.877  47.358  1.00  0.00     0.047 C 
HETATM   15  C   UNL     1      17.188  50.644  48.223  1.00  0.00    -0.049 A 
HETATM   16  C   UNL     1      19.605  50.770  48.180  1.00  0.00     0.011 A 
HETATM   17  C   UNL     1      17.145  52.015  48.523  1.00  0.00     0.007 A 
HETATM   18  C   UNL     1      15.884  49.899  48.082  1.00  0.00     0.039 C 
HETATM   19  C   UNL     1      18.318  52.752  48.658  1.00  0.00     0.001 A 
HETATM   20  C   UNL     1      19.549  52.128  48.492  1.00  0.00     0.001 A 
HETATM   21  C   UNL     1      16.049  48.396  48.268  1.00  0.00     0.008 C 
HETATM   22  O   UNL     1      18.860  47.490  49.883  1.00  0.00    -0.270 OA
ENDBRANCH   5   6
ENDBRANCH   1   5
BRANCH   2  23
HETATM   23  C   UNL     1      24.322  47.952  49.333  1.00  0.00     0.050 A 
HETATM   24  C   UNL     1      25.356  47.528  50.182  1.00  0.00     0.058 A 
HETATM   25  C   UNL     1      26.629  48.131  50.081  1.00  0.00     0.019 A 
HETATM   26  C   UNL     1      26.871  49.171  49.186  1.00  0.00     0.001 A 
HETATM   27  C   UNL     1      25.839  49.633  48.386  1.00  0.00     0.002 A 
HETATM   28  C   UNL     1      24.580  49.034  48.464  1.00  0.00     0.030 A 
BRANCH  24  29
HETATM   29  C   UNL     1      25.246  46.569  51.309  1.00  0.00     0.254 C 
HETATM   30  N   UNL     1      25.946  46.880  52.458  1.00  0.00    -0.351 N 
HETATM   31  H   UNL     1      26.278  47.829  52.594  1.00  0.00     0.163 HD
HETATM   32  O   UNL     1      24.660  45.504  51.136  1.00  0.00    -0.268 OA
BRANCH  30  33
HETATM   33  C   UNL     1      25.761  46.053  53.625  1.00  0.00     0.187 C 
BRANCH  33  34
HETATM   34  C   UNL     1      27.010  45.309  53.918  1.00  0.00     0.070 A 
HETATM   35  O   UNL     1      27.460  44.458  52.953  1.00  0.00    -0.325 OA
HETATM   36  C   UNL     1      28.631  43.932  53.396  1.00  0.00     0.142 A 
HETATM   37  C   UNL     1      28.935  44.424  54.643  1.00  0.00     0.027 A 
HETATM   38  C   UNL     1      27.888  45.313  54.983  1.00  0.00     0.036 A 
ENDBRANCH  33  34
ENDBRANCH  30  33
ENDBRANCH  24  29
ENDBRANCH   2  23
TORSDOF 6
ENDMDL
MODEL 8
REMARK VINA RESULT:      -9.7      2.256      3.695
REMARK  6 active torsions:
REMARK  status: ('A' for Active; 'I' for Inactive)
REMARK    1  A    between atoms: N_9  and  C_10 
REMARK    2  A    between atoms: C_10  and  C_11 
REMARK       I    between atoms: C_11  and  N_12 
REMARK    3  A    between atoms: N_12  and  C_13 
REMARK    4  A    between atoms: C_14  and  C_15 
REMARK       I    between atoms: C_15  and  N_16 
REMARK    5  A    between atoms: N_16  and  C_17 
REMARK    6  A    between atoms: C_17  and  C_18 
ROOT
HETATM    1  C   UNL     1      25.038  45.482  50.735  1.00  0.00     0.240 C 
HETATM    2  N   UNL     1      23.802  44.864  50.617  1.00  0.00    -0.325 N 
HETATM    3  O   UNL     1      25.910  45.535  49.877  1.00  0.00    -0.271 OA
HETATM    4  H   UNL     1      23.276  44.769  51.477  1.00  0.00     0.169 HD
ENDROOT
BRANCH   1   5
HETATM    5  C   UNL     1      25.221  46.152  52.101  1.00  0.00     0.240 C 
BRANCH   5   6
HETATM    6  N   UNL     1      25.948  45.307  53.018  1.00  0.00    -0.259 N 
HETATM    7  C   UNL     1      25.357  44.610  54.025  1.00  0.00     0.326 C 
HETATM    8  N   UNL     1      26.278  43.756  54.570  1.00  0.00    -0.320 N 
HETATM    9  O   UNL     1      24.191  44.681  54.378  1.00  0.00    -0.247 OA
HETATM   10  C   UNL     1      27.489  43.665  53.780  1.00  0.00     0.144 C 
HETATM   11  H   UNL     1      26.045  43.158  55.350  1.00  0.00     0.165 HD
HETATM   12  C   UNL     1      28.733  43.940  54.605  1.00  0.00    -0.014 A 
HETATM   13  C   UNL     1      27.184  44.778  52.745  1.00  0.00     0.261 C 
HETATM   14  C   UNL     1      27.491  42.301  53.059  1.00  0.00     0.047 C 
HETATM   15  C   UNL     1      29.853  43.084  54.547  1.00  0.00    -0.049 A 
HETATM   16  C   UNL     1      28.802  45.077  55.432  1.00  0.00     0.011 A 
HETATM   17  C   UNL     1      30.978  43.351  55.343  1.00  0.00     0.007 A 
HETATM   18  C   UNL     1      29.866  41.849  53.679  1.00  0.00     0.039 C 
HETATM   19  C   UNL     1      31.017  44.473  56.168  1.00  0.00     0.001 A 
HETATM   20  C   UNL     1      29.931  45.338  56.208  1.00  0.00     0.001 A 
HETATM   21  C   UNL     1      28.871  41.937  52.529  1.00  0.00     0.008 C 
HETATM   22  O   UNL     1      27.878  45.065  51.776  1.00  0.00    -0.270 OA
ENDBRANCH   5   6
ENDBRANCH   1   5
BRANCH   2  23
HETATM   23  C   UNL     1      23.246  44.183  49.510  1.00  0.00     0.050 A 
HETATM   24  C   UNL     1      22.709  44.727  48.333  1.00  0.00     0.058 A 
HETATM   25  C   UNL     1      22.286  43.865  47.298  1.00  0.00     0.019 A 
HETATM   26  C   UNL     1      22.348  42.480  47.436  1.00  0.00     0.001 A 
HETATM   27  C   UNL     1      22.824  41.935  48.618  1.00  0.00     0.002 A 
HETATM   28  C   UNL     1      23.261  42.777  49.643  1.00  0.00     0.030 A 
BRANCH  24  29
HETATM   29  C   UNL     1      22.399  46.155  48.074  1.00  0.00     0.254 C 
HETATM   30  N   UNL     1      22.297  46.978  49.177  1.00  0.00    -0.351 N 
HETATM   31  H   UNL     1      22.680  46.667  50.064  1.00  0.00     0.163 HD
HETATM   32  O   UNL     1      22.125  46.512  46.931  1.00  0.00    -0.268 OA
BRANCH  30  33
HETATM   33  C   UNL     1      22.135  48.396  48.971  1.00  0.00     0.187 C 
BRANCH  33  34
HETATM   34  C   UNL     1      23.454  49.022  48.713  1.00  0.00     0.070 A 
HETATM   35  O   UNL     1      24.514  48.540  49.423  1.00  0.00    -0.325 OA
HETATM   36  C   UNL     1      25.618  49.203  48.995  1.00  0.00     0.142 A 
HETATM   37  C   UNL     1      25.282  50.118  48.026  1.00  0.00     0.027 A 
HETATM   38  C   UNL     1      23.883  50.003  47.843  1.00  0.00     0.036 A 
ENDBRANCH  33  34
ENDBRANCH  30  33
ENDBRANCH  24  29
ENDBRANCH   2  23
TORSDOF 6
ENDMDL
MODEL 9
REMARK VINA RESULT:      -9.7      3.069      5.130
REMARK  6 active torsions:
REMARK  status: ('A' for Active; 'I' for Inactive)
REMARK    1  A    between atoms: N_9  and  C_10 
REMARK    2  A    between atoms: C_10  and  C_11 
REMARK       I    between atoms: C_11  and  N_12 
REMARK    3  A    between atoms: N_12  and  C_13 
REMARK    4  A    between atoms: C_14  and  C_15 
REMARK       I    between atoms: C_15  and  N_16 
REMARK    5  A    between atoms: N_16  and  C_17 
REMARK    6  A    between atoms: C_17  and  C_18 
ROOT
HETATM    1  C   UNL     1      27.422  41.766  49.554  1.00  0.00     0.240 C 
HETATM    2  N   UNL     1      26.151  41.990  50.065  1.00  0.00    -0.325 N 
HETATM    3  O   UNL     1      27.770  41.893  48.388  1.00  0.00    -0.271 OA
HETATM    4  H   UNL     1      25.999  41.674  51.015  1.00  0.00     0.169 HD
ENDROOT
BRANCH   1   5
HETATM    5  C   UNL     1      28.416  41.347  50.643  1.00  0.00     0.240 C 
BRANCH   5   6
HETATM    6  N   UNL     1      28.140  42.000  51.900  1.00  0.00    -0.259 N 
HETATM    7  C   UNL     1      27.349  41.462  52.867  1.00  0.00     0.326 C 
HETATM    8  N   UNL     1      27.460  42.221  54.001  1.00  0.00    -0.320 N 
HETATM    9  O   UNL     1      26.676  40.447  52.782  1.00  0.00    -0.247 OA
HETATM   10  C   UNL     1      28.538  43.186  53.921  1.00  0.00     0.144 C 
HETATM   11  H   UNL     1      26.935  42.002  54.835  1.00  0.00     0.165 HD
HETATM   12  C   UNL     1      28.066  44.597  54.222  1.00  0.00    -0.014 A 
HETATM   13  C   UNL     1      28.937  42.978  52.437  1.00  0.00     0.261 C 
HETATM   14  C   UNL     1      29.690  42.694  54.821  1.00  0.00     0.047 C 
HETATM   15  C   UNL     1      28.765  45.425  55.126  1.00  0.00    -0.049 A 
HETATM   16  C   UNL     1      26.928  45.119  53.580  1.00  0.00     0.011 A 
HETATM   17  C   UNL     1      28.288  46.716  55.402  1.00  0.00     0.007 A 
HETATM   18  C   UNL     1      30.001  44.947  55.848  1.00  0.00     0.039 C 
HETATM   19  C   UNL     1      27.148  47.205  54.768  1.00  0.00     0.001 A 
HETATM   20  C   UNL     1      26.471  46.408  53.853  1.00  0.00     0.001 A 
HETATM   21  C   UNL     1      30.693  43.801  55.122  1.00  0.00     0.008 C 
HETATM   22  O   UNL     1      29.879  43.516  51.867  1.00  0.00    -0.270 OA
ENDBRANCH   5   6
ENDBRANCH   1   5
BRANCH   2  23
HETATM   23  C   UNL     1      24.984  42.426  49.396  1.00  0.00     0.050 A 
HETATM   24  C   UNL     1      24.511  43.738  49.237  1.00  0.00     0.058 A 
HETATM   25  C   UNL     1      23.364  43.972  48.448  1.00  0.00     0.019 A 
HETATM   26  C   UNL     1      22.662  42.923  47.857  1.00  0.00     0.001 A 
HETATM   27  C   UNL     1      23.091  41.621  48.057  1.00  0.00     0.002 A 
HETATM   28  C   UNL     1      24.234  41.377  48.822  1.00  0.00     0.030 A 
BRANCH  24  29
HETATM   29  C   UNL     1      25.010  44.954  49.925  1.00  0.00     0.254 C 
HETATM   30  N   UNL     1      24.289  46.115  49.733  1.00  0.00    -0.351 N 
HETATM   31  H   UNL     1      23.343  46.056  49.372  1.00  0.00     0.163 HD
HETATM   32  O   UNL     1      26.086  44.911  50.515  1.00  0.00    -0.268 OA
BRANCH  30  33
HETATM   33  C   UNL     1      24.653  47.289  50.489  1.00  0.00     0.187 C 
BRANCH  33  34
HETATM   34  C   UNL     1      25.550  48.150  49.681  1.00  0.00     0.070 A 
HETATM   35  O   UNL     1      24.954  49.070  48.870  1.00  0.00    -0.325 OA
HETATM   36  C   UNL     1      25.945  49.781  48.274  1.00  0.00     0.142 A 
HETATM   37  C   UNL     1      27.174  49.322  48.680  1.00  0.00     0.027 A 
HETATM   38  C   UNL     1      26.921  48.267  49.589  1.00  0.00     0.036 A 
ENDBRANCH  33  34
ENDBRANCH  30  33
ENDBRANCH  24  29
ENDBRANCH   2  23
TORSDOF 6
ENDMDL
MODEL 10
REMARK VINA RESULT:      -9.5      4.169      7.322
REMARK  6 active torsions:
REMARK  status: ('A' for Active; 'I' for Inactive)
REMARK    1  A    between atoms: N_9  and  C_10 
REMARK    2  A    between atoms: C_10  and  C_11 
REMARK       I    between atoms: C_11  and  N_12 
REMARK    3  A    between atoms: N_12  and  C_13 
REMARK    4  A    between atoms: C_14  and  C_15 
REMARK       I    between atoms: C_15  and  N_16 
REMARK    5  A    between atoms: N_16  and  C_17 
REMARK    6  A    between atoms: C_17  and  C_18 
ROOT
HETATM    1  C   UNL     1      24.341  44.709  51.067  1.00  0.00     0.240 C 
HETATM    2  N   UNL     1      25.009  44.525  49.865  1.00  0.00    -0.325 N 
HETATM    3  O   UNL     1      23.293  44.175  51.406  1.00  0.00    -0.271 OA
HETATM    4  H   UNL     1      25.767  45.171  49.682  1.00  0.00     0.169 HD
ENDROOT
BRANCH   1   5
HETATM    5  C   UNL     1      25.082  45.674  51.998  1.00  0.00     0.240 C 
BRANCH   5   6
HETATM    6  N   UNL     1      25.876  44.969  52.976  1.00  0.00    -0.259 N 
HETATM    7  C   UNL     1      25.351  44.368  54.077  1.00  0.00     0.326 C 
HETATM    8  N   UNL     1      26.326  43.619  54.678  1.00  0.00    -0.320 N 
HETATM    9  O   UNL     1      24.195  44.432  54.465  1.00  0.00    -0.247 OA
HETATM   10  C   UNL     1      27.513  43.488  53.857  1.00  0.00     0.144 C 
HETATM   11  H   UNL     1      26.147  43.105  55.529  1.00  0.00     0.165 HD
HETATM   12  C   UNL     1      28.770  43.904  54.598  1.00  0.00    -0.014 A 
HETATM   13  C   UNL     1      27.124  44.462  52.717  1.00  0.00     0.261 C 
HETATM   14  C   UNL     1      27.551  42.051  53.295  1.00  0.00     0.047 C 
HETATM   15  C   UNL     1      29.925  43.093  54.593  1.00  0.00    -0.049 A 
HETATM   16  C   UNL     1      28.817  45.130  55.288  1.00  0.00     0.011 A 
HETATM   17  C   UNL     1      31.064  43.494  55.310  1.00  0.00     0.007 A 
HETATM   18  C   UNL     1      29.963  41.769  53.870  1.00  0.00     0.039 C 
HETATM   19  C   UNL     1      31.081  44.703  56.001  1.00  0.00     0.001 A 
HETATM   20  C   UNL     1      29.959  45.523  55.986  1.00  0.00     0.001 A 
HETATM   21  C   UNL     1      28.927  41.685  52.756  1.00  0.00     0.008 C 
HETATM   22  O   UNL     1      27.772  44.665  51.696  1.00  0.00    -0.270 OA
ENDBRANCH   5   6
ENDBRANCH   1   5
BRANCH   2  23
HETATM   23  C   UNL     1      24.673  43.689  48.775  1.00  0.00     0.050 A 
HETATM   24  C   UNL     1      25.166  42.410  48.476  1.00  0.00     0.058 A 
HETATM   25  C   UNL     1      24.629  41.696  47.382  1.00  0.00     0.019 A 
HETATM   26  C   UNL     1      23.647  42.252  46.564  1.00  0.00     0.001 A 
HETATM   27  C   UNL     1      23.197  43.537  46.820  1.00  0.00     0.002 A 
HETATM   28  C   UNL     1      23.709  44.247  47.908  1.00  0.00     0.030 A 
BRANCH  24  29
HETATM   29  C   UNL     1      26.320  41.728  49.113  1.00  0.00     0.254 C 
HETATM   30  N   UNL     1      26.101  40.450  49.587  1.00  0.00    -0.351 N 
HETATM   31  H   UNL     1      25.287  39.936  49.267  1.00  0.00     0.163 HD
HETATM   32  O   UNL     1      27.357  42.356  49.306  1.00  0.00    -0.268 OA
BRANCH  30  33
HETATM   33  C   UNL     1      27.223  39.696  50.089  1.00  0.00     0.187 C 
BRANCH  33  34
HETATM   34  C   UNL     1      27.742  38.800  49.029  1.00  0.00     0.070 A 
HETATM   35  O   UNL     1      26.823  38.063  48.340  1.00  0.00    -0.325 OA
HETATM   36  C   UNL     1      27.498  37.366  47.391  1.00  0.00     0.142 A 
HETATM   37  C   UNL     1      28.844  37.633  47.467  1.00  0.00     0.027 A 
HETATM   38  C   UNL     1      29.004  38.559  48.525  1.00  0.00     0.036 A 
ENDBRANCH  33  34
ENDBRANCH  30  33
ENDBRANCH  24  29
ENDBRANCH   2  23
TORSDOF 6
ENDMDL
