MODEL 1
REMARK VINA RESULT:     -12.2      0.000      0.000
REMARK  7 active torsions:
REMARK  status: ('A' for Active; 'I' for Inactive)
REMARK    1  A    between atoms: C_2  and  C_3 
REMARK    2  A    between atoms: N_16  and  C_17 
REMARK    3  A    between atoms: C_17  and  C_18 
REMARK       I    between atoms: C_18  and  N_19 
REMARK    4  A    between atoms: N_19  and  C_20 
REMARK    5  A    between atoms: C_21  and  C_22 
REMARK       I    between atoms: C_22  and  N_23 
REMARK    6  A    between atoms: N_23  and  C_24 
REMARK    7  A    between atoms: C_24  and  C_25 
ROOT
HETATM    1  C   UNL     1      24.447  44.762  51.053  1.00  0.00     0.240 C 
ENDROOT
BRANCH   1   2
HETATM    2  N   UNL     1      25.782  44.392  51.489  1.00  0.00    -0.259 N 
HETATM    3  C   UNL     1      26.884  44.483  50.702  1.00  0.00     0.326 A 
HETATM    4  N   UNL     1      27.952  43.950  51.371  1.00  0.00    -0.321 N 
HETATM    5  O   UNL     1      26.955  44.980  49.592  1.00  0.00    -0.247 OA
HETATM    6  C   UNL     1      27.585  43.365  52.646  1.00  0.00     0.140 A 
HETATM    7  H   UNL     1      28.864  43.878  50.938  1.00  0.00     0.165 HD
HETATM    8  C   UNL     1      27.807  41.852  52.589  1.00  0.00     0.054 C 
HETATM    9  C   UNL     1      26.067  43.680  52.623  1.00  0.00     0.261 A 
HETATM   10  O   UNL     1      25.249  43.321  53.461  1.00  0.00    -0.270 OA
BRANCH   6  11
HETATM   11  C   UNL     1      28.280  44.027  53.831  1.00  0.00    -0.020 A 
HETATM   12  C   UNL     1      29.313  43.346  54.505  1.00  0.00     0.022 A 
HETATM   13  C   UNL     1      29.988  43.913  55.602  1.00  0.00    -0.025 A 
HETATM   14  C   UNL     1      29.620  45.198  56.050  1.00  0.00    -0.026 A 
HETATM   15  C   UNL     1      31.021  43.225  56.261  1.00  0.00     0.012 A 
HETATM   16  C   UNL     1      28.587  45.878  55.391  1.00  0.00     0.013 A 
HETATM   17  C   UNL     1      30.292  45.763  57.146  1.00  0.00     0.012 A 
HETATM   18  C   UNL     1      27.928  45.303  54.298  1.00  0.00     0.011 A 
HETATM   19  C   UNL     1      31.317  45.067  57.790  1.00  0.00     0.001 A 
HETATM   20  C   UNL     1      31.682  43.801  57.347  1.00  0.00     0.001 A 
ENDBRANCH   6  11
ENDBRANCH   1   2
BRANCH   1  21
HETATM   21  C   UNL     1      24.423  45.874  50.002  1.00  0.00     0.240 C 
HETATM   22  N   UNL     1      24.639  47.161  50.481  1.00  0.00    -0.325 N 
HETATM   23  H   UNL     1      25.132  47.154  51.365  1.00  0.00     0.169 HD
HETATM   24  O   UNL     1      24.152  45.620  48.826  1.00  0.00    -0.271 OA
BRANCH  22  25
HETATM   25  C   UNL     1      25.076  48.175  49.590  1.00  0.00     0.050 A 
HETATM   26  C   UNL     1      24.271  48.860  48.659  1.00  0.00     0.058 A 
HETATM   27  C   UNL     1      24.869  49.840  47.839  1.00  0.00     0.019 A 
HETATM   28  C   UNL     1      26.228  50.144  47.941  1.00  0.00     0.001 A 
HETATM   29  C   UNL     1      27.008  49.494  48.887  1.00  0.00     0.002 A 
HETATM   30  C   UNL     1      26.434  48.526  49.711  1.00  0.00     0.030 A 
BRANCH  26  31
HETATM   31  C   UNL     1      22.784  48.804  48.563  1.00  0.00     0.254 C 
HETATM   32  N   UNL     1      22.048  49.293  49.607  1.00  0.00    -0.351 N 
HETATM   33  H   UNL     1      22.528  49.556  50.465  1.00  0.00     0.163 HD
HETATM   34  O   UNL     1      22.272  48.272  47.581  1.00  0.00    -0.268 OA
BRANCH  32  35
HETATM   35  C   UNL     1      20.612  49.176  49.668  1.00  0.00     0.187 C 
BRANCH  35  36
HETATM   36  C   UNL     1      19.998  50.486  49.334  1.00  0.00     0.070 A 
HETATM   37  O   UNL     1      18.935  50.887  50.093  1.00  0.00    -0.325 OA
HETATM   38  C   UNL     1      18.519  52.079  49.592  1.00  0.00     0.142 A 
HETATM   39  C   UNL     1      19.300  52.452  48.523  1.00  0.00     0.027 A 
HETATM   40  C   UNL     1      20.259  51.426  48.359  1.00  0.00     0.036 A 
ENDBRANCH  35  36
ENDBRANCH  32  35
ENDBRANCH  26  31
ENDBRANCH  22  25
ENDBRANCH   1  21
TORSDOF 7
ENDMDL
MODEL 2
REMARK VINA RESULT:     -12.2      2.591      9.478
REMARK  7 active torsions:
REMARK  status: ('A' for Active; 'I' for Inactive)
REMARK    1  A    between atoms: C_2  and  C_3 
REMARK    2  A    between atoms: N_16  and  C_17 
REMARK    3  A    between atoms: C_17  and  C_18 
REMARK       I    between atoms: C_18  and  N_19 
REMARK    4  A    between atoms: N_19  and  C_20 
REMARK    5  A    between atoms: C_21  and  C_22 
REMARK       I    between atoms: C_22  and  N_23 
REMARK    6  A    between atoms: N_23  and  C_24 
REMARK    7  A    between atoms: C_24  and  C_25 
ROOT
HETATM    1  C   UNL     1      25.252  45.418  53.928  1.00  0.00     0.240 C 
ENDROOT
BRANCH   1   2
HETATM    2  N   UNL     1      25.207  45.646  52.495  1.00  0.00    -0.259 N 
HETATM    3  C   UNL     1      24.710  44.749  51.605  1.00  0.00     0.326 A 
HETATM    4  N   UNL     1      24.921  45.220  50.337  1.00  0.00    -0.321 N 
HETATM    5  O   UNL     1      24.137  43.705  51.857  1.00  0.00    -0.247 OA
HETATM    6  C   UNL     1      25.685  46.452  50.312  1.00  0.00     0.140 A 
HETATM    7  H   UNL     1      24.666  44.676  49.523  1.00  0.00     0.165 HD
HETATM    8  C   UNL     1      27.039  46.193  49.648  1.00  0.00     0.054 C 
HETATM    9  C   UNL     1      25.871  46.647  51.839  1.00  0.00     0.261 A 
HETATM   10  O   UNL     1      26.533  47.528  52.372  1.00  0.00    -0.270 OA
BRANCH   6  11
HETATM   11  C   UNL     1      24.924  47.615  49.684  1.00  0.00    -0.020 A 
HETATM   12  C   UNL     1      23.518  47.567  49.599  1.00  0.00     0.022 A 
HETATM   13  C   UNL     1      22.769  48.614  49.032  1.00  0.00    -0.025 A 
HETATM   14  C   UNL     1      23.439  49.745  48.525  1.00  0.00    -0.026 A 
HETATM   15  C   UNL     1      21.368  48.555  48.960  1.00  0.00     0.012 A 
HETATM   16  C   UNL     1      24.837  49.798  48.597  1.00  0.00     0.013 A 
HETATM   17  C   UNL     1      22.691  50.790  47.956  1.00  0.00     0.012 A 
HETATM   18  C   UNL     1      25.569  48.751  49.168  1.00  0.00     0.011 A 
HETATM   19  C   UNL     1      21.298  50.718  47.893  1.00  0.00     0.001 A 
HETATM   20  C   UNL     1      20.637  49.602  48.396  1.00  0.00     0.001 A 
ENDBRANCH   6  11
ENDBRANCH   1   2
BRANCH   1  21
HETATM   21  C   UNL     1      26.474  44.623  54.392  1.00  0.00     0.240 C 
HETATM   22  N   UNL     1      27.706  45.229  54.174  1.00  0.00    -0.325 N 
HETATM   23  H   UNL     1      27.618  46.233  54.082  1.00  0.00     0.169 HD
HETATM   24  O   UNL     1      26.344  43.488  54.856  1.00  0.00    -0.271 OA
BRANCH  22  25
HETATM   25  C   UNL     1      28.831  44.820  54.936  1.00  0.00     0.050 A 
HETATM   26  C   UNL     1      29.637  43.693  54.681  1.00  0.00     0.058 A 
HETATM   27  C   UNL     1      30.718  43.425  55.547  1.00  0.00     0.019 A 
HETATM   28  C   UNL     1      31.004  44.253  56.633  1.00  0.00     0.001 A 
HETATM   29  C   UNL     1      30.231  45.384  56.857  1.00  0.00     0.002 A 
HETATM   30  C   UNL     1      29.161  45.670  56.009  1.00  0.00     0.030 A 
BRANCH  26  31
HETATM   31  C   UNL     1      29.595  42.832  53.464  1.00  0.00     0.254 C 
HETATM   32  N   UNL     1      28.690  41.808  53.426  1.00  0.00    -0.351 N 
HETATM   33  H   UNL     1      28.168  41.582  54.270  1.00  0.00     0.163 HD
HETATM   34  O   UNL     1      30.409  43.035  52.566  1.00  0.00    -0.268 OA
BRANCH  32  35
HETATM   35  C   UNL     1      28.650  40.846  52.352  1.00  0.00     0.187 C 
BRANCH  35  36
HETATM   36  C   UNL     1      27.649  41.276  51.344  1.00  0.00     0.070 A 
HETATM   37  O   UNL     1      26.541  40.493  51.192  1.00  0.00    -0.325 OA
HETATM   38  C   UNL     1      25.793  41.051  50.205  1.00  0.00     0.142 A 
HETATM   39  C   UNL     1      26.403  42.185  49.721  1.00  0.00     0.027 A 
HETATM   40  C   UNL     1      27.600  42.334  50.460  1.00  0.00     0.036 A 
ENDBRANCH  35  36
ENDBRANCH  32  35
ENDBRANCH  26  31
ENDBRANCH  22  25
ENDBRANCH   1  21
TORSDOF 7
ENDMDL
MODEL 3
REMARK VINA RESULT:     -12.1      1.760      2.123
REMARK  7 active torsions:
REMARK  status: ('A' for Active; 'I' for Inactive)
REMARK    1  A    between atoms: C_2  and  C_3 
REMARK    2  A    between atoms: N_16  and  C_17 
REMARK    3  A    between atoms: C_17  and  C_18 
REMARK       I    between atoms: C_18  and  N_19 
REMARK    4  A    between atoms: N_19  and  C_20 
REMARK    5  A    between atoms: C_21  and  C_22 
REMARK       I    between atoms: C_22  and  N_23 
REMARK    6  A    between atoms: N_23  and  C_24 
REMARK    7  A    between atoms: C_24  and  C_25 
ROOT
HETATM    1  C   UNL     1      24.362  45.444  50.608  1.00  0.00     0.240 C 
ENDROOT
BRANCH   1   2
HETATM    2  N   UNL     1      25.639  44.930  51.066  1.00  0.00    -0.259 N 
HETATM    3  C   UNL     1      26.775  44.963  50.322  1.00  0.00     0.326 A 
HETATM    4  N   UNL     1      27.765  44.299  50.995  1.00  0.00    -0.321 N 
HETATM    5  O   UNL     1      26.933  45.511  49.247  1.00  0.00    -0.247 OA
HETATM    6  C   UNL     1      27.298  43.681  52.221  1.00  0.00     0.140 A 
HETATM    7  H   UNL     1      28.682  44.167  50.589  1.00  0.00     0.165 HD
HETATM    8  C   UNL     1      27.385  42.159  52.084  1.00  0.00     0.054 C 
HETATM    9  C   UNL     1      25.816  44.135  52.166  1.00  0.00     0.261 A 
HETATM   10  O   UNL     1      24.938  43.807  52.954  1.00  0.00    -0.270 OA
BRANCH   6  11
HETATM   11  C   UNL     1      28.003  44.211  53.465  1.00  0.00    -0.020 A 
HETATM   12  C   UNL     1      29.062  43.476  54.035  1.00  0.00     0.022 A 
HETATM   13  C   UNL     1      29.748  43.920  55.180  1.00  0.00    -0.025 A 
HETATM   14  C   UNL     1      29.364  45.135  55.785  1.00  0.00    -0.026 A 
HETATM   15  C   UNL     1      30.805  43.181  55.734  1.00  0.00     0.012 A 
HETATM   16  C   UNL     1      28.307  45.868  55.229  1.00  0.00     0.013 A 
HETATM   17  C   UNL     1      30.047  45.579  56.930  1.00  0.00     0.012 A 
HETATM   18  C   UNL     1      27.638  45.414  54.088  1.00  0.00     0.011 A 
HETATM   19  C   UNL     1      31.097  44.832  57.467  1.00  0.00     0.001 A 
HETATM   20  C   UNL     1      31.477  43.635  56.869  1.00  0.00     0.001 A 
ENDBRANCH   6  11
ENDBRANCH   1   2
BRANCH   1  21
HETATM   21  C   UNL     1      24.375  46.939  50.279  1.00  0.00     0.240 C 
HETATM   22  N   UNL     1      24.049  47.270  48.968  1.00  0.00    -0.325 N 
HETATM   23  H   UNL     1      23.506  46.542  48.521  1.00  0.00     0.169 HD
HETATM   24  O   UNL     1      24.730  47.764  51.123  1.00  0.00    -0.271 OA
BRANCH  22  25
HETATM   25  C   UNL     1      23.600  48.583  48.670  1.00  0.00     0.050 A 
HETATM   26  C   UNL     1      22.258  49.005  48.612  1.00  0.00     0.058 A 
HETATM   27  C   UNL     1      21.985  50.351  48.293  1.00  0.00     0.019 A 
HETATM   28  C   UNL     1      23.012  51.264  48.047  1.00  0.00     0.001 A 
HETATM   29  C   UNL     1      24.334  50.853  48.144  1.00  0.00     0.002 A 
HETATM   30  C   UNL     1      24.625  49.527  48.464  1.00  0.00     0.030 A 
BRANCH  26  31
HETATM   31  C   UNL     1      21.064  48.221  49.042  1.00  0.00     0.254 C 
HETATM   32  N   UNL     1      20.096  48.859  49.766  1.00  0.00    -0.351 N 
HETATM   33  H   UNL     1      20.276  49.803  50.102  1.00  0.00     0.163 HD
HETATM   34  O   UNL     1      21.017  47.021  48.780  1.00  0.00    -0.268 OA
BRANCH  32  35
HETATM   35  C   UNL     1      18.965  48.166  50.332  1.00  0.00     0.187 C 
BRANCH  35  36
HETATM   36  C   UNL     1      17.809  48.275  49.407  1.00  0.00     0.070 A 
HETATM   37  O   UNL     1      17.483  49.524  48.961  1.00  0.00    -0.325 OA
HETATM   38  C   UNL     1      16.389  49.388  48.168  1.00  0.00     0.142 A 
HETATM   39  C   UNL     1      16.007  48.069  48.094  1.00  0.00     0.027 A 
HETATM   40  C   UNL     1      16.927  47.347  48.891  1.00  0.00     0.036 A 
ENDBRANCH  35  36
ENDBRANCH  32  35
ENDBRANCH  26  31
ENDBRANCH  22  25
ENDBRANCH   1  21
TORSDOF 7
ENDMDL
MODEL 4
REMARK VINA RESULT:     -11.9      1.494      2.101
REMARK  7 active torsions:
REMARK  status: ('A' for Active; 'I' for Inactive)
REMARK    1  A    between atoms: C_2  and  C_3 
REMARK    2  A    between atoms: N_16  and  C_17 
REMARK    3  A    between atoms: C_17  and  C_18 
REMARK       I    between atoms: C_18  and  N_19 
REMARK    4  A    between atoms: N_19  and  C_20 
REMARK    5  A    between atoms: C_21  and  C_22 
REMARK       I    between atoms: C_22  and  N_23 
REMARK    6  A    between atoms: N_23  and  C_24 
REMARK    7  A    between atoms: C_24  and  C_25 
ROOT
HETATM    1  C   UNL     1      24.419  44.707  51.040  1.00  0.00     0.240 C 
ENDROOT
BRANCH   1   2
HETATM    2  N   UNL     1      25.747  44.324  51.482  1.00  0.00    -0.259 N 
HETATM    3  C   UNL     1      26.847  44.365  50.688  1.00  0.00     0.326 A 
HETATM    4  N   UNL     1      27.908  43.833  51.370  1.00  0.00    -0.321 N 
HETATM    5  O   UNL     1      26.922  44.824  49.562  1.00  0.00    -0.247 OA
HETATM    6  C   UNL     1      27.535  43.298  52.665  1.00  0.00     0.140 A 
HETATM    7  H   UNL     1      28.815  43.727  50.935  1.00  0.00     0.165 HD
HETATM    8  C   UNL     1      27.725  41.779  52.657  1.00  0.00     0.054 C 
HETATM    9  C   UNL     1      26.023  43.644  52.638  1.00  0.00     0.261 A 
HETATM   10  O   UNL     1      25.203  43.330  53.491  1.00  0.00    -0.270 OA
BRANCH   6  11
HETATM   11  C   UNL     1      28.249  43.984  53.824  1.00  0.00    -0.020 A 
HETATM   12  C   UNL     1      29.275  43.307  54.513  1.00  0.00     0.022 A 
HETATM   13  C   UNL     1      29.968  43.895  55.587  1.00  0.00    -0.025 A 
HETATM   14  C   UNL     1      29.625  45.199  55.996  1.00  0.00    -0.026 A 
HETATM   15  C   UNL     1      30.993  43.210  56.260  1.00  0.00     0.012 A 
HETATM   16  C   UNL     1      28.600  45.877  55.323  1.00  0.00     0.013 A 
HETATM   17  C   UNL     1      30.315  45.786  57.070  1.00  0.00     0.012 A 
HETATM   18  C   UNL     1      27.924  45.280  54.253  1.00  0.00     0.011 A 
HETATM   19  C   UNL     1      31.332  45.093  57.729  1.00  0.00     0.001 A 
HETATM   20  C   UNL     1      31.672  43.807  57.323  1.00  0.00     0.001 A 
ENDBRANCH   6  11
ENDBRANCH   1   2
BRANCH   1  21
HETATM   21  C   UNL     1      24.401  45.911  50.096  1.00  0.00     0.240 C 
HETATM   22  N   UNL     1      24.862  47.107  50.636  1.00  0.00    -0.325 N 
HETATM   23  H   UNL     1      25.471  46.950  51.429  1.00  0.00     0.169 HD
HETATM   24  O   UNL     1      23.932  45.810  48.960  1.00  0.00    -0.271 OA
BRANCH  22  25
HETATM   25  C   UNL     1      25.305  48.140  49.769  1.00  0.00     0.050 A 
HETATM   26  C   UNL     1      24.484  49.075  49.110  1.00  0.00     0.058 A 
HETATM   27  C   UNL     1      25.090  50.036  48.274  1.00  0.00     0.019 A 
HETATM   28  C   UNL     1      26.474  50.081  48.099  1.00  0.00     0.001 A 
HETATM   29  C   UNL     1      27.282  49.182  48.782  1.00  0.00     0.002 A 
HETATM   30  C   UNL     1      26.702  48.227  49.618  1.00  0.00     0.030 A 
BRANCH  26  31
HETATM   31  C   UNL     1      23.027  49.294  49.344  1.00  0.00     0.254 C 
HETATM   32  N   UNL     1      22.146  48.374  48.846  1.00  0.00    -0.351 N 
HETATM   33  H   UNL     1      22.494  47.648  48.224  1.00  0.00     0.163 HD
HETATM   34  O   UNL     1      22.666  50.315  49.923  1.00  0.00    -0.268 OA
BRANCH  32  35
HETATM   35  C   UNL     1      20.716  48.554  48.911  1.00  0.00     0.187 C 
BRANCH  35  36
HETATM   36  C   UNL     1      20.045  47.279  48.557  1.00  0.00     0.070 A 
HETATM   37  O   UNL     1      18.738  47.351  48.164  1.00  0.00    -0.325 OA
HETATM   38  C   UNL     1      18.325  46.079  47.928  1.00  0.00     0.142 A 
HETATM   39  C   UNL     1      19.348  45.189  48.160  1.00  0.00     0.027 A 
HETATM   40  C   UNL     1      20.461  45.963  48.562  1.00  0.00     0.036 A 
ENDBRANCH  35  36
ENDBRANCH  32  35
ENDBRANCH  26  31
ENDBRANCH  22  25
ENDBRANCH   1  21
TORSDOF 7
ENDMDL
MODEL 5
REMARK VINA RESULT:     -11.3      4.073      7.337
REMARK  7 active torsions:
REMARK  status: ('A' for Active; 'I' for Inactive)
REMARK    1  A    between atoms: C_2  and  C_3 
REMARK    2  A    between atoms: N_16  and  C_17 
REMARK    3  A    between atoms: C_17  and  C_18 
REMARK       I    between atoms: C_18  and  N_19 
REMARK    4  A    between atoms: N_19  and  C_20 
REMARK    5  A    between atoms: C_21  and  C_22 
REMARK       I    between atoms: C_22  and  N_23 
REMARK    6  A    between atoms: N_23  and  C_24 
REMARK    7  A    between atoms: C_24  and  C_25 
ROOT
HETATM    1  C   UNL     1      24.676  45.378  50.938  1.00  0.00     0.240 C 
ENDROOT
BRANCH   1   2
HETATM    2  N   UNL     1      25.925  44.820  51.424  1.00  0.00    -0.259 N 
HETATM    3  C   UNL     1      27.054  44.735  50.675  1.00  0.00     0.326 A 
HETATM    4  N   UNL     1      28.008  44.059  51.387  1.00  0.00    -0.321 N 
HETATM    5  O   UNL     1      27.235  45.200  49.565  1.00  0.00    -0.247 OA
HETATM    6  C   UNL     1      27.516  43.553  52.653  1.00  0.00     0.140 A 
HETATM    7  H   UNL     1      28.912  43.846  50.987  1.00  0.00     0.165 HD
HETATM    8  C   UNL     1      27.511  42.023  52.618  1.00  0.00     0.054 C 
HETATM    9  C   UNL     1      26.063  44.090  52.574  1.00  0.00     0.261 A 
HETATM   10  O   UNL     1      25.173  43.868  53.386  1.00  0.00    -0.270 OA
BRANCH   6  11
HETATM   11  C   UNL     1      28.261  44.121  53.856  1.00  0.00    -0.020 A 
HETATM   12  C   UNL     1      29.292  43.372  54.458  1.00  0.00     0.022 A 
HETATM   13  C   UNL     1      30.013  43.851  55.567  1.00  0.00    -0.025 A 
HETATM   14  C   UNL     1      29.694  45.116  56.102  1.00  0.00    -0.026 A 
HETATM   15  C   UNL     1      31.042  43.096  56.153  1.00  0.00     0.012 A 
HETATM   16  C   UNL     1      28.665  45.864  55.515  1.00  0.00     0.013 A 
HETATM   17  C   UNL     1      30.413  45.594  57.211  1.00  0.00     0.012 A 
HETATM   18  C   UNL     1      27.960  45.376  54.410  1.00  0.00     0.011 A 
HETATM   19  C   UNL     1      31.434  44.831  57.782  1.00  0.00     0.001 A 
HETATM   20  C   UNL     1      31.749  43.585  57.252  1.00  0.00     0.001 A 
ENDBRANCH   6  11
ENDBRANCH   1   2
BRANCH   1  21
HETATM   21  C   UNL     1      23.821  44.388  50.144  1.00  0.00     0.240 C 
HETATM   22  N   UNL     1      24.098  44.308  48.783  1.00  0.00    -0.325 N 
HETATM   23  H   UNL     1      25.036  44.625  48.573  1.00  0.00     0.169 HD
HETATM   24  O   UNL     1      22.904  43.772  50.691  1.00  0.00    -0.271 OA
BRANCH  22  25
HETATM   25  C   UNL     1      23.707  43.153  48.057  1.00  0.00     0.050 A 
HETATM   26  C   UNL     1      24.409  41.933  48.004  1.00  0.00     0.058 A 
HETATM   27  C   UNL     1      23.882  40.883  47.224  1.00  0.00     0.019 A 
HETATM   28  C   UNL     1      22.685  41.028  46.520  1.00  0.00     0.001 A 
HETATM   29  C   UNL     1      21.976  42.218  46.608  1.00  0.00     0.002 A 
HETATM   30  C   UNL     1      22.478  43.268  47.379  1.00  0.00     0.030 A 
BRANCH  26  31
HETATM   31  C   UNL     1      25.578  41.547  48.845  1.00  0.00     0.254 C 
HETATM   32  N   UNL     1      26.832  41.712  48.326  1.00  0.00    -0.351 N 
HETATM   33  H   UNL     1      26.929  41.965  47.345  1.00  0.00     0.163 HD
HETATM   34  O   UNL     1      25.376  41.045  49.947  1.00  0.00    -0.268 OA
BRANCH  32  35
HETATM   35  C   UNL     1      28.021  41.259  49.007  1.00  0.00     0.187 C 
BRANCH  35  36
HETATM   36  C   UNL     1      28.313  39.860  48.607  1.00  0.00     0.070 A 
HETATM   37  O   UNL     1      28.789  39.022  49.574  1.00  0.00    -0.325 OA
HETATM   38  C   UNL     1      29.016  37.821  48.981  1.00  0.00     0.142 A 
HETATM   39  C   UNL     1      28.690  37.873  47.646  1.00  0.00     0.027 A 
HETATM   40  C   UNL     1      28.231  39.189  47.404  1.00  0.00     0.036 A 
ENDBRANCH  35  36
ENDBRANCH  32  35
ENDBRANCH  26  31
ENDBRANCH  22  25
ENDBRANCH   1  21
TORSDOF 7
ENDMDL
MODEL 6
REMARK VINA RESULT:     -11.2      5.139      9.086
REMARK  7 active torsions:
REMARK  status: ('A' for Active; 'I' for Inactive)
REMARK    1  A    between atoms: C_2  and  C_3 
REMARK    2  A    between atoms: N_16  and  C_17 
REMARK    3  A    between atoms: C_17  and  C_18 
REMARK       I    between atoms: C_18  and  N_19 
REMARK    4  A    between atoms: N_19  and  C_20 
REMARK    5  A    between atoms: C_21  and  C_22 
REMARK       I    between atoms: C_22  and  N_23 
REMARK    6  A    between atoms: N_23  and  C_24 
REMARK    7  A    between atoms: C_24  and  C_25 
ROOT
HETATM    1  C   UNL     1      25.057  43.251  48.773  1.00  0.00     0.240 C 
ENDROOT
BRANCH   1   2
HETATM    2  N   UNL     1      25.354  43.731  50.111  1.00  0.00    -0.259 N 
HETATM    3  C   UNL     1      24.491  43.635  51.155  1.00  0.00     0.326 A 
HETATM    4  N   UNL     1      25.028  44.282  52.235  1.00  0.00    -0.321 N 
HETATM    5  O   UNL     1      23.423  43.050  51.172  1.00  0.00    -0.247 OA
HETATM    6  C   UNL     1      26.276  44.952  51.928  1.00  0.00     0.140 A 
HETATM    7  H   UNL     1      24.518  44.368  53.104  1.00  0.00     0.165 HD
HETATM    8  C   UNL     1      26.080  46.465  52.050  1.00  0.00     0.054 C 
HETATM    9  C   UNL     1      26.400  44.552  50.435  1.00  0.00     0.261 A 
HETATM   10  O   UNL     1      27.269  44.934  49.662  1.00  0.00    -0.270 OA
BRANCH   6  11
HETATM   11  C   UNL     1      27.451  44.434  52.750  1.00  0.00    -0.020 A 
HETATM   12  C   UNL     1      27.863  45.135  53.901  1.00  0.00     0.022 A 
HETATM   13  C   UNL     1      28.939  44.699  54.696  1.00  0.00    -0.025 A 
HETATM   14  C   UNL     1      29.635  43.528  54.331  1.00  0.00    -0.026 A 
HETATM   15  C   UNL     1      29.335  45.404  55.844  1.00  0.00     0.012 A 
HETATM   16  C   UNL     1      29.238  42.829  53.184  1.00  0.00     0.013 A 
HETATM   17  C   UNL     1      30.711  43.093  55.124  1.00  0.00     0.012 A 
HETATM   18  C   UNL     1      28.163  43.274  52.406  1.00  0.00     0.011 A 
HETATM   19  C   UNL     1      31.091  43.805  56.263  1.00  0.00     0.001 A 
HETATM   20  C   UNL     1      30.403  44.959  56.623  1.00  0.00     0.001 A 
ENDBRANCH   6  11
ENDBRANCH   1   2
BRANCH   1  21
HETATM   21  C   UNL     1      25.656  41.878  48.459  1.00  0.00     0.240 C 
HETATM   22  N   UNL     1      27.038  41.843  48.309  1.00  0.00    -0.325 N 
HETATM   23  H   UNL     1      27.485  42.622  48.775  1.00  0.00     0.169 HD
HETATM   24  O   UNL     1      24.926  40.901  48.281  1.00  0.00    -0.271 OA
BRANCH  22  25
HETATM   25  C   UNL     1      27.727  40.612  48.463  1.00  0.00     0.050 A 
HETATM   26  C   UNL     1      28.046  39.708  47.431  1.00  0.00     0.058 A 
HETATM   27  C   UNL     1      28.731  38.520  47.759  1.00  0.00     0.019 A 
HETATM   28  C   UNL     1      29.102  38.233  49.074  1.00  0.00     0.001 A 
HETATM   29  C   UNL     1      28.821  39.146  50.082  1.00  0.00     0.002 A 
HETATM   30  C   UNL     1      28.148  40.329  49.776  1.00  0.00     0.030 A 
BRANCH  26  31
HETATM   31  C   UNL     1      27.907  39.952  45.966  1.00  0.00     0.254 C 
HETATM   32  N   UNL     1      27.775  38.871  45.139  1.00  0.00    -0.351 N 
HETATM   33  H   UNL     1      27.907  37.939  45.524  1.00  0.00     0.163 HD
HETATM   34  O   UNL     1      27.971  41.106  45.548  1.00  0.00    -0.268 OA
BRANCH  32  35
HETATM   35  C   UNL     1      27.755  38.991  43.702  1.00  0.00     0.187 C 
BRANCH  35  36
HETATM   36  C   UNL     1      29.145  38.932  43.185  1.00  0.00     0.070 A 
HETATM   37  O   UNL     1      29.689  37.694  42.997  1.00  0.00    -0.325 OA
HETATM   38  C   UNL     1      30.961  37.881  42.560  1.00  0.00     0.142 A 
HETATM   39  C   UNL     1      31.244  39.224  42.461  1.00  0.00     0.027 A 
HETATM   40  C   UNL     1      30.069  39.904  42.861  1.00  0.00     0.036 A 
ENDBRANCH  35  36
ENDBRANCH  32  35
ENDBRANCH  26  31
ENDBRANCH  22  25
ENDBRANCH   1  21
TORSDOF 7
ENDMDL
MODEL 7
REMARK VINA RESULT:     -11.0      2.665      3.947
REMARK  7 active torsions:
REMARK  status: ('A' for Active; 'I' for Inactive)
REMARK    1  A    between atoms: C_2  and  C_3 
REMARK    2  A    between atoms: N_16  and  C_17 
REMARK    3  A    between atoms: C_17  and  C_18 
REMARK       I    between atoms: C_18  and  N_19 
REMARK    4  A    between atoms: N_19  and  C_20 
REMARK    5  A    between atoms: C_21  and  C_22 
REMARK       I    between atoms: C_22  and  N_23 
REMARK    6  A    between atoms: N_23  and  C_24 
REMARK    7  A    between atoms: C_24  and  C_25 
ROOT
HETATM    1  C   UNL     1      24.815  45.411  50.947  1.00  0.00     0.240 C 
ENDROOT
BRANCH   1   2
HETATM    2  N   UNL     1      26.039  44.832  51.472  1.00  0.00    -0.259 N 
HETATM    3  C   UNL     1      27.180  44.698  50.748  1.00  0.00     0.326 A 
HETATM    4  N   UNL     1      28.101  44.015  51.495  1.00  0.00    -0.321 N 
HETATM    5  O   UNL     1      27.395  45.132  49.631  1.00  0.00    -0.247 OA
HETATM    6  C   UNL     1      27.570  43.553  52.762  1.00  0.00     0.140 A 
HETATM    7  H   UNL     1      29.007  43.768  51.118  1.00  0.00     0.165 HD
HETATM    8  C   UNL     1      27.525  42.023  52.763  1.00  0.00     0.054 C 
HETATM    9  C   UNL     1      26.134  44.126  52.641  1.00  0.00     0.261 A 
HETATM   10  O   UNL     1      25.223  43.948  53.439  1.00  0.00    -0.270 OA
BRANCH   6  11
HETATM   11  C   UNL     1      28.307  44.130  53.966  1.00  0.00    -0.020 A 
HETATM   12  C   UNL     1      29.344  43.391  54.571  1.00  0.00     0.022 A 
HETATM   13  C   UNL     1      30.058  43.878  55.681  1.00  0.00    -0.025 A 
HETATM   14  C   UNL     1      29.725  45.140  56.215  1.00  0.00    -0.026 A 
HETATM   15  C   UNL     1      31.093  43.134  56.270  1.00  0.00     0.012 A 
HETATM   16  C   UNL     1      28.690  45.878  55.625  1.00  0.00     0.013 A 
HETATM   17  C   UNL     1      30.436  45.626  57.325  1.00  0.00     0.012 A 
HETATM   18  C   UNL     1      27.992  45.381  54.518  1.00  0.00     0.011 A 
HETATM   19  C   UNL     1      31.463  44.875  57.898  1.00  0.00     0.001 A 
HETATM   20  C   UNL     1      31.792  43.631  57.371  1.00  0.00     0.001 A 
ENDBRANCH   6  11
ENDBRANCH   1   2
BRANCH   1  21
HETATM   21  C   UNL     1      23.935  44.418  50.185  1.00  0.00     0.240 C 
HETATM   22  N   UNL     1      24.318  44.155  48.874  1.00  0.00    -0.325 N 
HETATM   23  H   UNL     1      25.299  44.358  48.723  1.00  0.00     0.169 HD
HETATM   24  O   UNL     1      22.916  43.957  50.703  1.00  0.00    -0.271 OA
BRANCH  22  25
HETATM   25  C   UNL     1      23.876  42.965  48.242  1.00  0.00     0.050 A 
HETATM   26  C   UNL     1      22.649  42.791  47.571  1.00  0.00     0.058 A 
HETATM   27  C   UNL     1      22.361  41.533  47.002  1.00  0.00     0.019 A 
HETATM   28  C   UNL     1      23.266  40.473  47.083  1.00  0.00     0.001 A 
HETATM   29  C   UNL     1      24.489  40.660  47.710  1.00  0.00     0.002 A 
HETATM   30  C   UNL     1      24.796  41.899  48.275  1.00  0.00     0.030 A 
BRANCH  26  31
HETATM   31  C   UNL     1      21.673  43.863  47.221  1.00  0.00     0.254 C 
HETATM   32  N   UNL     1      21.010  44.493  48.238  1.00  0.00    -0.351 N 
HETATM   33  H   UNL     1      21.101  44.128  49.183  1.00  0.00     0.163 HD
HETATM   34  O   UNL     1      21.456  44.103  46.036  1.00  0.00    -0.268 OA
BRANCH  32  35
HETATM   35  C   UNL     1      19.961  45.455  48.003  1.00  0.00     0.187 C 
BRANCH  35  36
HETATM   36  C   UNL     1      20.404  46.790  48.477  1.00  0.00     0.070 A 
HETATM   37  O   UNL     1      19.448  47.613  49.001  1.00  0.00    -0.325 OA
HETATM   38  C   UNL     1      20.066  48.777  49.330  1.00  0.00     0.142 A 
HETATM   39  C   UNL     1      21.406  48.714  49.028  1.00  0.00     0.027 A 
HETATM   40  C   UNL     1      21.627  47.429  48.480  1.00  0.00     0.036 A 
ENDBRANCH  35  36
ENDBRANCH  32  35
ENDBRANCH  26  31
ENDBRANCH  22  25
ENDBRANCH   1  21
TORSDOF 7
ENDMDL
MODEL 8
REMARK VINA RESULT:     -10.8      2.380      3.490
REMARK  7 active torsions:
REMARK  status: ('A' for Active; 'I' for Inactive)
REMARK    1  A    between atoms: C_2  and  C_3 
REMARK    2  A    between atoms: N_16  and  C_17 
REMARK    3  A    between atoms: C_17  and  C_18 
REMARK       I    between atoms: C_18  and  N_19 
REMARK    4  A    between atoms: N_19  and  C_20 
REMARK    5  A    between atoms: C_21  and  C_22 
REMARK       I    between atoms: C_22  and  N_23 
REMARK    6  A    between atoms: N_23  and  C_24 
REMARK    7  A    between atoms: C_24  and  C_25 
ROOT
HETATM    1  C   UNL     1      24.527  45.987  50.347  1.00  0.00     0.240 C 
ENDROOT
BRANCH   1   2
HETATM    2  N   UNL     1      25.723  45.345  50.860  1.00  0.00    -0.259 N 
HETATM    3  C   UNL     1      26.892  45.271  50.173  1.00  0.00     0.326 A 
HETATM    4  N   UNL     1      27.777  44.506  50.884  1.00  0.00    -0.321 N 
HETATM    5  O   UNL     1      27.157  45.812  49.115  1.00  0.00    -0.247 OA
HETATM    6  C   UNL     1      27.190  43.925  52.076  1.00  0.00     0.140 A 
HETATM    7  H   UNL     1      28.695  44.288  50.522  1.00  0.00     0.165 HD
HETATM    8  C   UNL     1      27.133  42.404  51.921  1.00  0.00     0.054 C 
HETATM    9  C   UNL     1      25.765  44.524  51.955  1.00  0.00     0.261 A 
HETATM   10  O   UNL     1      24.820  44.278  52.694  1.00  0.00    -0.270 OA
BRANCH   6  11
HETATM   11  C   UNL     1      27.881  44.370  53.361  1.00  0.00    -0.020 A 
HETATM   12  C   UNL     1      28.949  43.612  53.880  1.00  0.00     0.022 A 
HETATM   13  C   UNL     1      29.622  43.979  55.059  1.00  0.00    -0.025 A 
HETATM   14  C   UNL     1      29.215  45.137  55.752  1.00  0.00    -0.026 A 
HETATM   15  C   UNL     1      30.689  43.217  55.561  1.00  0.00     0.012 A 
HETATM   16  C   UNL     1      28.148  45.893  55.249  1.00  0.00     0.013 A 
HETATM   17  C   UNL     1      29.885  45.503  56.932  1.00  0.00     0.012 A 
HETATM   18  C   UNL     1      27.491  45.516  54.072  1.00  0.00     0.011 A 
HETATM   19  C   UNL     1      30.945  44.736  57.417  1.00  0.00     0.001 A 
HETATM   20  C   UNL     1      31.348  43.595  56.732  1.00  0.00     0.001 A 
ENDBRANCH   6  11
ENDBRANCH   1   2
BRANCH   1  21
HETATM   21  C   UNL     1      23.774  45.157  49.305  1.00  0.00     0.240 C 
HETATM   22  N   UNL     1      22.387  45.176  49.407  1.00  0.00    -0.325 N 
HETATM   23  H   UNL     1      22.059  45.996  49.901  1.00  0.00     0.169 HD
HETATM   24  O   UNL     1      24.389  44.468  48.489  1.00  0.00    -0.271 OA
BRANCH  22  25
HETATM   25  C   UNL     1      21.599  44.834  48.277  1.00  0.00     0.050 A 
HETATM   26  C   UNL     1      20.560  45.610  47.729  1.00  0.00     0.058 A 
HETATM   27  C   UNL     1      19.868  45.118  46.603  1.00  0.00     0.019 A 
HETATM   28  C   UNL     1      20.200  43.892  46.023  1.00  0.00     0.001 A 
HETATM   29  C   UNL     1      21.251  43.149  46.543  1.00  0.00     0.002 A 
HETATM   30  C   UNL     1      21.951  43.622  47.654  1.00  0.00     0.030 A 
BRANCH  26  31
HETATM   31  C   UNL     1      20.217  47.016  48.094  1.00  0.00     0.254 C 
HETATM   32  N   UNL     1      20.415  47.994  47.160  1.00  0.00    -0.351 N 
HETATM   33  H   UNL     1      20.909  47.761  46.301  1.00  0.00     0.163 HD
HETATM   34  O   UNL     1      19.823  47.253  49.233  1.00  0.00    -0.268 OA
BRANCH  32  35
HETATM   35  C   UNL     1      20.231  49.395  47.452  1.00  0.00     0.187 C 
BRANCH  35  36
HETATM   36  C   UNL     1      21.522  49.978  47.896  1.00  0.00     0.070 A 
HETATM   37  O   UNL     1      22.663  49.423  47.391  1.00  0.00    -0.325 OA
HETATM   38  C   UNL     1      23.708  50.083  47.956  1.00  0.00     0.142 A 
HETATM   39  C   UNL     1      23.255  51.056  48.816  1.00  0.00     0.027 A 
HETATM   40  C   UNL     1      21.842  50.992  48.775  1.00  0.00     0.036 A 
ENDBRANCH  35  36
ENDBRANCH  32  35
ENDBRANCH  26  31
ENDBRANCH  22  25
ENDBRANCH   1  21
TORSDOF 7
ENDMDL
MODEL 9
REMARK VINA RESULT:     -10.8      3.188      4.957
REMARK  7 active torsions:
REMARK  status: ('A' for Active; 'I' for Inactive)
REMARK    1  A    between atoms: C_2  and  C_3 
REMARK    2  A    between atoms: N_16  and  C_17 
REMARK    3  A    between atoms: C_17  and  C_18 
REMARK       I    between atoms: C_18  and  N_19 
REMARK    4  A    between atoms: N_19  and  C_20 
REMARK    5  A    between atoms: C_21  and  C_22 
REMARK       I    between atoms: C_22  and  N_23 
REMARK    6  A    between atoms: N_23  and  C_24 
REMARK    7  A    between atoms: C_24  and  C_25 
ROOT
HETATM    1  C   UNL     1      25.445  40.553  47.955  1.00  0.00     0.240 C 
ENDROOT
BRANCH   1   2
HETATM    2  N   UNL     1      26.614  40.809  48.776  1.00  0.00    -0.259 N 
HETATM    3  C   UNL     1      27.841  41.101  48.272  1.00  0.00     0.326 A 
HETATM    4  N   UNL     1      28.739  41.171  49.302  1.00  0.00    -0.321 N 
HETATM    5  O   UNL     1      28.124  41.307  47.105  1.00  0.00    -0.247 OA
HETATM    6  C   UNL     1      28.158  40.819  50.583  1.00  0.00     0.140 A 
HETATM    7  H   UNL     1      29.723  41.332  49.133  1.00  0.00     0.165 HD
HETATM    8  C   UNL     1      28.798  39.524  51.088  1.00  0.00     0.054 C 
HETATM    9  C   UNL     1      26.704  40.546  50.117  1.00  0.00     0.261 A 
HETATM   10  O   UNL     1      25.794  40.128  50.821  1.00  0.00    -0.270 OA
BRANCH   6  11
HETATM   11  C   UNL     1      28.220  41.953  51.600  1.00  0.00    -0.020 A 
HETATM   12  C   UNL     1      29.209  41.939  52.604  1.00  0.00     0.022 A 
HETATM   13  C   UNL     1      29.312  42.961  53.565  1.00  0.00    -0.025 A 
HETATM   14  C   UNL     1      28.395  44.032  53.533  1.00  0.00    -0.026 A 
HETATM   15  C   UNL     1      30.306  42.937  54.556  1.00  0.00     0.012 A 
HETATM   16  C   UNL     1      27.404  44.050  52.543  1.00  0.00     0.013 A 
HETATM   17  C   UNL     1      28.496  45.052  54.494  1.00  0.00     0.012 A 
HETATM   18  C   UNL     1      27.317  43.028  51.592  1.00  0.00     0.011 A 
HETATM   19  C   UNL     1      29.492  45.014  55.472  1.00  0.00     0.001 A 
HETATM   20  C   UNL     1      30.396  43.959  55.502  1.00  0.00     0.001 A 
ENDBRANCH   6  11
ENDBRANCH   1   2
BRANCH   1  21
HETATM   21  C   UNL     1      24.339  41.600  48.104  1.00  0.00     0.240 C 
HETATM   22  N   UNL     1      24.592  42.832  47.510  1.00  0.00    -0.325 N 
HETATM   23  H   UNL     1      25.280  42.758  46.771  1.00  0.00     0.169 HD
HETATM   24  O   UNL     1      23.336  41.361  48.778  1.00  0.00    -0.271 OA
BRANCH  22  25
HETATM   25  C   UNL     1      23.508  43.693  47.199  1.00  0.00     0.050 A 
HETATM   26  C   UNL     1      23.056  44.771  47.984  1.00  0.00     0.058 A 
HETATM   27  C   UNL     1      21.954  45.525  47.529  1.00  0.00     0.019 A 
HETATM   28  C   UNL     1      21.318  45.229  46.322  1.00  0.00     0.001 A 
HETATM   29  C   UNL     1      21.792  44.191  45.532  1.00  0.00     0.002 A 
HETATM   30  C   UNL     1      22.885  43.437  45.962  1.00  0.00     0.030 A 
BRANCH  26  31
HETATM   31  C   UNL     1      23.739  45.342  49.181  1.00  0.00     0.254 C 
HETATM   32  N   UNL     1      23.796  46.703  49.306  1.00  0.00    -0.351 N 
HETATM   33  H   UNL     1      23.494  47.281  48.526  1.00  0.00     0.163 HD
HETATM   34  O   UNL     1      24.273  44.577  49.980  1.00  0.00    -0.268 OA
BRANCH  32  35
HETATM   35  C   UNL     1      24.536  47.355  50.359  1.00  0.00     0.187 C 
BRANCH  35  36
HETATM   36  C   UNL     1      25.656  48.127  49.766  1.00  0.00     0.070 A 
HETATM   37  O   UNL     1      25.334  49.254  49.064  1.00  0.00    -0.325 OA
HETATM   38  C   UNL     1      26.497  49.771  48.590  1.00  0.00     0.142 A 
HETATM   39  C   UNL     1      27.564  48.995  48.979  1.00  0.00     0.027 A 
HETATM   40  C   UNL     1      27.023  47.935  49.743  1.00  0.00     0.036 A 
ENDBRANCH  35  36
ENDBRANCH  32  35
ENDBRANCH  26  31
ENDBRANCH  22  25
ENDBRANCH   1  21
TORSDOF 7
ENDMDL
MODEL 10
REMARK VINA RESULT:     -10.8      2.875      4.159
REMARK  7 active torsions:
REMARK  status: ('A' for Active; 'I' for Inactive)
REMARK    1  A    between atoms: C_2  and  C_3 
REMARK    2  A    between atoms: N_16  and  C_17 
REMARK    3  A    between atoms: C_17  and  C_18 
REMARK       I    between atoms: C_18  and  N_19 
REMARK    4  A    between atoms: N_19  and  C_20 
REMARK    5  A    between atoms: C_21  and  C_22 
REMARK       I    between atoms: C_22  and  N_23 
REMARK    6  A    between atoms: N_23  and  C_24 
REMARK    7  A    between atoms: C_24  and  C_25 
ROOT
HETATM    1  C   UNL     1      24.984  42.346  48.779  1.00  0.00     0.240 C 
ENDROOT
BRANCH   1   2
HETATM    2  N   UNL     1      25.288  43.051  50.011  1.00  0.00    -0.259 N 
HETATM    3  C   UNL     1      24.426  43.148  51.056  1.00  0.00     0.326 A 
HETATM    4  N   UNL     1      24.972  43.969  52.006  1.00  0.00    -0.321 N 
HETATM    5  O   UNL     1      23.353  42.585  51.177  1.00  0.00    -0.247 OA
HETATM    6  C   UNL     1      26.226  44.563  51.586  1.00  0.00     0.140 A 
HETATM    7  H   UNL     1      24.465  44.211  52.847  1.00  0.00     0.165 HD
HETATM    8  C   UNL     1      26.044  46.075  51.441  1.00  0.00     0.054 C 
HETATM    9  C   UNL     1      26.343  43.905  50.187  1.00  0.00     0.261 A 
HETATM   10  O   UNL     1      27.214  44.138  49.358  1.00  0.00    -0.270 OA
BRANCH   6  11
HETATM   11  C   UNL     1      27.397  44.185  52.486  1.00  0.00    -0.020 A 
HETATM   12  C   UNL     1      27.713  44.989  53.599  1.00  0.00     0.022 A 
HETATM   13  C   UNL     1      28.781  44.684  54.462  1.00  0.00    -0.025 A 
HETATM   14  C   UNL     1      29.569  43.544  54.207  1.00  0.00    -0.026 A 
HETATM   15  C   UNL     1      29.079  45.492  55.572  1.00  0.00     0.012 A 
HETATM   16  C   UNL     1      29.268  42.743  53.097  1.00  0.00     0.013 A 
HETATM   17  C   UNL     1      30.638  43.240  55.067  1.00  0.00     0.012 A 
HETATM   18  C   UNL     1      28.200  43.057  52.251  1.00  0.00     0.011 A 
HETATM   19  C   UNL     1      30.921  44.052  56.167  1.00  0.00     0.001 A 
HETATM   20  C   UNL     1      30.142  45.176  56.419  1.00  0.00     0.001 A 
ENDBRANCH   6  11
ENDBRANCH   1   2
BRANCH   1  21
HETATM   21  C   UNL     1      23.750  42.879  48.047  1.00  0.00     0.240 C 
HETATM   22  N   UNL     1      23.945  44.037  47.302  1.00  0.00    -0.325 N 
HETATM   23  H   UNL     1      24.917  44.161  47.049  1.00  0.00     0.169 HD
HETATM   24  O   UNL     1      22.653  42.337  48.192  1.00  0.00    -0.271 OA
BRANCH  22  25
HETATM   25  C   UNL     1      23.036  44.358  46.260  1.00  0.00     0.050 A 
HETATM   26  C   UNL     1      21.916  45.205  46.370  1.00  0.00     0.058 A 
HETATM   27  C   UNL     1      21.109  45.412  45.233  1.00  0.00     0.019 A 
HETATM   28  C   UNL     1      21.405  44.806  44.010  1.00  0.00     0.001 A 
HETATM   29  C   UNL     1      22.532  44.005  43.896  1.00  0.00     0.002 A 
HETATM   30  C   UNL     1      23.346  43.792  45.009  1.00  0.00     0.030 A 
BRANCH  26  31
HETATM   31  C   UNL     1      21.579  46.080  47.531  1.00  0.00     0.254 C 
HETATM   32  N   UNL     1      21.156  47.355  47.279  1.00  0.00    -0.351 N 
HETATM   33  H   UNL     1      21.210  47.712  46.327  1.00  0.00     0.163 HD
HETATM   34  O   UNL     1      21.745  45.646  48.668  1.00  0.00    -0.268 OA
BRANCH  32  35
HETATM   35  C   UNL     1      20.922  48.317  48.328  1.00  0.00     0.187 C 
BRANCH  35  36
HETATM   36  C   UNL     1      21.967  49.370  48.271  1.00  0.00     0.070 A 
HETATM   37  O   UNL     1      23.211  48.991  47.853  1.00  0.00    -0.325 OA
HETATM   38  C   UNL     1      24.002  50.094  47.914  1.00  0.00     0.142 A 
HETATM   39  C   UNL     1      23.284  51.178  48.363  1.00  0.00     0.027 A 
HETATM   40  C   UNL     1      21.968  50.712  48.590  1.00  0.00     0.036 A 
ENDBRANCH  35  36
ENDBRANCH  32  35
ENDBRANCH  26  31
ENDBRANCH  22  25
ENDBRANCH   1  21
TORSDOF 7
ENDMDL
