MODEL 1
REMARK VINA RESULT:      -8.3      0.000      0.000
REMARK  7 active torsions:
REMARK  status: ('A' for Active; 'I' for Inactive)
REMARK    1  A    between atoms: C_2  and  N_3 
REMARK    2  A    between atoms: C_2  and  C_17 
REMARK       I    between atoms: N_3  and  C_4 
REMARK    3  A    between atoms: C_4  and  C_5 
REMARK    4  A    between atoms: C_6  and  N_7 
REMARK    5  A    between atoms: C_17  and  O_18 
REMARK    6  A    between atoms: C_17  and  C_19 
REMARK    7  A    between atoms: C_22  and  O_23 
ROOT
HETATM    1  N   UNL     1      28.119  43.489  52.208  1.00  0.00    -0.350 N 
HETATM    2  C   UNL     1      28.027  43.206  53.546  1.00  0.00     0.255 C 
HETATM    3  O   UNL     1      27.211  42.399  53.986  1.00  0.00    -0.268 OA
HETATM    4  H   UNL     1      29.012  43.872  51.912  1.00  0.00     0.163 HD
ENDROOT
BRANCH   1   5
HETATM    5  C   UNL     1      27.356  42.740  51.196  1.00  0.00     0.114 C 
HETATM    6  C   UNL     1      27.973  41.352  50.989  1.00  0.00     0.035 C 
BRANCH   5   7
HETATM    7  C   UNL     1      27.285  43.563  49.876  1.00  0.00     0.173 C 
BRANCH   7   8
HETATM    8  O   UNL     1      26.852  42.741  48.783  1.00  0.00    -0.389 OA
HETATM    9  H   UNL     1      25.880  42.770  48.783  1.00  0.00     0.210 HD
ENDBRANCH   7   8
BRANCH   7  10
HETATM   10  C   UNL     1      26.415  44.800  49.992  1.00  0.00    -0.028 A 
HETATM   11  C   UNL     1      26.966  46.061  49.720  1.00  0.00     0.012 A 
HETATM   12  C   UNL     1      26.188  47.217  49.829  1.00  0.00     0.037 A 
HETATM   13  C   UNL     1      24.847  47.141  50.208  1.00  0.00     0.068 A 
HETATM   14  C   UNL     1      24.289  45.894  50.479  1.00  0.00     0.037 A 
HETATM   15  C   UNL     1      25.067  44.734  50.372  1.00  0.00     0.012 A 
BRANCH  13  16
HETATM   16  O   UNL     1      24.203  48.347  50.274  1.00  0.00    -0.356 OA
HETATM   17  C   UNL     1      23.196  48.588  49.301  1.00  0.00     0.210 C 
ENDBRANCH  13  16
ENDBRANCH   7  10
ENDBRANCH   5   7
ENDBRANCH   1   5
BRANCH   2  18
HETATM   18  C   UNL     1      28.870  43.982  54.509  1.00  0.00     0.079 A 
HETATM   19  C   UNL     1      28.723  45.275  55.028  1.00  0.00     0.165 A 
HETATM   20  N   UNL     1      29.634  45.806  55.916  1.00  0.00    -0.241 NA
HETATM   21  C   UNL     1      30.696  45.068  56.293  1.00  0.00     0.119 A 
HETATM   22  C   UNL     1      30.926  43.795  55.831  1.00  0.00     0.020 A 
HETATM   23  C   UNL     1      30.007  43.259  54.936  1.00  0.00     0.022 A 
BRANCH  19  24
HETATM   24  N   UNL     1      27.668  46.189  54.687  1.00  0.00    -0.226 N 
HETATM   25  N   UNL     1      26.841  46.065  53.610  1.00  0.00    -0.179 NA
HETATM   26  C   UNL     1      26.053  47.144  53.654  1.00  0.00     0.141 A 
HETATM   27  C   UNL     1      26.294  47.945  54.775  1.00  0.00     0.040 A 
HETATM   28  C   UNL     1      27.317  47.309  55.429  1.00  0.00     0.122 A 
ENDBRANCH  19  24
ENDBRANCH   2  18
TORSDOF 7
ENDMDL
MODEL 2
REMARK VINA RESULT:      -8.1      1.427      3.383
REMARK  7 active torsions:
REMARK  status: ('A' for Active; 'I' for Inactive)
REMARK    1  A    between atoms: C_2  and  N_3 
REMARK    2  A    between atoms: C_2  and  C_17 
REMARK       I    between atoms: N_3  and  C_4 
REMARK    3  A    between atoms: C_4  and  C_5 
REMARK    4  A    between atoms: C_6  and  N_7 
REMARK    5  A    between atoms: C_17  and  O_18 
REMARK    6  A    between atoms: C_17  and  C_19 
REMARK    7  A    between atoms: C_22  and  O_23 
ROOT
HETATM    1  N   UNL     1      27.880  42.991  53.010  1.00  0.00    -0.350 N 
HETATM    2  C   UNL     1      27.272  43.588  54.083  1.00  0.00     0.255 C 
HETATM    3  O   UNL     1      26.405  43.017  54.741  1.00  0.00    -0.268 OA
HETATM    4  H   UNL     1      28.788  43.376  52.764  1.00  0.00     0.163 HD
ENDROOT
BRANCH   1   5
HETATM    5  C   UNL     1      27.648  41.580  52.666  1.00  0.00     0.114 C 
HETATM    6  C   UNL     1      28.962  40.792  52.746  1.00  0.00     0.035 C 
BRANCH   5   7
HETATM    7  C   UNL     1      26.982  41.484  51.262  1.00  0.00     0.173 C 
BRANCH   7   8
HETATM    8  O   UNL     1      26.086  40.365  51.195  1.00  0.00    -0.389 OA
HETATM    9  H   UNL     1      26.397  39.805  50.464  1.00  0.00     0.210 HD
ENDBRANCH   7   8
BRANCH   7  10
HETATM   10  C   UNL     1      26.275  42.760  50.849  1.00  0.00    -0.028 A 
HETATM   11  C   UNL     1      24.952  42.982  51.260  1.00  0.00     0.012 A 
HETATM   12  C   UNL     1      24.274  44.145  50.885  1.00  0.00     0.037 A 
HETATM   13  C   UNL     1      24.900  45.112  50.096  1.00  0.00     0.068 A 
HETATM   14  C   UNL     1      26.215  44.903  49.684  1.00  0.00     0.037 A 
HETATM   15  C   UNL     1      26.895  43.737  50.057  1.00  0.00     0.012 A 
BRANCH  13  16
HETATM   16  O   UNL     1      24.124  46.200  49.805  1.00  0.00    -0.356 OA
HETATM   17  C   UNL     1      24.675  47.476  50.102  1.00  0.00     0.210 C 
ENDBRANCH  13  16
ENDBRANCH   7  10
ENDBRANCH   5   7
ENDBRANCH   1   5
BRANCH   2  18
HETATM   18  C   UNL     1      27.595  45.016  54.396  1.00  0.00     0.079 A 
HETATM   19  C   UNL     1      28.659  45.586  55.108  1.00  0.00     0.165 A 
HETATM   20  N   UNL     1      28.764  46.949  55.283  1.00  0.00    -0.241 NA
HETATM   21  C   UNL     1      27.820  47.758  54.763  1.00  0.00     0.119 A 
HETATM   22  C   UNL     1      26.738  47.288  54.058  1.00  0.00     0.020 A 
HETATM   23  C   UNL     1      26.632  45.913  53.880  1.00  0.00     0.022 A 
BRANCH  19  24
HETATM   24  N   UNL     1      29.713  44.851  55.751  1.00  0.00    -0.226 N 
HETATM   25  N   UNL     1      30.300  43.725  55.253  1.00  0.00    -0.179 NA
HETATM   26  C   UNL     1      31.183  43.355  56.185  1.00  0.00     0.141 A 
HETATM   27  C   UNL     1      31.244  44.250  57.258  1.00  0.00     0.040 A 
HETATM   28  C   UNL     1      30.309  45.206  56.952  1.00  0.00     0.122 A 
ENDBRANCH  19  24
ENDBRANCH   2  18
TORSDOF 7
ENDMDL
MODEL 3
REMARK VINA RESULT:      -7.9      1.303      3.139
REMARK  7 active torsions:
REMARK  status: ('A' for Active; 'I' for Inactive)
REMARK    1  A    between atoms: C_2  and  N_3 
REMARK    2  A    between atoms: C_2  and  C_17 
REMARK       I    between atoms: N_3  and  C_4 
REMARK    3  A    between atoms: C_4  and  C_5 
REMARK    4  A    between atoms: C_6  and  N_7 
REMARK    5  A    between atoms: C_17  and  O_18 
REMARK    6  A    between atoms: C_17  and  C_19 
REMARK    7  A    between atoms: C_22  and  O_23 
ROOT
HETATM    1  N   UNL     1      27.063  44.304  52.016  1.00  0.00    -0.350 N 
HETATM    2  C   UNL     1      26.237  44.703  53.034  1.00  0.00     0.255 C 
HETATM    3  O   UNL     1      25.073  44.318  53.116  1.00  0.00    -0.268 OA
HETATM    4  H   UNL     1      28.056  44.378  52.217  1.00  0.00     0.163 HD
ENDROOT
BRANCH   1   5
HETATM    5  C   UNL     1      26.663  43.277  51.041  1.00  0.00     0.114 C 
HETATM    6  C   UNL     1      27.632  42.089  51.096  1.00  0.00     0.035 C 
BRANCH   5   7
HETATM    7  C   UNL     1      26.575  43.907  49.620  1.00  0.00     0.173 C 
BRANCH   7   8
HETATM    8  O   UNL     1      25.856  43.048  48.723  1.00  0.00    -0.389 OA
HETATM    9  H   UNL     1      25.206  43.609  48.265  1.00  0.00     0.210 HD
ENDBRANCH   7   8
BRANCH   7  10
HETATM   10  C   UNL     1      25.975  45.300  49.622  1.00  0.00    -0.028 A 
HETATM   11  C   UNL     1      24.580  45.452  49.612  1.00  0.00     0.012 A 
HETATM   12  C   UNL     1      24.003  46.725  49.604  1.00  0.00     0.037 A 
HETATM   13  C   UNL     1      24.801  47.870  49.607  1.00  0.00     0.068 A 
HETATM   14  C   UNL     1      26.187  47.730  49.618  1.00  0.00     0.037 A 
HETATM   15  C   UNL     1      26.768  46.456  49.625  1.00  0.00     0.012 A 
BRANCH  13  16
HETATM   16  O   UNL     1      24.107  49.049  49.599  1.00  0.00    -0.356 OA
HETATM   17  C   UNL     1      24.458  49.991  48.594  1.00  0.00     0.210 C 
ENDBRANCH  13  16
ENDBRANCH   7  10
ENDBRANCH   5   7
ENDBRANCH   1   5
BRANCH   2  18
HETATM   18  C   UNL     1      26.734  45.720  54.012  1.00  0.00     0.079 A 
HETATM   19  C   UNL     1      27.863  45.727  54.843  1.00  0.00     0.165 A 
HETATM   20  N   UNL     1      28.135  46.783  55.686  1.00  0.00    -0.241 NA
HETATM   21  C   UNL     1      27.294  47.836  55.719  1.00  0.00     0.119 A 
HETATM   22  C   UNL     1      26.161  47.913  54.947  1.00  0.00     0.020 A 
HETATM   23  C   UNL     1      25.886  46.848  54.096  1.00  0.00     0.022 A 
BRANCH  19  24
HETATM   24  N   UNL     1      28.822  44.661  54.945  1.00  0.00    -0.226 N 
HETATM   25  N   UNL     1      28.717  43.451  54.326  1.00  0.00    -0.179 NA
HETATM   26  C   UNL     1      29.789  42.763  54.729  1.00  0.00     0.141 A 
HETATM   27  C   UNL     1      30.638  43.515  55.547  1.00  0.00     0.040 A 
HETATM   28  C   UNL     1      30.010  44.729  55.658  1.00  0.00     0.122 A 
ENDBRANCH  19  24
ENDBRANCH   2  18
TORSDOF 7
ENDMDL
MODEL 4
REMARK VINA RESULT:      -7.8      2.396      4.877
REMARK  7 active torsions:
REMARK  status: ('A' for Active; 'I' for Inactive)
REMARK    1  A    between atoms: C_2  and  N_3 
REMARK    2  A    between atoms: C_2  and  C_17 
REMARK       I    between atoms: N_3  and  C_4 
REMARK    3  A    between atoms: C_4  and  C_5 
REMARK    4  A    between atoms: C_6  and  N_7 
REMARK    5  A    between atoms: C_17  and  O_18 
REMARK    6  A    between atoms: C_17  and  C_19 
REMARK    7  A    between atoms: C_22  and  O_23 
ROOT
HETATM    1  N   UNL     1      28.142  43.730  52.937  1.00  0.00    -0.350 N 
HETATM    2  C   UNL     1      29.404  43.545  53.437  1.00  0.00     0.255 C 
HETATM    3  O   UNL     1      30.245  42.868  52.850  1.00  0.00    -0.268 OA
HETATM    4  H   UNL     1      27.659  44.553  53.287  1.00  0.00     0.163 HD
ENDROOT
BRANCH   1   5
HETATM    5  C   UNL     1      27.755  43.260  51.597  1.00  0.00     0.114 C 
HETATM    6  C   UNL     1      27.232  44.431  50.756  1.00  0.00     0.035 C 
BRANCH   5   7
HETATM    7  C   UNL     1      26.716  42.107  51.724  1.00  0.00     0.173 C 
BRANCH   7   8
HETATM    8  O   UNL     1      25.402  42.559  51.367  1.00  0.00    -0.389 OA
HETATM    9  H   UNL     1      25.236  42.240  50.464  1.00  0.00     0.210 HD
ENDBRANCH   7   8
BRANCH   7  10
HETATM   10  C   UNL     1      27.093  40.875  50.924  1.00  0.00    -0.028 A 
HETATM   11  C   UNL     1      28.402  40.377  50.996  1.00  0.00     0.012 A 
HETATM   12  C   UNL     1      28.777  39.250  50.260  1.00  0.00     0.037 A 
HETATM   13  C   UNL     1      27.857  38.595  49.440  1.00  0.00     0.068 A 
HETATM   14  C   UNL     1      26.553  39.080  49.362  1.00  0.00     0.037 A 
HETATM   15  C   UNL     1      26.175  40.211  50.098  1.00  0.00     0.012 A 
BRANCH  13  16
HETATM   16  O   UNL     1      28.356  37.506  48.779  1.00  0.00    -0.356 OA
HETATM   17  C   UNL     1      28.787  37.713  47.440  1.00  0.00     0.210 C 
ENDBRANCH  13  16
ENDBRANCH   7  10
ENDBRANCH   5   7
ENDBRANCH   1   5
BRANCH   2  18
HETATM   18  C   UNL     1      29.734  44.093  54.790  1.00  0.00     0.079 A 
HETATM   19  C   UNL     1      29.152  45.130  55.532  1.00  0.00     0.165 A 
HETATM   20  N   UNL     1      29.622  45.480  56.780  1.00  0.00    -0.241 NA
HETATM   21  C   UNL     1      30.671  44.813  57.301  1.00  0.00     0.119 A 
HETATM   22  C   UNL     1      31.308  43.789  56.644  1.00  0.00     0.020 A 
HETATM   23  C   UNL     1      30.834  43.435  55.386  1.00  0.00     0.022 A 
BRANCH  19  24
HETATM   24  N   UNL     1      28.059  45.952  55.089  1.00  0.00    -0.226 N 
HETATM   25  N   UNL     1      26.805  45.502  54.804  1.00  0.00    -0.179 NA
HETATM   26  C   UNL     1      26.135  46.582  54.392  1.00  0.00     0.141 A 
HETATM   27  C   UNL     1      26.899  47.752  54.463  1.00  0.00     0.040 A 
HETATM   28  C   UNL     1      28.118  47.329  54.927  1.00  0.00     0.122 A 
ENDBRANCH  19  24
ENDBRANCH   2  18
TORSDOF 7
ENDMDL
MODEL 5
REMARK VINA RESULT:      -7.8      3.039      6.943
REMARK  7 active torsions:
REMARK  status: ('A' for Active; 'I' for Inactive)
REMARK    1  A    between atoms: C_2  and  N_3 
REMARK    2  A    between atoms: C_2  and  C_17 
REMARK       I    between atoms: N_3  and  C_4 
REMARK    3  A    between atoms: C_4  and  C_5 
REMARK    4  A    between atoms: C_6  and  N_7 
REMARK    5  A    between atoms: C_17  and  O_18 
REMARK    6  A    between atoms: C_17  and  C_19 
REMARK    7  A    between atoms: C_22  and  O_23 
ROOT
HETATM    1  N   UNL     1      26.374  45.729  50.538  1.00  0.00    -0.350 N 
HETATM    2  C   UNL     1      25.431  46.719  50.449  1.00  0.00     0.255 C 
HETATM    3  O   UNL     1      24.303  46.589  50.920  1.00  0.00    -0.268 OA
HETATM    4  H   UNL     1      27.335  46.044  50.447  1.00  0.00     0.163 HD
ENDROOT
BRANCH   1   5
HETATM    5  C   UNL     1      26.153  44.509  51.330  1.00  0.00     0.114 C 
HETATM    6  C   UNL     1      25.139  43.598  50.627  1.00  0.00     0.035 C 
BRANCH   5   7
HETATM    7  C   UNL     1      25.710  44.891  52.773  1.00  0.00     0.173 C 
BRANCH   7   8
HETATM    8  O   UNL     1      24.901  43.857  53.352  1.00  0.00    -0.389 OA
HETATM    9  H   UNL     1      25.209  43.019  52.969  1.00  0.00     0.210 HD
ENDBRANCH   7   8
BRANCH   7  10
HETATM   10  C   UNL     1      26.874  45.231  53.683  1.00  0.00    -0.028 A 
HETATM   11  C   UNL     1      27.824  44.244  53.990  1.00  0.00     0.012 A 
HETATM   12  C   UNL     1      28.900  44.529  54.834  1.00  0.00     0.037 A 
HETATM   13  C   UNL     1      29.055  45.801  55.389  1.00  0.00     0.068 A 
HETATM   14  C   UNL     1      28.119  46.789  55.090  1.00  0.00     0.037 A 
HETATM   15  C   UNL     1      27.038  46.505  54.245  1.00  0.00     0.012 A 
BRANCH  13  16
HETATM   16  O   UNL     1      30.151  45.942  56.194  1.00  0.00    -0.356 OA
HETATM   17  C   UNL     1      29.919  45.937  57.597  1.00  0.00     0.210 C 
ENDBRANCH  13  16
ENDBRANCH   7  10
ENDBRANCH   5   7
ENDBRANCH   1   5
BRANCH   2  18
HETATM   18  C   UNL     1      25.748  47.951  49.661  1.00  0.00     0.079 A 
HETATM   19  C   UNL     1      24.921  48.821  48.937  1.00  0.00     0.165 A 
HETATM   20  N   UNL     1      25.430  49.915  48.269  1.00  0.00    -0.241 NA
HETATM   21  C   UNL     1      26.755  50.155  48.308  1.00  0.00     0.119 A 
HETATM   22  C   UNL     1      27.642  49.354  48.985  1.00  0.00     0.020 A 
HETATM   23  C   UNL     1      27.130  48.251  49.659  1.00  0.00     0.022 A 
BRANCH  19  24
HETATM   24  N   UNL     1      23.502  48.670  48.773  1.00  0.00    -0.226 N 
HETATM   25  N   UNL     1      22.899  47.744  47.974  1.00  0.00    -0.179 NA
HETATM   26  C   UNL     1      21.591  47.988  48.088  1.00  0.00     0.141 A 
HETATM   27  C   UNL     1      21.309  49.011  48.999  1.00  0.00     0.040 A 
HETATM   28  C   UNL     1      22.542  49.421  49.437  1.00  0.00     0.122 A 
ENDBRANCH  19  24
ENDBRANCH   2  18
TORSDOF 7
ENDMDL
MODEL 6
REMARK VINA RESULT:      -7.7      1.655      1.924
REMARK  7 active torsions:
REMARK  status: ('A' for Active; 'I' for Inactive)
REMARK    1  A    between atoms: C_2  and  N_3 
REMARK    2  A    between atoms: C_2  and  C_17 
REMARK       I    between atoms: N_3  and  C_4 
REMARK    3  A    between atoms: C_4  and  C_5 
REMARK    4  A    between atoms: C_6  and  N_7 
REMARK    5  A    between atoms: C_17  and  O_18 
REMARK    6  A    between atoms: C_17  and  C_19 
REMARK    7  A    between atoms: C_22  and  O_23 
ROOT
HETATM    1  N   UNL     1      27.932  43.237  52.156  1.00  0.00    -0.350 N 
HETATM    2  C   UNL     1      27.933  42.961  53.498  1.00  0.00     0.255 C 
HETATM    3  O   UNL     1      27.193  42.111  53.989  1.00  0.00    -0.268 OA
HETATM    4  H   UNL     1      28.782  43.669  51.807  1.00  0.00     0.163 HD
ENDROOT
BRANCH   1   5
HETATM    5  C   UNL     1      27.158  42.435  51.194  1.00  0.00     0.114 C 
HETATM    6  C   UNL     1      27.937  41.170  50.812  1.00  0.00     0.035 C 
BRANCH   5   7
HETATM    7  C   UNL     1      26.795  43.307  49.955  1.00  0.00     0.173 C 
BRANCH   7   8
HETATM    8  O   UNL     1      27.335  42.741  48.753  1.00  0.00    -0.389 OA
HETATM    9  H   UNL     1      27.322  41.776  48.872  1.00  0.00     0.210 HD
ENDBRANCH   7   8
BRANCH   7  10
HETATM   10  C   UNL     1      25.304  43.543  49.811  1.00  0.00    -0.028 A 
HETATM   11  C   UNL     1      24.847  44.676  49.120  1.00  0.00     0.012 A 
HETATM   12  C   UNL     1      23.478  44.922  48.982  1.00  0.00     0.037 A 
HETATM   13  C   UNL     1      22.537  44.046  49.526  1.00  0.00     0.068 A 
HETATM   14  C   UNL     1      22.980  42.917  50.212  1.00  0.00     0.037 A 
HETATM   15  C   UNL     1      24.351  42.669  50.353  1.00  0.00     0.012 A 
BRANCH  13  16
HETATM   16  O   UNL     1      21.234  44.406  49.316  1.00  0.00    -0.356 OA
HETATM   17  C   UNL     1      21.004  45.470  48.402  1.00  0.00     0.210 C 
ENDBRANCH  13  16
ENDBRANCH   7  10
ENDBRANCH   5   7
ENDBRANCH   1   5
BRANCH   2  18
HETATM   18  C   UNL     1      28.782  43.793  54.407  1.00  0.00     0.079 A 
HETATM   19  C   UNL     1      28.631  45.112  54.858  1.00  0.00     0.165 A 
HETATM   20  N   UNL     1      29.548  45.696  55.704  1.00  0.00    -0.241 NA
HETATM   21  C   UNL     1      30.622  44.988  56.107  1.00  0.00     0.119 A 
HETATM   22  C   UNL     1      30.856  43.694  55.710  1.00  0.00     0.020 A 
HETATM   23  C   UNL     1      29.930  43.103  54.857  1.00  0.00     0.022 A 
BRANCH  19  24
HETATM   24  N   UNL     1      27.564  45.998  54.482  1.00  0.00    -0.226 N 
HETATM   25  N   UNL     1      26.718  45.805  53.431  1.00  0.00    -0.179 NA
HETATM   26  C   UNL     1      25.924  46.880  53.424  1.00  0.00     0.141 A 
HETATM   27  C   UNL     1      26.181  47.749  54.489  1.00  0.00     0.040 A 
HETATM   28  C   UNL     1      27.220  47.159  55.162  1.00  0.00     0.122 A 
ENDBRANCH  19  24
ENDBRANCH   2  18
TORSDOF 7
ENDMDL
MODEL 7
REMARK VINA RESULT:      -7.6      2.758      7.139
REMARK  7 active torsions:
REMARK  status: ('A' for Active; 'I' for Inactive)
REMARK    1  A    between atoms: C_2  and  N_3 
REMARK    2  A    between atoms: C_2  and  C_17 
REMARK       I    between atoms: N_3  and  C_4 
REMARK    3  A    between atoms: C_4  and  C_5 
REMARK    4  A    between atoms: C_6  and  N_7 
REMARK    5  A    between atoms: C_17  and  O_18 
REMARK    6  A    between atoms: C_17  and  C_19 
REMARK    7  A    between atoms: C_22  and  O_23 
ROOT
HETATM    1  N   UNL     1      26.338  43.717  50.982  1.00  0.00    -0.350 N 
HETATM    2  C   UNL     1      26.499  44.750  50.096  1.00  0.00     0.255 C 
HETATM    3  O   UNL     1      27.602  45.066  49.658  1.00  0.00    -0.268 OA
HETATM    4  H   UNL     1      25.405  43.316  51.007  1.00  0.00     0.163 HD
ENDROOT
BRANCH   1   5
HETATM    5  C   UNL     1      27.448  42.824  51.351  1.00  0.00     0.114 C 
HETATM    6  C   UNL     1      27.505  41.626  50.395  1.00  0.00     0.035 C 
BRANCH   5   7
HETATM    7  C   UNL     1      27.300  42.390  52.840  1.00  0.00     0.173 C 
BRANCH   7   8
HETATM    8  O   UNL     1      27.551  40.986  52.992  1.00  0.00    -0.389 OA
HETATM    9  H   UNL     1      26.837  40.637  53.552  1.00  0.00     0.210 HD
ENDBRANCH   7   8
BRANCH   7  10
HETATM   10  C   UNL     1      28.174  43.195  53.784  1.00  0.00    -0.028 A 
HETATM   11  C   UNL     1      29.461  42.734  54.096  1.00  0.00     0.012 A 
HETATM   12  C   UNL     1      30.282  43.450  54.971  1.00  0.00     0.037 A 
HETATM   13  C   UNL     1      29.839  44.641  55.550  1.00  0.00     0.068 A 
HETATM   14  C   UNL     1      28.562  45.109  55.246  1.00  0.00     0.037 A 
HETATM   15  C   UNL     1      27.737  44.391  54.370  1.00  0.00     0.012 A 
BRANCH  13  16
HETATM   16  O   UNL     1      30.742  45.240  56.385  1.00  0.00    -0.356 OA
HETATM   17  C   UNL     1      30.224  45.839  57.565  1.00  0.00     0.210 C 
ENDBRANCH  13  16
ENDBRANCH   7  10
ENDBRANCH   5   7
ENDBRANCH   1   5
BRANCH   2  18
HETATM   18  C   UNL     1      25.311  45.585  49.735  1.00  0.00     0.079 A 
HETATM   19  C   UNL     1      24.079  45.238  49.162  1.00  0.00     0.165 A 
HETATM   20  N   UNL     1      23.108  46.183  48.906  1.00  0.00    -0.241 NA
HETATM   21  C   UNL     1      23.347  47.475  49.209  1.00  0.00     0.119 A 
HETATM   22  C   UNL     1      24.526  47.907  49.765  1.00  0.00     0.020 A 
HETATM   23  C   UNL     1      25.505  46.955  50.024  1.00  0.00     0.022 A 
BRANCH  19  24
HETATM   24  N   UNL     1      23.701  43.914  48.750  1.00  0.00    -0.226 N 
HETATM   25  N   UNL     1      23.574  42.841  49.582  1.00  0.00    -0.179 NA
HETATM   26  C   UNL     1      23.256  41.820  48.781  1.00  0.00     0.141 A 
HETATM   27  C   UNL     1      23.102  42.207  47.446  1.00  0.00     0.040 A 
HETATM   28  C   UNL     1      23.375  43.551  47.452  1.00  0.00     0.122 A 
ENDBRANCH  19  24
ENDBRANCH   2  18
TORSDOF 7
ENDMDL
MODEL 8
REMARK VINA RESULT:      -7.6      4.641      8.116
REMARK  7 active torsions:
REMARK  status: ('A' for Active; 'I' for Inactive)
REMARK    1  A    between atoms: C_2  and  N_3 
REMARK    2  A    between atoms: C_2  and  C_17 
REMARK       I    between atoms: N_3  and  C_4 
REMARK    3  A    between atoms: C_4  and  C_5 
REMARK    4  A    between atoms: C_6  and  N_7 
REMARK    5  A    between atoms: C_17  and  O_18 
REMARK    6  A    between atoms: C_17  and  C_19 
REMARK    7  A    between atoms: C_22  and  O_23 
ROOT
HETATM    1  N   UNL     1      22.485  47.909  48.681  1.00  0.00    -0.350 N 
HETATM    2  C   UNL     1      23.244  48.866  49.304  1.00  0.00     0.255 C 
HETATM    3  O   UNL     1      22.740  49.853  49.834  1.00  0.00    -0.268 OA
HETATM    4  H   UNL     1      22.929  47.000  48.594  1.00  0.00     0.163 HD
ENDROOT
BRANCH   1   5
HETATM    5  C   UNL     1      21.015  47.921  48.735  1.00  0.00     0.114 C 
HETATM    6  C   UNL     1      20.467  46.501  48.543  1.00  0.00     0.035 C 
BRANCH   5   7
HETATM    7  C   UNL     1      20.458  48.921  47.680  1.00  0.00     0.173 C 
BRANCH   7   8
HETATM    8  O   UNL     1      19.717  48.233  46.662  1.00  0.00    -0.389 OA
HETATM    9  H   UNL     1      20.229  48.321  45.841  1.00  0.00     0.210 HD
ENDBRANCH   7   8
BRANCH   7  10
HETATM   10  C   UNL     1      19.622  50.029  48.292  1.00  0.00    -0.028 A 
HETATM   11  C   UNL     1      18.695  49.720  49.299  1.00  0.00     0.012 A 
HETATM   12  C   UNL     1      17.906  50.721  49.872  1.00  0.00     0.037 A 
HETATM   13  C   UNL     1      18.024  52.048  49.457  1.00  0.00     0.068 A 
HETATM   14  C   UNL     1      18.943  52.367  48.458  1.00  0.00     0.037 A 
HETATM   15  C   UNL     1      19.734  51.365  47.881  1.00  0.00     0.012 A 
BRANCH  13  16
HETATM   16  O   UNL     1      17.194  52.924  50.101  1.00  0.00    -0.356 OA
HETATM   17  C   UNL     1      15.903  53.114  49.538  1.00  0.00     0.210 C 
ENDBRANCH  13  16
ENDBRANCH   7  10
ENDBRANCH   5   7
ENDBRANCH   1   5
BRANCH   2  18
HETATM   18  C   UNL     1      24.735  48.759  49.242  1.00  0.00     0.079 A 
HETATM   19  C   UNL     1      25.614  47.799  49.762  1.00  0.00     0.165 A 
HETATM   20  N   UNL     1      26.978  47.897  49.588  1.00  0.00    -0.241 NA
HETATM   21  C   UNL     1      27.484  48.943  48.906  1.00  0.00     0.119 A 
HETATM   22  C   UNL     1      26.701  49.935  48.368  1.00  0.00     0.020 A 
HETATM   23  C   UNL     1      25.325  49.837  48.542  1.00  0.00     0.022 A 
BRANCH  19  24
HETATM   24  N   UNL     1      25.224  46.657  50.542  1.00  0.00    -0.226 N 
HETATM   25  N   UNL     1      24.444  45.631  50.095  1.00  0.00    -0.179 NA
HETATM   26  C   UNL     1      24.300  44.823  51.148  1.00  0.00     0.141 A 
HETATM   27  C   UNL     1      25.023  45.254  52.265  1.00  0.00     0.040 A 
HETATM   28  C   UNL     1      25.619  46.418  51.850  1.00  0.00     0.122 A 
ENDBRANCH  19  24
ENDBRANCH   2  18
TORSDOF 7
ENDMDL
MODEL 9
REMARK VINA RESULT:      -7.5      3.057      7.770
REMARK  7 active torsions:
REMARK  status: ('A' for Active; 'I' for Inactive)
REMARK    1  A    between atoms: C_2  and  N_3 
REMARK    2  A    between atoms: C_2  and  C_17 
REMARK       I    between atoms: N_3  and  C_4 
REMARK    3  A    between atoms: C_4  and  C_5 
REMARK    4  A    between atoms: C_6  and  N_7 
REMARK    5  A    between atoms: C_17  and  O_18 
REMARK    6  A    between atoms: C_17  and  C_19 
REMARK    7  A    between atoms: C_22  and  O_23 
ROOT
HETATM    1  N   UNL     1      25.038  45.727  52.352  1.00  0.00    -0.350 N 
HETATM    2  C   UNL     1      25.459  45.999  51.076  1.00  0.00     0.255 C 
HETATM    3  O   UNL     1      26.638  45.898  50.744  1.00  0.00    -0.268 OA
HETATM    4  H   UNL     1      24.052  45.500  52.437  1.00  0.00     0.163 HD
ENDROOT
BRANCH   1   5
HETATM    5  C   UNL     1      25.937  45.154  53.366  1.00  0.00     0.114 C 
HETATM    6  C   UNL     1      25.134  44.327  54.378  1.00  0.00     0.035 C 
BRANCH   5   7
HETATM    7  C   UNL     1      26.758  46.290  54.044  1.00  0.00     0.173 C 
BRANCH   7   8
HETATM    8  O   UNL     1      25.920  47.097  54.883  1.00  0.00    -0.389 OA
HETATM    9  H   UNL     1      26.062  46.789  55.794  1.00  0.00     0.210 HD
ENDBRANCH   7   8
BRANCH   7  10
HETATM   10  C   UNL     1      27.956  45.777  54.820  1.00  0.00    -0.028 A 
HETATM   11  C   UNL     1      28.342  46.425  56.003  1.00  0.00     0.012 A 
HETATM   12  C   UNL     1      29.448  45.979  56.731  1.00  0.00     0.037 A 
HETATM   13  C   UNL     1      30.190  44.879  56.299  1.00  0.00     0.068 A 
HETATM   14  C   UNL     1      29.814  44.226  55.126  1.00  0.00     0.037 A 
HETATM   15  C   UNL     1      28.707  44.673  54.394  1.00  0.00     0.012 A 
BRANCH  13  16
HETATM   16  O   UNL     1      31.245  44.549  57.105  1.00  0.00    -0.356 OA
HETATM   17  C   UNL     1      31.589  43.171  57.177  1.00  0.00     0.210 C 
ENDBRANCH  13  16
ENDBRANCH   7  10
ENDBRANCH   5   7
ENDBRANCH   1   5
BRANCH   2  18
HETATM   18  C   UNL     1      24.473  46.539  50.089  1.00  0.00     0.079 A 
HETATM   19  C   UNL     1      23.504  45.895  49.307  1.00  0.00     0.165 A 
HETATM   20  N   UNL     1      22.688  46.596  48.444  1.00  0.00    -0.241 NA
HETATM   21  C   UNL     1      22.826  47.932  48.343  1.00  0.00     0.119 A 
HETATM   22  C   UNL     1      23.753  48.646  49.063  1.00  0.00     0.020 A 
HETATM   23  C   UNL     1      24.576  47.941  49.934  1.00  0.00     0.022 A 
BRANCH  19  24
HETATM   24  N   UNL     1      23.271  44.478  49.279  1.00  0.00    -0.226 N 
HETATM   25  N   UNL     1      23.076  43.693  50.377  1.00  0.00    -0.179 NA
HETATM   26  C   UNL     1      22.947  42.453  49.897  1.00  0.00     0.141 A 
HETATM   27  C   UNL     1      22.983  42.407  48.499  1.00  0.00     0.040 A 
HETATM   28  C   UNL     1      23.175  43.713  48.125  1.00  0.00     0.122 A 
ENDBRANCH  19  24
ENDBRANCH   2  18
TORSDOF 7
ENDMDL
MODEL 10
REMARK VINA RESULT:      -7.4      2.895      7.207
REMARK  7 active torsions:
REMARK  status: ('A' for Active; 'I' for Inactive)
REMARK    1  A    between atoms: C_2  and  N_3 
REMARK    2  A    between atoms: C_2  and  C_17 
REMARK       I    between atoms: N_3  and  C_4 
REMARK    3  A    between atoms: C_4  and  C_5 
REMARK    4  A    between atoms: C_6  and  N_7 
REMARK    5  A    between atoms: C_17  and  O_18 
REMARK    6  A    between atoms: C_17  and  C_19 
REMARK    7  A    between atoms: C_22  and  O_23 
ROOT
HETATM    1  N   UNL     1      25.197  44.038  52.156  1.00  0.00    -0.350 N 
HETATM    2  C   UNL     1      25.414  43.222  51.076  1.00  0.00     0.255 C 
HETATM    3  O   UNL     1      26.389  42.478  51.008  1.00  0.00    -0.268 OA
HETATM    4  H   UNL     1      24.233  44.331  52.284  1.00  0.00     0.163 HD
ENDROOT
BRANCH   1   5
HETATM    5  C   UNL     1      26.031  43.970  53.367  1.00  0.00     0.114 C 
HETATM    6  C   UNL     1      25.172  44.212  54.615  1.00  0.00     0.035 C 
BRANCH   5   7
HETATM    7  C   UNL     1      27.210  44.980  53.251  1.00  0.00     0.173 C 
BRANCH   7   8
HETATM    8  O   UNL     1      26.759  46.323  53.475  1.00  0.00    -0.389 OA
HETATM    9  H   UNL     1      25.839  46.361  53.162  1.00  0.00     0.210 HD
ENDBRANCH   7   8
BRANCH   7  10
HETATM   10  C   UNL     1      28.372  44.647  54.167  1.00  0.00    -0.028 A 
HETATM   11  C   UNL     1      28.750  45.559  55.164  1.00  0.00     0.012 A 
HETATM   12  C   UNL     1      29.823  45.280  56.014  1.00  0.00     0.037 A 
HETATM   13  C   UNL     1      30.540  44.089  55.891  1.00  0.00     0.068 A 
HETATM   14  C   UNL     1      30.172  43.175  54.906  1.00  0.00     0.037 A 
HETATM   15  C   UNL     1      29.098  43.453  54.051  1.00  0.00     0.012 A 
BRANCH  13  16
HETATM   16  O   UNL     1      31.564  43.944  56.787  1.00  0.00    -0.356 OA
HETATM   17  C   UNL     1      31.377  44.523  58.072  1.00  0.00     0.210 C 
ENDBRANCH  13  16
ENDBRANCH   7  10
ENDBRANCH   5   7
ENDBRANCH   1   5
BRANCH   2  18
HETATM   18  C   UNL     1      24.494  43.319  49.900  1.00  0.00     0.079 A 
HETATM   19  C   UNL     1      24.074  44.424  49.147  1.00  0.00     0.165 A 
HETATM   20  N   UNL     1      23.204  44.288  48.086  1.00  0.00    -0.241 NA
HETATM   21  C   UNL     1      22.739  43.065  47.765  1.00  0.00     0.119 A 
HETATM   22  C   UNL     1      23.090  41.927  48.450  1.00  0.00     0.020 A 
HETATM   23  C   UNL     1      23.968  42.063  49.520  1.00  0.00     0.022 A 
BRANCH  19  24
HETATM   24  N   UNL     1      24.452  45.788  49.397  1.00  0.00    -0.226 N 
HETATM   25  N   UNL     1      25.702  46.203  49.748  1.00  0.00    -0.179 NA
HETATM   26  C   UNL     1      25.591  47.523  49.923  1.00  0.00     0.141 A 
HETATM   27  C   UNL     1      24.310  48.002  49.628  1.00  0.00     0.040 A 
HETATM   28  C   UNL     1      23.604  46.880  49.278  1.00  0.00     0.122 A 
ENDBRANCH  19  24
ENDBRANCH   2  18
TORSDOF 7
ENDMDL
