MODEL 1
REMARK VINA RESULT:      -9.7      0.000      0.000
REMARK  4 active torsions:
REMARK  status: ('A' for Active; 'I' for Inactive)
REMARK    1  A    between atoms: C_3  and  C_4 
REMARK    2  A    between atoms: C_5  and  C_6 
REMARK       I    between atoms: C_6  and  N_7 
REMARK    3  A    between atoms: N_7  and  C_8 
REMARK    4  A    between atoms: C_15  and  C_16 
REMARK       I    between atoms: C_16  and  N_17 
ROOT
HETATM    1  C   UNL     1      27.334  41.530  51.841  1.00  0.00     0.035 A 
HETATM    2  C   UNL     1      28.273  40.545  51.508  1.00  0.00     0.046 A 
HETATM    3  C   UNL     1      28.071  39.745  50.362  1.00  0.00     0.030 A 
HETATM    4  C   UNL     1      26.937  39.958  49.587  1.00  0.00     0.063 A 
HETATM    5  N   UNL     1      27.025  39.057  48.563  1.00  0.00    -0.277 N 
HETATM    6  H   UNL     1      26.370  38.931  47.800  1.00  0.00     0.189 HD
HETATM    7  N   UNL     1      28.111  38.269  48.605  1.00  0.00    -0.168 NA
HETATM    8  C   UNL     1      28.769  38.682  49.714  1.00  0.00     0.156 A 
HETATM    9  C   UNL     1      25.978  40.925  49.893  1.00  0.00     0.034 A 
HETATM   10  C   UNL     1      26.199  41.702  51.037  1.00  0.00     0.032 A 
ENDROOT
BRANCH   1  11
HETATM   11  N   UNL     1      27.471  42.398  52.947  1.00  0.00    -0.327 N 
HETATM   12  C   UNL     1      27.244  43.754  52.971  1.00  0.00     0.227 C 
HETATM   13  O   UNL     1      26.970  44.482  52.029  1.00  0.00    -0.273 OA
HETATM   14  H   UNL     1      27.719  41.966  53.825  1.00  0.00     0.169 HD
BRANCH  12  15
HETATM   15  C   UNL     1      27.329  44.387  54.316  1.00  0.00     0.087 A 
HETATM   16  C   UNL     1      28.500  45.348  54.520  1.00  0.00     0.034 A 
HETATM   17  C   UNL     1      27.078  45.825  54.667  1.00  0.00     0.025 A 
BRANCH  16  18
HETATM   18  C   UNL     1      29.427  45.138  55.696  1.00  0.00    -0.031 A 
HETATM   19  C   UNL     1      29.258  45.922  56.856  1.00  0.00     0.009 A 
HETATM   20  C   UNL     1      30.048  45.738  57.993  1.00  0.00     0.001 A 
HETATM   21  C   UNL     1      31.029  44.753  58.004  1.00  0.00     0.002 A 
HETATM   22  C   UNL     1      31.214  43.953  56.879  1.00  0.00     0.024 A 
HETATM   23  C   UNL     1      30.418  44.139  55.743  1.00  0.00     0.040 A 
HETATM   24 CL   UNL     1      30.675  43.069  54.407  1.00  0.00    -0.084 Cl
ENDBRANCH  16  18
ENDBRANCH  12  15
ENDBRANCH   1  11
BRANCH   8  25
HETATM   25  C   UNL     1      30.034  38.058  50.124  1.00  0.00     0.270 C 
HETATM   26  N   UNL     1      31.126  38.490  49.422  1.00  0.00    -0.365 N 
HETATM   27  H   UNL     1      30.992  39.181  48.694  1.00  0.00     0.159 HD
HETATM   28  H   UNL     1      32.036  38.112  49.633  1.00  0.00     0.159 HD
HETATM   29  O   UNL     1      30.146  37.219  51.012  1.00  0.00    -0.266 OA
ENDBRANCH   8  25
TORSDOF 4
ENDMDL
MODEL 2
REMARK VINA RESULT:      -9.7      5.811      8.069
REMARK  4 active torsions:
REMARK  status: ('A' for Active; 'I' for Inactive)
REMARK    1  A    between atoms: C_3  and  C_4 
REMARK    2  A    between atoms: C_5  and  C_6 
REMARK       I    between atoms: C_6  and  N_7 
REMARK    3  A    between atoms: N_7  and  C_8 
REMARK    4  A    between atoms: C_15  and  C_16 
REMARK       I    between atoms: C_16  and  N_17 
ROOT
HETATM    1  C   UNL     1      25.851  47.558  50.258  1.00  0.00     0.035 A 
HETATM    2  C   UNL     1      24.541  47.818  49.831  1.00  0.00     0.046 A 
HETATM    3  C   UNL     1      24.305  48.825  48.871  1.00  0.00     0.030 A 
HETATM    4  C   UNL     1      25.386  49.539  48.368  1.00  0.00     0.063 A 
HETATM    5  N   UNL     1      24.852  50.418  47.468  1.00  0.00    -0.277 N 
HETATM    6  H   UNL     1      25.351  51.096  46.903  1.00  0.00     0.189 HD
HETATM    7  N   UNL     1      23.517  50.347  47.344  1.00  0.00    -0.168 NA
HETATM    8  C   UNL     1      23.163  49.366  48.207  1.00  0.00     0.156 A 
HETATM    9  C   UNL     1      26.702  49.313  48.775  1.00  0.00     0.034 A 
HETATM   10  C   UNL     1      26.909  48.311  49.732  1.00  0.00     0.032 A 
ENDROOT
BRANCH   1  11
HETATM   11  N   UNL     1      26.184  46.549  51.188  1.00  0.00    -0.327 N 
HETATM   12  C   UNL     1      25.935  46.552  52.541  1.00  0.00     0.227 C 
HETATM   13  O   UNL     1      25.464  47.458  53.211  1.00  0.00    -0.273 OA
HETATM   14  H   UNL     1      26.611  45.717  50.809  1.00  0.00     0.169 HD
BRANCH  12  15
HETATM   15  C   UNL     1      26.272  45.287  53.250  1.00  0.00     0.087 A 
HETATM   16  C   UNL     1      27.046  45.449  54.557  1.00  0.00     0.034 A 
HETATM   17  C   UNL     1      25.695  44.781  54.541  1.00  0.00     0.025 A 
BRANCH  16  18
HETATM   18  C   UNL     1      28.341  44.689  54.743  1.00  0.00    -0.031 A 
HETATM   19  C   UNL     1      28.690  43.685  53.816  1.00  0.00     0.009 A 
HETATM   20  C   UNL     1      29.896  42.986  53.904  1.00  0.00     0.001 A 
HETATM   21  C   UNL     1      30.795  43.280  54.923  1.00  0.00     0.002 A 
HETATM   22  C   UNL     1      30.487  44.274  55.847  1.00  0.00     0.024 A 
HETATM   23  C   UNL     1      29.278  44.974  55.754  1.00  0.00     0.040 A 
HETATM   24 CL   UNL     1      28.994  46.231  56.909  1.00  0.00    -0.084 Cl
ENDBRANCH  16  18
ENDBRANCH  12  15
ENDBRANCH   1  11
BRANCH   8  25
HETATM   25  C   UNL     1      21.757  48.972  48.377  1.00  0.00     0.270 C 
HETATM   26  N   UNL     1      21.231  49.287  49.600  1.00  0.00    -0.365 N 
HETATM   27  H   UNL     1      21.824  49.748  50.279  1.00  0.00     0.159 HD
HETATM   28  H   UNL     1      20.273  49.050  49.806  1.00  0.00     0.159 HD
HETATM   29  O   UNL     1      21.080  48.409  47.523  1.00  0.00    -0.266 OA
ENDBRANCH   8  25
TORSDOF 4
ENDMDL
MODEL 3
REMARK VINA RESULT:      -9.5      5.626      7.875
REMARK  4 active torsions:
REMARK  status: ('A' for Active; 'I' for Inactive)
REMARK    1  A    between atoms: C_3  and  C_4 
REMARK    2  A    between atoms: C_5  and  C_6 
REMARK       I    between atoms: C_6  and  N_7 
REMARK    3  A    between atoms: N_7  and  C_8 
REMARK    4  A    between atoms: C_15  and  C_16 
REMARK       I    between atoms: C_16  and  N_17 
ROOT
HETATM    1  C   UNL     1      25.849  47.243  50.312  1.00  0.00     0.035 A 
HETATM    2  C   UNL     1      24.552  47.468  49.830  1.00  0.00     0.046 A 
HETATM    3  C   UNL     1      24.312  48.544  48.947  1.00  0.00     0.030 A 
HETATM    4  C   UNL     1      25.376  49.356  48.575  1.00  0.00     0.063 A 
HETATM    5  N   UNL     1      24.843  50.282  47.722  1.00  0.00    -0.277 N 
HETATM    6  H   UNL     1      25.331  51.034  47.250  1.00  0.00     0.189 HD
HETATM    7  N   UNL     1      23.523  50.151  47.511  1.00  0.00    -0.168 NA
HETATM    8  C   UNL     1      23.179  49.079  48.263  1.00  0.00     0.156 A 
HETATM    9  C   UNL     1      26.677  49.166  49.041  1.00  0.00     0.034 A 
HETATM   10  C   UNL     1      26.889  48.096  49.919  1.00  0.00     0.032 A 
ENDROOT
BRANCH   1  11
HETATM   11  N   UNL     1      26.188  46.174  51.171  1.00  0.00    -0.327 N 
HETATM   12  C   UNL     1      26.960  45.077  50.865  1.00  0.00     0.227 C 
HETATM   13  O   UNL     1      27.422  44.770  49.777  1.00  0.00    -0.273 OA
HETATM   14  H   UNL     1      25.866  46.248  52.124  1.00  0.00     0.169 HD
BRANCH  12  15
HETATM   15  C   UNL     1      27.270  44.181  52.013  1.00  0.00     0.087 A 
HETATM   16  C   UNL     1      27.204  44.832  53.394  1.00  0.00     0.034 A 
HETATM   17  C   UNL     1      26.317  43.663  53.051  1.00  0.00     0.025 A 
BRANCH  16  18
HETATM   18  C   UNL     1      28.398  44.721  54.316  1.00  0.00    -0.031 A 
HETATM   19  C   UNL     1      29.168  43.539  54.308  1.00  0.00     0.009 A 
HETATM   20  C   UNL     1      30.312  43.398  55.097  1.00  0.00     0.001 A 
HETATM   21  C   UNL     1      30.724  44.443  55.915  1.00  0.00     0.002 A 
HETATM   22  C   UNL     1      29.994  45.629  55.937  1.00  0.00     0.024 A 
HETATM   23  C   UNL     1      28.850  45.768  55.143  1.00  0.00     0.040 A 
HETATM   24 CL   UNL     1      28.029  47.290  55.187  1.00  0.00    -0.084 Cl
ENDBRANCH  16  18
ENDBRANCH  12  15
ENDBRANCH   1  11
BRANCH   8  25
HETATM   25  C   UNL     1      21.792  48.596  48.311  1.00  0.00     0.270 C 
HETATM   26  N   UNL     1      21.189  48.746  49.529  1.00  0.00    -0.365 N 
HETATM   27  H   UNL     1      21.720  49.160  50.287  1.00  0.00     0.159 HD
HETATM   28  H   UNL     1      20.237  48.439  49.656  1.00  0.00     0.159 HD
HETATM   29  O   UNL     1      21.191  48.097  47.366  1.00  0.00    -0.266 OA
ENDBRANCH   8  25
TORSDOF 4
ENDMDL
MODEL 4
REMARK VINA RESULT:      -9.0      1.963      2.565
REMARK  4 active torsions:
REMARK  status: ('A' for Active; 'I' for Inactive)
REMARK    1  A    between atoms: C_3  and  C_4 
REMARK    2  A    between atoms: C_5  and  C_6 
REMARK       I    between atoms: C_6  and  N_7 
REMARK    3  A    between atoms: N_7  and  C_8 
REMARK    4  A    between atoms: C_15  and  C_16 
REMARK       I    between atoms: C_16  and  N_17 
ROOT
HETATM    1  C   UNL     1      26.592  44.346  51.585  1.00  0.00     0.035 A 
HETATM    2  C   UNL     1      27.152  43.149  51.118  1.00  0.00     0.046 A 
HETATM    3  C   UNL     1      26.694  42.587  49.907  1.00  0.00     0.030 A 
HETATM    4  C   UNL     1      25.691  43.241  49.202  1.00  0.00     0.063 A 
HETATM    5  N   UNL     1      25.474  42.477  48.090  1.00  0.00    -0.277 N 
HETATM    6  H   UNL     1      24.811  42.655  47.344  1.00  0.00     0.189 HD
HETATM    7  N   UNL     1      26.240  41.377  48.010  1.00  0.00    -0.168 NA
HETATM    8  C   UNL     1      27.000  41.430  49.129  1.00  0.00     0.156 A 
HETATM    9  C   UNL     1      25.105  44.430  49.639  1.00  0.00     0.034 A 
HETATM   10  C   UNL     1      25.574  44.964  50.846  1.00  0.00     0.032 A 
ENDROOT
BRANCH   1  11
HETATM   11  N   UNL     1      27.010  44.997  52.766  1.00  0.00    -0.327 N 
HETATM   12  C   UNL     1      26.606  44.723  54.052  1.00  0.00     0.227 C 
HETATM   13  O   UNL     1      25.746  43.933  54.412  1.00  0.00    -0.273 OA
HETATM   14  H   UNL     1      27.716  45.710  52.657  1.00  0.00     0.169 HD
BRANCH  12  15
HETATM   15  C   UNL     1      27.324  45.477  55.116  1.00  0.00     0.087 A 
HETATM   16  C   UNL     1      28.826  45.658  54.897  1.00  0.00     0.034 A 
HETATM   17  C   UNL     1      27.917  46.853  55.020  1.00  0.00     0.025 A 
BRANCH  16  18
HETATM   18  C   UNL     1      29.784  45.233  55.987  1.00  0.00    -0.031 A 
HETATM   19  C   UNL     1      29.808  45.949  57.201  1.00  0.00     0.009 A 
HETATM   20  C   UNL     1      30.632  45.573  58.265  1.00  0.00     0.001 A 
HETATM   21  C   UNL     1      31.454  44.458  58.145  1.00  0.00     0.002 A 
HETATM   22  C   UNL     1      31.445  43.720  56.964  1.00  0.00     0.024 A 
HETATM   23  C   UNL     1      30.616  44.099  55.901  1.00  0.00     0.040 A 
HETATM   24 CL   UNL     1      30.623  43.100  54.489  1.00  0.00    -0.084 Cl
ENDBRANCH  16  18
ENDBRANCH  12  15
ENDBRANCH   1  11
BRANCH   8  25
HETATM   25  C   UNL     1      27.991  40.386  49.426  1.00  0.00     0.270 C 
HETATM   26  N   UNL     1      27.710  39.649  50.543  1.00  0.00    -0.365 N 
HETATM   27  H   UNL     1      26.873  39.866  51.070  1.00  0.00     0.159 HD
HETATM   28  H   UNL     1      28.338  38.913  50.825  1.00  0.00     0.159 HD
HETATM   29  O   UNL     1      28.995  40.164  48.758  1.00  0.00    -0.266 OA
ENDBRANCH   8  25
TORSDOF 4
ENDMDL
MODEL 5
REMARK VINA RESULT:      -9.0      4.018      5.745
REMARK  4 active torsions:
REMARK  status: ('A' for Active; 'I' for Inactive)
REMARK    1  A    between atoms: C_3  and  C_4 
REMARK    2  A    between atoms: C_5  and  C_6 
REMARK       I    between atoms: C_6  and  N_7 
REMARK    3  A    between atoms: N_7  and  C_8 
REMARK    4  A    between atoms: C_15  and  C_16 
REMARK       I    between atoms: C_16  and  N_17 
ROOT
HETATM    1  C   UNL     1      25.982  45.263  51.579  1.00  0.00     0.035 A 
HETATM    2  C   UNL     1      24.913  45.915  50.949  1.00  0.00     0.046 A 
HETATM    3  C   UNL     1      24.400  45.406  49.737  1.00  0.00     0.030 A 
HETATM    4  C   UNL     1      24.971  44.261  49.195  1.00  0.00     0.063 A 
HETATM    5  N   UNL     1      24.266  44.011  48.051  1.00  0.00    -0.277 N 
HETATM    6  H   UNL     1      24.404  43.248  47.400  1.00  0.00     0.189 HD
HETATM    7  N   UNL     1      23.290  44.898  47.793  1.00  0.00    -0.168 NA
HETATM    8  C   UNL     1      23.361  45.768  48.827  1.00  0.00     0.156 A 
HETATM    9  C   UNL     1      26.040  43.590  49.790  1.00  0.00     0.034 A 
HETATM   10  C   UNL     1      26.534  44.117  50.990  1.00  0.00     0.032 A 
ENDROOT
BRANCH   1  11
HETATM   11  N   UNL     1      26.538  45.680  52.808  1.00  0.00    -0.327 N 
HETATM   12  C   UNL     1      26.576  44.969  53.986  1.00  0.00     0.227 C 
HETATM   13  O   UNL     1      26.063  43.886  54.220  1.00  0.00    -0.273 OA
HETATM   14  H   UNL     1      26.995  46.580  52.809  1.00  0.00     0.169 HD
BRANCH  12  15
HETATM   15  C   UNL     1      27.355  45.605  55.084  1.00  0.00     0.087 A 
HETATM   16  C   UNL     1      28.859  45.726  54.842  1.00  0.00     0.034 A 
HETATM   17  C   UNL     1      28.016  46.953  55.074  1.00  0.00     0.025 A 
BRANCH  16  18
HETATM   18  C   UNL     1      29.816  45.173  55.875  1.00  0.00    -0.031 A 
HETATM   19  C   UNL     1      29.911  45.803  57.132  1.00  0.00     0.009 A 
HETATM   20  C   UNL     1      30.737  45.309  58.145  1.00  0.00     0.001 A 
HETATM   21  C   UNL     1      31.488  44.159  57.930  1.00  0.00     0.002 A 
HETATM   22  C   UNL     1      31.407  43.505  56.703  1.00  0.00     0.024 A 
HETATM   23  C   UNL     1      30.576  44.002  55.691  1.00  0.00     0.040 A 
HETATM   24 CL   UNL     1      30.491  43.102  54.216  1.00  0.00    -0.084 Cl
ENDBRANCH  16  18
ENDBRANCH  12  15
ENDBRANCH   1  11
BRANCH   8  25
HETATM   25  C   UNL     1      22.445  46.914  48.922  1.00  0.00     0.270 C 
HETATM   26  N   UNL     1      21.121  46.581  48.830  1.00  0.00    -0.365 N 
HETATM   27  H   UNL     1      20.873  45.607  48.704  1.00  0.00     0.159 HD
HETATM   28  H   UNL     1      20.421  47.304  48.880  1.00  0.00     0.159 HD
HETATM   29  O   UNL     1      22.795  48.080  49.070  1.00  0.00    -0.266 OA
ENDBRANCH   8  25
TORSDOF 4
ENDMDL
MODEL 6
REMARK VINA RESULT:      -8.9      7.002      9.372
REMARK  4 active torsions:
REMARK  status: ('A' for Active; 'I' for Inactive)
REMARK    1  A    between atoms: C_3  and  C_4 
REMARK    2  A    between atoms: C_5  and  C_6 
REMARK       I    between atoms: C_6  and  N_7 
REMARK    3  A    between atoms: N_7  and  C_8 
REMARK    4  A    between atoms: C_15  and  C_16 
REMARK       I    between atoms: C_16  and  N_17 
ROOT
HETATM    1  C   UNL     1      23.964  48.604  49.061  1.00  0.00     0.035 A 
HETATM    2  C   UNL     1      22.621  48.246  49.247  1.00  0.00     0.046 A 
HETATM    3  C   UNL     1      21.600  49.165  48.922  1.00  0.00     0.030 A 
HETATM    4  C   UNL     1      21.956  50.411  48.421  1.00  0.00     0.063 A 
HETATM    5  N   UNL     1      20.774  51.060  48.195  1.00  0.00    -0.277 N 
HETATM    6  H   UNL     1      20.649  51.995  47.823  1.00  0.00     0.189 HD
HETATM    7  N   UNL     1      19.679  50.351  48.513  1.00  0.00    -0.168 NA
HETATM    8  C   UNL     1      20.174  49.176  48.966  1.00  0.00     0.156 A 
HETATM    9  C   UNL     1      23.281  50.805  48.229  1.00  0.00     0.034 A 
HETATM   10  C   UNL     1      24.275  49.877  48.563  1.00  0.00     0.032 A 
ENDROOT
BRANCH   1  11
HETATM   11  N   UNL     1      25.048  47.739  49.326  1.00  0.00    -0.327 N 
HETATM   12  C   UNL     1      25.476  47.298  50.557  1.00  0.00     0.227 C 
HETATM   13  O   UNL     1      25.064  47.638  51.655  1.00  0.00    -0.273 OA
HETATM   14  H   UNL     1      25.531  47.369  48.521  1.00  0.00     0.169 HD
BRANCH  12  15
HETATM   15  C   UNL     1      26.557  46.275  50.522  1.00  0.00     0.087 A 
HETATM   16  C   UNL     1      26.269  44.984  51.288  1.00  0.00     0.034 A 
HETATM   17  C   UNL     1      26.545  44.955  49.806  1.00  0.00     0.025 A 
BRANCH  16  18
HETATM   18  C   UNL     1      27.264  44.507  52.322  1.00  0.00    -0.031 A 
HETATM   19  C   UNL     1      28.338  43.688  51.919  1.00  0.00     0.009 A 
HETATM   20  C   UNL     1      29.318  43.259  52.818  1.00  0.00     0.001 A 
HETATM   21  C   UNL     1      29.254  43.646  54.151  1.00  0.00     0.002 A 
HETATM   22  C   UNL     1      28.212  44.465  54.580  1.00  0.00     0.024 A 
HETATM   23  C   UNL     1      27.234  44.895  53.676  1.00  0.00     0.040 A 
HETATM   24 CL   UNL     1      26.003  45.954  54.276  1.00  0.00    -0.084 Cl
ENDBRANCH  16  18
ENDBRANCH  12  15
ENDBRANCH   1  11
BRANCH   8  25
HETATM   25  C   UNL     1      19.283  48.101  49.426  1.00  0.00     0.270 C 
HETATM   26  N   UNL     1      19.041  48.111  50.772  1.00  0.00    -0.365 N 
HETATM   27  H   UNL     1      19.478  48.829  51.338  1.00  0.00     0.159 HD
HETATM   28  H   UNL     1      18.444  47.408  51.176  1.00  0.00     0.159 HD
HETATM   29  O   UNL     1      18.781  47.250  48.700  1.00  0.00    -0.266 OA
ENDBRANCH   8  25
TORSDOF 4
ENDMDL
MODEL 7
REMARK VINA RESULT:      -8.7      2.294      3.735
REMARK  4 active torsions:
REMARK  status: ('A' for Active; 'I' for Inactive)
REMARK    1  A    between atoms: C_3  and  C_4 
REMARK    2  A    between atoms: C_5  and  C_6 
REMARK       I    between atoms: C_6  and  N_7 
REMARK    3  A    between atoms: N_7  and  C_8 
REMARK    4  A    between atoms: C_15  and  C_16 
REMARK       I    between atoms: C_16  and  N_17 
ROOT
HETATM    1  C   UNL     1      26.354  41.962  51.594  1.00  0.00     0.035 A 
HETATM    2  C   UNL     1      25.398  42.395  50.666  1.00  0.00     0.046 A 
HETATM    3  C   UNL     1      25.147  41.625  49.509  1.00  0.00     0.030 A 
HETATM    4  C   UNL     1      25.859  40.447  49.321  1.00  0.00     0.063 A 
HETATM    5  N   UNL     1      25.396  39.929  48.144  1.00  0.00    -0.277 N 
HETATM    6  H   UNL     1      25.688  39.069  47.695  1.00  0.00     0.189 HD
HETATM    7  N   UNL     1      24.451  40.669  47.542  1.00  0.00    -0.168 NA
HETATM    8  C   UNL     1      24.286  41.724  48.375  1.00  0.00     0.156 A 
HETATM    9  C   UNL     1      26.823  39.989  50.220  1.00  0.00     0.034 A 
HETATM   10  C   UNL     1      27.057  40.773  51.357  1.00  0.00     0.032 A 
ENDROOT
BRANCH   1  11
HETATM   11  N   UNL     1      26.647  42.649  52.793  1.00  0.00    -0.327 N 
HETATM   12  C   UNL     1      27.530  43.691  52.958  1.00  0.00     0.227 C 
HETATM   13  O   UNL     1      28.292  44.162  52.128  1.00  0.00    -0.273 OA
HETATM   14  H   UNL     1      26.117  42.373  53.606  1.00  0.00     0.169 HD
BRANCH  12  15
HETATM   15  C   UNL     1      27.527  44.316  54.310  1.00  0.00     0.087 A 
HETATM   16  C   UNL     1      28.638  45.331  54.569  1.00  0.00     0.034 A 
HETATM   17  C   UNL     1      27.190  45.737  54.659  1.00  0.00     0.025 A 
BRANCH  16  18
HETATM   18  C   UNL     1      29.524  45.156  55.783  1.00  0.00    -0.031 A 
HETATM   19  C   UNL     1      29.327  45.985  56.906  1.00  0.00     0.009 A 
HETATM   20  C   UNL     1      30.077  45.837  58.075  1.00  0.00     0.001 A 
HETATM   21  C   UNL     1      31.046  44.843  58.155  1.00  0.00     0.002 A 
HETATM   22  C   UNL     1      31.258  43.999  57.068  1.00  0.00     0.024 A 
HETATM   23  C   UNL     1      30.502  44.150  55.900  1.00  0.00     0.040 A 
HETATM   24 CL   UNL     1      30.790  43.027  54.614  1.00  0.00    -0.084 Cl
ENDBRANCH  16  18
ENDBRANCH  12  15
ENDBRANCH   1  11
BRANCH   8  25
HETATM   25  C   UNL     1      23.320  42.790  48.072  1.00  0.00     0.270 C 
HETATM   26  N   UNL     1      23.730  43.654  47.095  1.00  0.00    -0.365 N 
HETATM   27  H   UNL     1      24.636  43.509  46.666  1.00  0.00     0.159 HD
HETATM   28  H   UNL     1      23.132  44.420  46.825  1.00  0.00     0.159 HD
HETATM   29  O   UNL     1      22.233  42.928  48.624  1.00  0.00    -0.266 OA
ENDBRANCH   8  25
TORSDOF 4
ENDMDL
MODEL 8
REMARK VINA RESULT:      -8.6      4.743      6.958
REMARK  4 active torsions:
REMARK  status: ('A' for Active; 'I' for Inactive)
REMARK    1  A    between atoms: C_3  and  C_4 
REMARK    2  A    between atoms: C_5  and  C_6 
REMARK       I    between atoms: C_6  and  N_7 
REMARK    3  A    between atoms: N_7  and  C_8 
REMARK    4  A    between atoms: C_15  and  C_16 
REMARK       I    between atoms: C_16  and  N_17 
ROOT
HETATM    1  C   UNL     1      25.618  45.503  50.649  1.00  0.00     0.035 A 
HETATM    2  C   UNL     1      25.395  46.815  50.209  1.00  0.00     0.046 A 
HETATM    3  C   UNL     1      24.199  47.131  49.530  1.00  0.00     0.030 A 
HETATM    4  C   UNL     1      23.265  46.125  49.314  1.00  0.00     0.063 A 
HETATM    5  N   UNL     1      22.229  46.728  48.657  1.00  0.00    -0.277 N 
HETATM    6  H   UNL     1      21.368  46.297  48.343  1.00  0.00     0.189 HD
HETATM    7  N   UNL     1      22.408  48.037  48.417  1.00  0.00    -0.168 NA
HETATM    8  C   UNL     1      23.624  48.302  48.951  1.00  0.00     0.156 A 
HETATM    9  C   UNL     1      23.456  44.807  49.731  1.00  0.00     0.034 A 
HETATM   10  C   UNL     1      24.653  44.518  50.398  1.00  0.00     0.032 A 
ENDROOT
BRANCH   1  11
HETATM   11  N   UNL     1      26.768  45.103  51.365  1.00  0.00    -0.327 N 
HETATM   12  C   UNL     1      27.264  43.826  51.493  1.00  0.00     0.227 C 
HETATM   13  O   UNL     1      26.761  42.787  51.094  1.00  0.00    -0.273 OA
HETATM   14  H   UNL     1      27.308  45.842  51.790  1.00  0.00     0.169 HD
BRANCH  12  15
HETATM   15  C   UNL     1      28.576  43.723  52.189  1.00  0.00     0.087 A 
HETATM   16  C   UNL     1      28.527  43.165  53.611  1.00  0.00     0.034 A 
HETATM   17  C   UNL     1      29.329  42.472  52.540  1.00  0.00     0.025 A 
BRANCH  16  18
HETATM   18  C   UNL     1      29.159  43.958  54.733  1.00  0.00    -0.031 A 
HETATM   19  C   UNL     1      30.413  43.559  55.238  1.00  0.00     0.009 A 
HETATM   20  C   UNL     1      31.071  44.281  56.236  1.00  0.00     0.001 A 
HETATM   21  C   UNL     1      30.493  45.434  56.755  1.00  0.00     0.002 A 
HETATM   22  C   UNL     1      29.260  45.863  56.270  1.00  0.00     0.024 A 
HETATM   23  C   UNL     1      28.605  45.138  55.267  1.00  0.00     0.040 A 
HETATM   24 CL   UNL     1      27.103  45.766  54.681  1.00  0.00    -0.084 Cl
ENDBRANCH  16  18
ENDBRANCH  12  15
ENDBRANCH   1  11
BRANCH   8  25
HETATM   25  C   UNL     1      24.202  49.652  48.896  1.00  0.00     0.270 C 
HETATM   26  N   UNL     1      25.394  49.724  48.229  1.00  0.00    -0.365 N 
HETATM   27  H   UNL     1      25.783  48.874  47.837  1.00  0.00     0.159 HD
HETATM   28  H   UNL     1      25.865  50.611  48.145  1.00  0.00     0.159 HD
HETATM   29  O   UNL     1      23.693  50.652  49.391  1.00  0.00    -0.266 OA
ENDBRANCH   8  25
TORSDOF 4
ENDMDL
MODEL 9
REMARK VINA RESULT:      -8.6      4.052      4.886
REMARK  4 active torsions:
REMARK  status: ('A' for Active; 'I' for Inactive)
REMARK    1  A    between atoms: C_3  and  C_4 
REMARK    2  A    between atoms: C_5  and  C_6 
REMARK       I    between atoms: C_6  and  N_7 
REMARK    3  A    between atoms: N_7  and  C_8 
REMARK    4  A    between atoms: C_15  and  C_16 
REMARK       I    between atoms: C_16  and  N_17 
ROOT
HETATM    1  C   UNL     1      25.306  45.950  52.153  1.00  0.00     0.035 A 
HETATM    2  C   UNL     1      24.963  44.753  51.511  1.00  0.00     0.046 A 
HETATM    3  C   UNL     1      24.344  44.792  50.243  1.00  0.00     0.030 A 
HETATM    4  C   UNL     1      24.089  46.027  49.659  1.00  0.00     0.063 A 
HETATM    5  N   UNL     1      23.506  45.744  48.456  1.00  0.00    -0.277 N 
HETATM    6  H   UNL     1      23.190  46.406  47.757  1.00  0.00     0.189 HD
HETATM    7  N   UNL     1      23.349  44.434  48.206  1.00  0.00    -0.168 NA
HETATM    8  C   UNL     1      23.862  43.831  49.304  1.00  0.00     0.156 A 
HETATM    9  C   UNL     1      24.410  47.239  50.273  1.00  0.00     0.034 A 
HETATM   10  C   UNL     1      25.020  47.173  51.532  1.00  0.00     0.032 A 
ENDROOT
BRANCH   1  11
HETATM   11  N   UNL     1      25.958  46.007  53.405  1.00  0.00    -0.327 N 
HETATM   12  C   UNL     1      26.919  45.145  53.881  1.00  0.00     0.227 C 
HETATM   13  O   UNL     1      27.326  44.120  53.356  1.00  0.00    -0.273 OA
HETATM   14  H   UNL     1      25.724  46.792  53.995  1.00  0.00     0.169 HD
BRANCH  12  15
HETATM   15  C   UNL     1      27.533  45.535  55.180  1.00  0.00     0.087 A 
HETATM   16  C   UNL     1      29.008  45.927  55.121  1.00  0.00     0.034 A 
HETATM   17  C   UNL     1      27.971  46.905  55.609  1.00  0.00     0.025 A 
BRANCH  16  18
HETATM   18  C   UNL     1      29.989  45.235  56.041  1.00  0.00    -0.031 A 
HETATM   19  C   UNL     1      30.236  45.778  57.319  1.00  0.00     0.009 A 
HETATM   20  C   UNL     1      31.090  45.157  58.233  1.00  0.00     0.001 A 
HETATM   21  C   UNL     1      31.718  43.963  57.896  1.00  0.00     0.002 A 
HETATM   22  C   UNL     1      31.485  43.392  56.647  1.00  0.00     0.024 A 
HETATM   23  C   UNL     1      30.627  44.017  55.734  1.00  0.00     0.040 A 
HETATM   24 CL   UNL     1      30.349  43.218  54.225  1.00  0.00    -0.084 Cl
ENDBRANCH  16  18
ENDBRANCH  12  15
ENDBRANCH   1  11
BRANCH   8  25
HETATM   25  C   UNL     1      23.881  42.367  49.429  1.00  0.00     0.270 C 
HETATM   26  N   UNL     1      22.956  41.726  48.652  1.00  0.00    -0.365 N 
HETATM   27  H   UNL     1      22.343  42.283  48.068  1.00  0.00     0.159 HD
HETATM   28  H   UNL     1      22.893  40.721  48.677  1.00  0.00     0.159 HD
HETATM   29  O   UNL     1      24.641  41.736  50.156  1.00  0.00    -0.266 OA
ENDBRANCH   8  25
TORSDOF 4
ENDMDL
MODEL 10
REMARK VINA RESULT:      -7.9      4.647      8.149
REMARK  4 active torsions:
REMARK  status: ('A' for Active; 'I' for Inactive)
REMARK    1  A    between atoms: C_3  and  C_4 
REMARK    2  A    between atoms: C_5  and  C_6 
REMARK       I    between atoms: C_6  and  N_7 
REMARK    3  A    between atoms: N_7  and  C_8 
REMARK    4  A    between atoms: C_15  and  C_16 
REMARK       I    between atoms: C_16  and  N_17 
ROOT
HETATM    1  C   UNL     1      27.553  43.882  52.531  1.00  0.00     0.035 A 
HETATM    2  C   UNL     1      27.759  44.642  53.690  1.00  0.00     0.046 A 
HETATM    3  C   UNL     1      28.885  44.388  54.502  1.00  0.00     0.030 A 
HETATM    4  C   UNL     1      29.769  43.384  54.127  1.00  0.00     0.063 A 
HETATM    5  N   UNL     1      30.744  43.384  55.085  1.00  0.00    -0.277 N 
HETATM    6  H   UNL     1      31.558  42.783  55.131  1.00  0.00     0.189 HD
HETATM    7  N   UNL     1      30.571  44.294  56.057  1.00  0.00    -0.168 NA
HETATM    8  C   UNL     1      29.423  44.924  55.711  1.00  0.00     0.156 A 
HETATM    9  C   UNL     1      29.592  42.603  52.984  1.00  0.00     0.034 A 
HETATM   10  C   UNL     1      28.464  42.871  52.198  1.00  0.00     0.032 A 
ENDROOT
BRANCH   1  11
HETATM   11  N   UNL     1      26.474  44.088  51.642  1.00  0.00    -0.327 N 
HETATM   12  C   UNL     1      25.163  44.344  51.973  1.00  0.00     0.227 C 
HETATM   13  O   UNL     1      24.663  44.352  53.088  1.00  0.00    -0.273 OA
HETATM   14  H   UNL     1      26.701  44.092  50.659  1.00  0.00     0.169 HD
BRANCH  12  15
HETATM   15  C   UNL     1      24.271  44.662  50.825  1.00  0.00     0.087 A 
HETATM   16  C   UNL     1      24.900  45.500  49.713  1.00  0.00     0.034 A 
HETATM   17  C   UNL     1      24.355  44.124  49.425  1.00  0.00     0.025 A 
BRANCH  16  18
HETATM   18  C   UNL     1      24.208  46.770  49.271  1.00  0.00    -0.031 A 
HETATM   19  C   UNL     1      22.873  46.709  48.824  1.00  0.00     0.009 A 
HETATM   20  C   UNL     1      22.164  47.855  48.453  1.00  0.00     0.001 A 
HETATM   21  C   UNL     1      22.774  49.102  48.528  1.00  0.00     0.002 A 
HETATM   22  C   UNL     1      24.089  49.199  48.977  1.00  0.00     0.024 A 
HETATM   23  C   UNL     1      24.794  48.049  49.350  1.00  0.00     0.040 A 
HETATM   24 CL   UNL     1      26.404  48.260  49.947  1.00  0.00    -0.084 Cl
ENDBRANCH  16  18
ENDBRANCH  12  15
ENDBRANCH   1  11
BRANCH   8  25
HETATM   25  C   UNL     1      28.873  46.010  56.534  1.00  0.00     0.270 C 
HETATM   26  N   UNL     1      28.208  46.970  55.822  1.00  0.00    -0.365 N 
HETATM   27  H   UNL     1      28.146  46.873  54.816  1.00  0.00     0.159 HD
HETATM   28  H   UNL     1      27.801  47.756  56.304  1.00  0.00     0.159 HD
HETATM   29  O   UNL     1      28.979  46.087  57.753  1.00  0.00    -0.266 OA
ENDBRANCH   8  25
TORSDOF 4
ENDMDL
