MODEL 1
REMARK VINA RESULT:     -10.0      0.000      0.000
REMARK  5 active torsions:
REMARK  status: ('A' for Active; 'I' for Inactive)
REMARK    1  A    between atoms: N_3  and  C_4 
REMARK    2  A    between atoms: C_6  and  C_7 
REMARK    3  A    between atoms: C_15  and  C_16 
REMARK       I    between atoms: C_16  and  N_17 
REMARK    4  A    between atoms: N_17  and  N_18 
REMARK       I    between atoms: N_18  and  C_19 
REMARK    5  A    between atoms: C_19  and  C_20 
ROOT
HETATM    1  C   UNL     1      27.934  41.266  53.555  1.00  0.00     0.070 C 
HETATM    2  C   UNL     1      27.587  42.575  52.883  1.00  0.00     0.036 C 
HETATM    3  N   UNL     1      28.045  43.793  53.409  1.00  0.00    -0.238 N 
HETATM    4  N   UNL     1      27.518  45.009  53.034  1.00  0.00    -0.158 NA
HETATM    5  C   UNL     1      26.700  45.057  52.021  1.00  0.00     0.196 C 
HETATM    6  C   UNL     1      26.349  43.812  51.255  1.00  0.00     0.209 C 
HETATM    7  O   UNL     1      25.735  43.889  50.202  1.00  0.00    -0.286 OA
HETATM    8  C   UNL     1      26.757  42.529  51.829  1.00  0.00     0.084 C 
ENDROOT
BRANCH   5   9
HETATM    9  C   UNL     1      26.122  46.418  51.664  1.00  0.00     0.294 C 
HETATM   10  N   UNL     1      26.035  46.700  50.315  1.00  0.00    -0.261 N 
HETATM   11  H   UNL     1      26.114  45.967  49.601  1.00  0.00     0.190 HD
HETATM   12  O   UNL     1      25.760  47.195  52.542  1.00  0.00    -0.264 OA
BRANCH  10  13
HETATM   13  N   UNL     1      25.380  47.881  49.938  1.00  0.00    -0.262 N 
HETATM   14  C   UNL     1      24.092  47.812  49.449  1.00  0.00     0.286 C 
HETATM   15  O   UNL     1      23.529  46.737  49.249  1.00  0.00    -0.264 OA
HETATM   16  H   UNL     1      25.816  48.756  50.220  1.00  0.00     0.190 HD
BRANCH  14  17
HETATM   17  C   UNL     1      23.453  49.085  49.196  1.00  0.00     0.102 A 
HETATM   18  N   UNL     1      22.264  49.423  49.810  1.00  0.00    -0.361 N 
HETATM   19  H   UNL     1      21.776  48.818  50.459  1.00  0.00     0.165 HD
HETATM   20  C   UNL     1      21.860  50.668  49.411  1.00  0.00     0.088 A 
HETATM   21  C   UNL     1      22.793  51.150  48.526  1.00  0.00     0.019 A 
HETATM   22  C   UNL     1      23.796  50.158  48.388  1.00  0.00     0.036 A 
ENDBRANCH  14  17
ENDBRANCH  10  13
ENDBRANCH   5   9
BRANCH   3  23
HETATM   23  C   UNL     1      29.049  43.920  54.421  1.00  0.00     0.059 A 
HETATM   24  C   UNL     1      28.847  44.788  55.512  1.00  0.00     0.047 A 
HETATM   25  C   UNL     1      29.819  44.956  56.513  1.00  0.00     0.050 A 
HETATM   26  C   UNL     1      31.017  44.237  56.420  1.00  0.00     0.016 A 
HETATM   27  C   UNL     1      31.249  43.393  55.336  1.00  0.00     0.003 A 
HETATM   28  C   UNL     1      30.277  43.246  54.342  1.00  0.00     0.031 A 
BRANCH  25  29
HETATM   29  C   UNL     1      29.571  45.873  57.685  1.00  0.00     0.417 C 
HETATM   30  F   UNL     1      28.494  46.690  57.528  1.00  0.00    -0.166 F 
HETATM   31  F   UNL     1      29.352  45.183  58.840  1.00  0.00    -0.166 F 
HETATM   32  F   UNL     1      30.628  46.695  57.940  1.00  0.00    -0.166 F 
ENDBRANCH  25  29
ENDBRANCH   3  23
TORSDOF 5
ENDMDL
MODEL 2
REMARK VINA RESULT:      -9.9      4.518      9.516
REMARK  5 active torsions:
REMARK  status: ('A' for Active; 'I' for Inactive)
REMARK    1  A    between atoms: N_3  and  C_4 
REMARK    2  A    between atoms: C_6  and  C_7 
REMARK    3  A    between atoms: C_15  and  C_16 
REMARK       I    between atoms: C_16  and  N_17 
REMARK    4  A    between atoms: N_17  and  N_18 
REMARK       I    between atoms: N_18  and  C_19 
REMARK    5  A    between atoms: C_19  and  C_20 
ROOT
HETATM    1  C   UNL     1      22.449  46.222  47.700  1.00  0.00     0.070 C 
HETATM    2  C   UNL     1      23.158  46.222  49.035  1.00  0.00     0.036 C 
HETATM    3  N   UNL     1      23.666  47.413  49.576  1.00  0.00    -0.238 N 
HETATM    4  N   UNL     1      24.574  47.432  50.611  1.00  0.00    -0.158 NA
HETATM    5  C   UNL     1      24.832  46.323  51.244  1.00  0.00     0.196 C 
HETATM    6  C   UNL     1      24.139  45.043  50.869  1.00  0.00     0.209 C 
HETATM    7  O   UNL     1      24.243  44.054  51.579  1.00  0.00    -0.286 OA
HETATM    8  C   UNL     1      23.360  45.035  49.630  1.00  0.00     0.084 C 
ENDROOT
BRANCH   5   9
HETATM    9  C   UNL     1      25.863  46.388  52.361  1.00  0.00     0.294 C 
HETATM   10  N   UNL     1      26.577  45.228  52.589  1.00  0.00    -0.261 N 
HETATM   11  H   UNL     1      26.598  44.460  51.908  1.00  0.00     0.190 HD
HETATM   12  O   UNL     1      26.031  47.423  52.998  1.00  0.00    -0.264 OA
BRANCH  10  13
HETATM   13  N   UNL     1      27.632  45.284  53.512  1.00  0.00    -0.262 N 
HETATM   14  C   UNL     1      28.020  44.133  54.164  1.00  0.00     0.286 C 
HETATM   15  O   UNL     1      27.411  43.072  54.030  1.00  0.00    -0.264 OA
HETATM   16  H   UNL     1      28.190  46.135  53.517  1.00  0.00     0.190 HD
BRANCH  14  17
HETATM   17  C   UNL     1      29.189  44.259  55.006  1.00  0.00     0.102 A 
HETATM   18  N   UNL     1      29.324  45.309  55.891  1.00  0.00    -0.361 N 
HETATM   19  H   UNL     1      28.631  46.041  56.003  1.00  0.00     0.165 HD
HETATM   20  C   UNL     1      30.508  45.212  56.569  1.00  0.00     0.088 A 
HETATM   21  C   UNL     1      31.156  44.085  56.124  1.00  0.00     0.019 A 
HETATM   22  C   UNL     1      30.330  43.483  55.142  1.00  0.00     0.036 A 
ENDBRANCH  14  17
ENDBRANCH  10  13
ENDBRANCH   5   9
BRANCH   3  23
HETATM   23  C   UNL     1      23.361  48.726  49.092  1.00  0.00     0.059 A 
HETATM   24  C   UNL     1      22.092  49.288  49.327  1.00  0.00     0.047 A 
HETATM   25  C   UNL     1      21.748  50.564  48.850  1.00  0.00     0.050 A 
HETATM   26  C   UNL     1      22.698  51.294  48.123  1.00  0.00     0.016 A 
HETATM   27  C   UNL     1      23.951  50.745  47.856  1.00  0.00     0.003 A 
HETATM   28  C   UNL     1      24.273  49.470  48.328  1.00  0.00     0.031 A 
BRANCH  25  29
HETATM   29  C   UNL     1      20.390  51.157  49.134  1.00  0.00     0.417 C 
HETATM   30  F   UNL     1      19.352  50.356  48.772  1.00  0.00    -0.166 F 
HETATM   31  F   UNL     1      20.213  51.424  50.459  1.00  0.00    -0.166 F 
HETATM   32  F   UNL     1      20.189  52.341  48.488  1.00  0.00    -0.166 F 
ENDBRANCH  25  29
ENDBRANCH   3  23
TORSDOF 5
ENDMDL
MODEL 3
REMARK VINA RESULT:      -9.9      1.451      1.810
REMARK  5 active torsions:
REMARK  status: ('A' for Active; 'I' for Inactive)
REMARK    1  A    between atoms: N_3  and  C_4 
REMARK    2  A    between atoms: C_6  and  C_7 
REMARK    3  A    between atoms: C_15  and  C_16 
REMARK       I    between atoms: C_16  and  N_17 
REMARK    4  A    between atoms: N_17  and  N_18 
REMARK       I    between atoms: N_18  and  C_19 
REMARK    5  A    between atoms: C_19  and  C_20 
ROOT
HETATM    1  C   UNL     1      27.258  41.346  51.834  1.00  0.00     0.070 C 
HETATM    2  C   UNL     1      26.869  42.725  51.351  1.00  0.00     0.036 C 
HETATM    3  N   UNL     1      27.265  43.869  52.061  1.00  0.00    -0.238 N 
HETATM    4  N   UNL     1      26.695  45.106  51.855  1.00  0.00    -0.158 NA
HETATM    5  C   UNL     1      25.895  45.271  50.840  1.00  0.00     0.196 C 
HETATM    6  C   UNL     1      25.611  44.139  49.892  1.00  0.00     0.209 C 
HETATM    7  O   UNL     1      25.014  44.346  48.846  1.00  0.00    -0.286 OA
HETATM    8  C   UNL     1      26.062  42.802  50.282  1.00  0.00     0.084 C 
ENDROOT
BRANCH   5   9
HETATM    9  C   UNL     1      25.267  46.646  50.671  1.00  0.00     0.294 C 
HETATM   10  N   UNL     1      24.034  46.672  50.049  1.00  0.00    -0.261 N 
HETATM   11  H   UNL     1      23.466  45.825  49.934  1.00  0.00     0.190 HD
HETATM   12  O   UNL     1      25.841  47.651  51.077  1.00  0.00    -0.264 OA
BRANCH  10  13
HETATM   13  N   UNL     1      23.356  47.899  49.999  1.00  0.00    -0.262 N 
HETATM   14  C   UNL     1      22.672  48.245  48.853  1.00  0.00     0.286 C 
HETATM   15  O   UNL     1      22.710  47.552  47.838  1.00  0.00    -0.264 OA
HETATM   16  H   UNL     1      23.241  48.394  50.880  1.00  0.00     0.190 HD
BRANCH  14  17
HETATM   17  C   UNL     1      21.907  49.470  48.931  1.00  0.00     0.102 A 
HETATM   18  N   UNL     1      21.111  49.748  50.024  1.00  0.00    -0.361 N 
HETATM   19  H   UNL     1      21.014  49.128  50.820  1.00  0.00     0.165 HD
HETATM   20  C   UNL     1      20.488  50.956  49.865  1.00  0.00     0.088 A 
HETATM   21  C   UNL     1      20.881  51.476  48.654  1.00  0.00     0.019 A 
HETATM   22  C   UNL     1      21.772  50.544  48.065  1.00  0.00     0.036 A 
ENDBRANCH  14  17
ENDBRANCH  10  13
ENDBRANCH   5   9
BRANCH   3  23
HETATM   23  C   UNL     1      28.244  43.886  53.105  1.00  0.00     0.059 A 
HETATM   24  C   UNL     1      28.177  44.858  54.122  1.00  0.00     0.047 A 
HETATM   25  C   UNL     1      29.131  44.920  55.151  1.00  0.00     0.050 A 
HETATM   26  C   UNL     1      30.174  43.985  55.164  1.00  0.00     0.016 A 
HETATM   27  C   UNL     1      30.275  43.030  54.153  1.00  0.00     0.003 A 
HETATM   28  C   UNL     1      29.324  42.990  53.130  1.00  0.00     0.031 A 
BRANCH  25  29
HETATM   29  C   UNL     1      29.026  45.955  56.243  1.00  0.00     0.417 C 
HETATM   30  F   UNL     1      30.224  46.326  56.770  1.00  0.00    -0.166 F 
HETATM   31  F   UNL     1      28.437  47.104  55.807  1.00  0.00    -0.166 F 
HETATM   32  F   UNL     1      28.272  45.531  57.297  1.00  0.00    -0.166 F 
ENDBRANCH  25  29
ENDBRANCH   3  23
TORSDOF 5
ENDMDL
MODEL 4
REMARK VINA RESULT:      -9.8      1.739      2.278
REMARK  5 active torsions:
REMARK  status: ('A' for Active; 'I' for Inactive)
REMARK    1  A    between atoms: N_3  and  C_4 
REMARK    2  A    between atoms: C_6  and  C_7 
REMARK    3  A    between atoms: C_15  and  C_16 
REMARK       I    between atoms: C_16  and  N_17 
REMARK    4  A    between atoms: N_17  and  N_18 
REMARK       I    between atoms: N_18  and  C_19 
REMARK    5  A    between atoms: C_19  and  C_20 
ROOT
HETATM    1  C   UNL     1      28.539  41.262  53.732  1.00  0.00     0.070 C 
HETATM    2  C   UNL     1      28.236  42.255  52.633  1.00  0.00     0.036 C 
HETATM    3  N   UNL     1      28.251  43.634  52.890  1.00  0.00    -0.238 N 
HETATM    4  N   UNL     1      27.692  44.556  52.033  1.00  0.00    -0.158 NA
HETATM    5  C   UNL     1      27.303  44.166  50.853  1.00  0.00     0.196 C 
HETATM    6  C   UNL     1      27.477  42.738  50.418  1.00  0.00     0.209 C 
HETATM    7  O   UNL     1      27.284  42.419  49.254  1.00  0.00    -0.286 OA
HETATM    8  C   UNL     1      27.867  41.764  51.439  1.00  0.00     0.084 C 
ENDROOT
BRANCH   5   9
HETATM    9  C   UNL     1      26.665  45.215  49.954  1.00  0.00     0.294 C 
HETATM   10  N   UNL     1      25.292  45.330  50.045  1.00  0.00    -0.261 N 
HETATM   11  H   UNL     1      24.763  44.927  50.827  1.00  0.00     0.190 HD
HETATM   12  O   UNL     1      27.354  45.903  49.208  1.00  0.00    -0.264 OA
BRANCH  10  13
HETATM   13  N   UNL     1      24.678  46.376  49.340  1.00  0.00    -0.262 N 
HETATM   14  C   UNL     1      24.484  47.589  49.968  1.00  0.00     0.286 C 
HETATM   15  O   UNL     1      24.750  47.756  51.157  1.00  0.00    -0.264 OA
HETATM   16  H   UNL     1      24.577  46.254  48.336  1.00  0.00     0.190 HD
BRANCH  14  17
HETATM   17  C   UNL     1      23.953  48.644  49.133  1.00  0.00     0.102 A 
HETATM   18  N   UNL     1      22.634  48.641  48.728  1.00  0.00    -0.361 N 
HETATM   19  H   UNL     1      21.970  47.918  48.982  1.00  0.00     0.165 HD
HETATM   20  C   UNL     1      22.373  49.734  47.948  1.00  0.00     0.088 A 
HETATM   21  C   UNL     1      23.534  50.462  47.840  1.00  0.00     0.019 A 
HETATM   22  C   UNL     1      24.529  49.779  48.584  1.00  0.00     0.036 A 
ENDBRANCH  14  17
ENDBRANCH  10  13
ENDBRANCH   5   9
BRANCH   3  23
HETATM   23  C   UNL     1      28.781  44.239  54.074  1.00  0.00     0.059 A 
HETATM   24  C   UNL     1      29.772  43.576  54.824  1.00  0.00     0.047 A 
HETATM   25  C   UNL     1      30.301  44.128  56.003  1.00  0.00     0.050 A 
HETATM   26  C   UNL     1      29.827  45.372  56.439  1.00  0.00     0.016 A 
HETATM   27  C   UNL     1      28.828  46.033  55.728  1.00  0.00     0.003 A 
HETATM   28  C   UNL     1      28.304  45.465  54.563  1.00  0.00     0.031 A 
BRANCH  25  29
HETATM   29  C   UNL     1      31.380  43.412  56.776  1.00  0.00     0.417 C 
HETATM   30  F   UNL     1      30.960  42.265  57.376  1.00  0.00    -0.166 F 
HETATM   31  F   UNL     1      32.430  43.056  55.984  1.00  0.00    -0.166 F 
HETATM   32  F   UNL     1      31.910  44.179  57.771  1.00  0.00    -0.166 F 
ENDBRANCH  25  29
ENDBRANCH   3  23
TORSDOF 5
ENDMDL
MODEL 5
REMARK VINA RESULT:      -9.4      2.347      3.260
REMARK  5 active torsions:
REMARK  status: ('A' for Active; 'I' for Inactive)
REMARK    1  A    between atoms: N_3  and  C_4 
REMARK    2  A    between atoms: C_6  and  C_7 
REMARK    3  A    between atoms: C_15  and  C_16 
REMARK       I    between atoms: C_16  and  N_17 
REMARK    4  A    between atoms: N_17  and  N_18 
REMARK       I    between atoms: N_18  and  C_19 
REMARK    5  A    between atoms: C_19  and  C_20 
ROOT
HETATM    1  C   UNL     1      26.417  42.383  51.933  1.00  0.00     0.070 C 
HETATM    2  C   UNL     1      26.054  43.697  51.280  1.00  0.00     0.036 C 
HETATM    3  N   UNL     1      26.316  44.914  51.928  1.00  0.00    -0.238 N 
HETATM    4  N   UNL     1      25.741  46.103  51.537  1.00  0.00    -0.158 NA
HETATM    5  C   UNL     1      25.081  46.146  50.415  1.00  0.00     0.196 C 
HETATM    6  C   UNL     1      24.962  44.926  49.544  1.00  0.00     0.209 C 
HETATM    7  O   UNL     1      24.506  45.016  48.415  1.00  0.00    -0.286 OA
HETATM    8  C   UNL     1      25.397  43.648  50.111  1.00  0.00     0.084 C 
ENDROOT
BRANCH   5   9
HETATM    9  C   UNL     1      24.439  47.473  50.040  1.00  0.00     0.294 C 
HETATM   10  N   UNL     1      23.077  47.440  49.811  1.00  0.00    -0.261 N 
HETATM   11  H   UNL     1      22.495  46.649  50.110  1.00  0.00     0.190 HD
HETATM   12  O   UNL     1      25.114  48.494  49.959  1.00  0.00    -0.264 OA
BRANCH  10  13
HETATM   13  N   UNL     1      22.423  48.663  49.602  1.00  0.00    -0.262 N 
HETATM   14  C   UNL     1      21.119  48.661  49.153  1.00  0.00     0.286 C 
HETATM   15  O   UNL     1      20.538  47.622  48.844  1.00  0.00    -0.264 OA
HETATM   16  H   UNL     1      22.877  49.494  49.973  1.00  0.00     0.190 HD
BRANCH  14  17
HETATM   17  C   UNL     1      20.485  49.959  49.078  1.00  0.00     0.102 A 
HETATM   18  N   UNL     1      19.646  50.405  50.079  1.00  0.00    -0.361 N 
HETATM   19  H   UNL     1      19.426  49.866  50.909  1.00  0.00     0.165 HD
HETATM   20  C   UNL     1      19.170  51.653  49.781  1.00  0.00     0.088 A 
HETATM   21  C   UNL     1      19.702  52.028  48.571  1.00  0.00     0.019 A 
HETATM   22  C   UNL     1      20.529  50.966  48.126  1.00  0.00     0.036 A 
ENDBRANCH  14  17
ENDBRANCH  10  13
ENDBRANCH   5   9
BRANCH   3  23
HETATM   23  C   UNL     1      27.144  45.062  53.086  1.00  0.00     0.059 A 
HETATM   24  C   UNL     1      28.227  44.187  53.297  1.00  0.00     0.047 A 
HETATM   25  C   UNL     1      29.049  44.287  54.433  1.00  0.00     0.050 A 
HETATM   26  C   UNL     1      28.781  45.288  55.376  1.00  0.00     0.016 A 
HETATM   27  C   UNL     1      27.698  46.148  55.200  1.00  0.00     0.003 A 
HETATM   28  C   UNL     1      26.883  46.027  54.071  1.00  0.00     0.031 A 
BRANCH  25  29
HETATM   29  C   UNL     1      30.218  43.354  54.626  1.00  0.00     0.417 C 
HETATM   30  F   UNL     1      31.282  43.925  55.252  1.00  0.00    -0.166 F 
HETATM   31  F   UNL     1      29.887  42.263  55.373  1.00  0.00    -0.166 F 
HETATM   32  F   UNL     1      30.698  42.863  53.448  1.00  0.00    -0.166 F 
ENDBRANCH  25  29
ENDBRANCH   3  23
TORSDOF 5
ENDMDL
MODEL 6
REMARK VINA RESULT:      -9.3      3.495      6.070
REMARK  5 active torsions:
REMARK  status: ('A' for Active; 'I' for Inactive)
REMARK    1  A    between atoms: N_3  and  C_4 
REMARK    2  A    between atoms: C_6  and  C_7 
REMARK    3  A    between atoms: C_15  and  C_16 
REMARK       I    between atoms: C_16  and  N_17 
REMARK    4  A    between atoms: N_17  and  N_18 
REMARK       I    between atoms: N_18  and  C_19 
REMARK    5  A    between atoms: C_19  and  C_20 
ROOT
HETATM    1  C   UNL     1      27.643  48.299  49.079  1.00  0.00     0.070 C 
HETATM    2  C   UNL     1      26.181  48.666  49.198  1.00  0.00     0.036 C 
HETATM    3  N   UNL     1      25.330  47.945  50.049  1.00  0.00    -0.238 N 
HETATM    4  N   UNL     1      23.957  48.025  49.969  1.00  0.00    -0.158 NA
HETATM    5  C   UNL     1      23.422  48.938  49.211  1.00  0.00     0.196 C 
HETATM    6  C   UNL     1      24.281  49.907  48.448  1.00  0.00     0.209 C 
HETATM    7  O   UNL     1      23.778  50.871  47.891  1.00  0.00    -0.286 OA
HETATM    8  C   UNL     1      25.719  49.637  48.395  1.00  0.00     0.084 C 
ENDROOT
BRANCH   5   9
HETATM    9  C   UNL     1      21.902  48.968  49.133  1.00  0.00     0.294 C 
HETATM   10  N   UNL     1      21.276  49.889  49.949  1.00  0.00    -0.261 N 
HETATM   11  H   UNL     1      21.787  50.664  50.387  1.00  0.00     0.190 HD
HETATM   12  O   UNL     1      21.299  48.211  48.379  1.00  0.00    -0.264 OA
BRANCH  10  13
HETATM   13  N   UNL     1      19.889  50.048  49.806  1.00  0.00    -0.262 N 
HETATM   14  C   UNL     1      19.404  51.129  49.102  1.00  0.00     0.286 C 
HETATM   15  O   UNL     1      20.145  52.010  48.669  1.00  0.00    -0.264 OA
HETATM   16  H   UNL     1      19.309  49.254  50.067  1.00  0.00     0.190 HD
BRANCH  14  17
HETATM   17  C   UNL     1      17.971  51.150  48.905  1.00  0.00     0.102 A 
HETATM   18  N   UNL     1      17.346  50.226  48.092  1.00  0.00    -0.361 N 
HETATM   19  H   UNL     1      17.838  49.493  47.595  1.00  0.00     0.165 HD
HETATM   20  C   UNL     1      15.997  50.452  48.063  1.00  0.00     0.088 A 
HETATM   21  C   UNL     1      15.735  51.537  48.864  1.00  0.00     0.019 A 
HETATM   22  C   UNL     1      16.973  51.979  49.395  1.00  0.00     0.036 A 
ENDBRANCH  14  17
ENDBRANCH  10  13
ENDBRANCH   5   9
BRANCH   3  23
HETATM   23  C   UNL     1      25.767  47.012  51.044  1.00  0.00     0.059 A 
HETATM   24  C   UNL     1      26.201  47.472  52.302  1.00  0.00     0.047 A 
HETATM   25  C   UNL     1      26.657  46.589  53.296  1.00  0.00     0.050 A 
HETATM   26  C   UNL     1      26.676  45.215  53.023  1.00  0.00     0.016 A 
HETATM   27  C   UNL     1      26.276  44.741  51.775  1.00  0.00     0.003 A 
HETATM   28  C   UNL     1      25.836  45.634  50.793  1.00  0.00     0.031 A 
BRANCH  25  29
HETATM   29  C   UNL     1      27.094  47.102  54.645  1.00  0.00     0.417 C 
HETATM   30  F   UNL     1      27.395  46.120  55.537  1.00  0.00    -0.166 F 
HETATM   31  F   UNL     1      28.206  47.885  54.561  1.00  0.00    -0.166 F 
HETATM   32  F   UNL     1      26.143  47.873  55.246  1.00  0.00    -0.166 F 
ENDBRANCH  25  29
ENDBRANCH   3  23
TORSDOF 5
ENDMDL
MODEL 7
REMARK VINA RESULT:      -9.2      4.635      9.659
REMARK  5 active torsions:
REMARK  status: ('A' for Active; 'I' for Inactive)
REMARK    1  A    between atoms: N_3  and  C_4 
REMARK    2  A    between atoms: C_6  and  C_7 
REMARK    3  A    between atoms: C_15  and  C_16 
REMARK       I    between atoms: C_16  and  N_17 
REMARK    4  A    between atoms: N_17  and  N_18 
REMARK       I    between atoms: N_18  and  C_19 
REMARK    5  A    between atoms: C_19  and  C_20 
ROOT
HETATM    1  C   UNL     1      22.025  46.532  47.289  1.00  0.00     0.070 C 
HETATM    2  C   UNL     1      22.826  46.504  48.570  1.00  0.00     0.036 C 
HETATM    3  N   UNL     1      23.102  47.690  49.268  1.00  0.00    -0.238 N 
HETATM    4  N   UNL     1      24.067  47.769  50.247  1.00  0.00    -0.158 NA
HETATM    5  C   UNL     1      24.616  46.670  50.682  1.00  0.00     0.196 C 
HETATM    6  C   UNL     1      24.193  45.332  50.143  1.00  0.00     0.209 C 
HETATM    7  O   UNL     1      24.572  44.302  50.680  1.00  0.00    -0.286 OA
HETATM    8  C   UNL     1      23.333  45.323  48.958  1.00  0.00     0.084 C 
ENDROOT
BRANCH   5   9
HETATM    9  C   UNL     1      25.697  46.811  51.743  1.00  0.00     0.294 C 
HETATM   10  N   UNL     1      25.687  45.857  52.742  1.00  0.00    -0.261 N 
HETATM   11  H   UNL     1      25.161  44.980  52.651  1.00  0.00     0.190 HD
HETATM   12  O   UNL     1      26.515  47.722  51.686  1.00  0.00    -0.264 OA
BRANCH  10  13
HETATM   13  N   UNL     1      26.748  45.865  53.660  1.00  0.00    -0.262 N 
HETATM   14  C   UNL     1      27.509  44.726  53.821  1.00  0.00     0.286 C 
HETATM   15  O   UNL     1      27.232  43.672  53.250  1.00  0.00    -0.264 OA
HETATM   16  H   UNL     1      27.028  46.771  54.027  1.00  0.00     0.190 HD
BRANCH  14  17
HETATM   17  C   UNL     1      28.651  44.859  54.698  1.00  0.00     0.102 A 
HETATM   18  N   UNL     1      29.557  43.830  54.855  1.00  0.00    -0.361 N 
HETATM   19  H   UNL     1      29.482  42.939  54.378  1.00  0.00     0.165 HD
HETATM   20  C   UNL     1      30.542  44.192  55.733  1.00  0.00     0.088 A 
HETATM   21  C   UNL     1      30.278  45.473  56.157  1.00  0.00     0.019 A 
HETATM   22  C   UNL     1      29.090  45.895  55.509  1.00  0.00     0.036 A 
ENDBRANCH  14  17
ENDBRANCH  10  13
ENDBRANCH   5   9
BRANCH   3  23
HETATM   23  C   UNL     1      22.476  48.952  49.014  1.00  0.00     0.059 A 
HETATM   24  C   UNL     1      21.185  49.214  49.515  1.00  0.00     0.047 A 
HETATM   25  C   UNL     1      20.530  50.432  49.269  1.00  0.00     0.050 A 
HETATM   26  C   UNL     1      21.182  51.410  48.507  1.00  0.00     0.016 A 
HETATM   27  C   UNL     1      22.448  51.162  47.980  1.00  0.00     0.003 A 
HETATM   28  C   UNL     1      23.082  49.940  48.224  1.00  0.00     0.031 A 
BRANCH  25  29
HETATM   29  C   UNL     1      19.158  50.700  49.836  1.00  0.00     0.417 C 
HETATM   30  F   UNL     1      18.142  50.428  48.972  1.00  0.00    -0.166 F 
HETATM   31  F   UNL     1      18.908  49.958  50.951  1.00  0.00    -0.166 F 
HETATM   32  F   UNL     1      18.990  52.000  50.211  1.00  0.00    -0.166 F 
ENDBRANCH  25  29
ENDBRANCH   3  23
TORSDOF 5
ENDMDL
MODEL 8
REMARK VINA RESULT:      -9.0     11.433     14.649
REMARK  5 active torsions:
REMARK  status: ('A' for Active; 'I' for Inactive)
REMARK    1  A    between atoms: N_3  and  C_4 
REMARK    2  A    between atoms: C_6  and  C_7 
REMARK    3  A    between atoms: C_15  and  C_16 
REMARK       I    between atoms: C_16  and  N_17 
REMARK    4  A    between atoms: N_17  and  N_18 
REMARK       I    between atoms: N_18  and  C_19 
REMARK    5  A    between atoms: C_19  and  C_20 
ROOT
HETATM    1  C   UNL     1      15.824  51.826  46.506  1.00  0.00     0.070 C 
HETATM    2  C   UNL     1      15.539  52.721  47.690  1.00  0.00     0.036 C 
HETATM    3  N   UNL     1      16.292  52.609  48.869  1.00  0.00    -0.238 N 
HETATM    4  N   UNL     1      15.889  53.164  50.063  1.00  0.00    -0.158 NA
HETATM    5  C   UNL     1      14.876  53.982  50.069  1.00  0.00     0.196 C 
HETATM    6  C   UNL     1      14.164  54.336  48.793  1.00  0.00     0.209 C 
HETATM    7  O   UNL     1      13.341  55.238  48.775  1.00  0.00    -0.286 OA
HETATM    8  C   UNL     1      14.489  53.552  47.600  1.00  0.00     0.084 C 
ENDROOT
BRANCH   5   9
HETATM    9  C   UNL     1      14.451  54.546  51.417  1.00  0.00     0.294 C 
HETATM   10  N   UNL     1      15.457  55.106  52.179  1.00  0.00    -0.261 N 
HETATM   11  H   UNL     1      16.369  55.354  51.777  1.00  0.00     0.190 HD
HETATM   12  O   UNL     1      13.279  54.497  51.775  1.00  0.00    -0.264 OA
BRANCH  10  13
HETATM   13  N   UNL     1      15.089  55.763  53.362  1.00  0.00    -0.262 N 
HETATM   14  C   UNL     1      15.166  57.138  53.423  1.00  0.00     0.286 C 
HETATM   15  O   UNL     1      15.634  57.805  52.501  1.00  0.00    -0.264 OA
HETATM   16  H   UNL     1      14.599  55.207  54.060  1.00  0.00     0.190 HD
BRANCH  14  17
HETATM   17  C   UNL     1      14.657  57.737  54.637  1.00  0.00     0.102 A 
HETATM   18  N   UNL     1      13.932  56.999  55.550  1.00  0.00    -0.361 N 
HETATM   19  H   UNL     1      13.716  56.016  55.432  1.00  0.00     0.165 HD
HETATM   20  C   UNL     1      13.559  57.782  56.608  1.00  0.00     0.088 A 
HETATM   21  C   UNL     1      14.045  59.049  56.385  1.00  0.00     0.019 A 
HETATM   22  C   UNL     1      14.735  59.024  55.147  1.00  0.00     0.036 A 
ENDBRANCH  14  17
ENDBRANCH  10  13
ENDBRANCH   5   9
BRANCH   3  23
HETATM   23  C   UNL     1      17.512  51.870  48.992  1.00  0.00     0.059 A 
HETATM   24  C   UNL     1      17.493  50.550  49.484  1.00  0.00     0.047 A 
HETATM   25  C   UNL     1      18.672  49.802  49.639  1.00  0.00     0.050 A 
HETATM   26  C   UNL     1      19.896  50.388  49.293  1.00  0.00     0.016 A 
HETATM   27  C   UNL     1      19.941  51.701  48.831  1.00  0.00     0.003 A 
HETATM   28  C   UNL     1      18.760  52.437  48.692  1.00  0.00     0.031 A 
BRANCH  25  29
HETATM   29  C   UNL     1      18.625  48.381  50.145  1.00  0.00     0.417 C 
HETATM   30  F   UNL     1      17.506  47.701  49.775  1.00  0.00    -0.166 F 
HETATM   31  F   UNL     1      19.678  47.642  49.696  1.00  0.00    -0.166 F 
HETATM   32  F   UNL     1      18.673  48.307  51.505  1.00  0.00    -0.166 F 
ENDBRANCH  25  29
ENDBRANCH   3  23
TORSDOF 5
ENDMDL
MODEL 9
REMARK VINA RESULT:      -8.9      5.119     10.154
REMARK  5 active torsions:
REMARK  status: ('A' for Active; 'I' for Inactive)
REMARK    1  A    between atoms: N_3  and  C_4 
REMARK    2  A    between atoms: C_6  and  C_7 
REMARK    3  A    between atoms: C_15  and  C_16 
REMARK       I    between atoms: C_16  and  N_17 
REMARK    4  A    between atoms: N_17  and  N_18 
REMARK       I    between atoms: N_18  and  C_19 
REMARK    5  A    between atoms: C_19  and  C_20 
ROOT
HETATM    1  C   UNL     1      23.569  51.225  47.698  1.00  0.00     0.070 C 
HETATM    2  C   UNL     1      24.133  50.006  48.391  1.00  0.00     0.036 C 
HETATM    3  N   UNL     1      23.293  49.131  49.097  1.00  0.00    -0.238 N 
HETATM    4  N   UNL     1      23.772  48.199  49.990  1.00  0.00    -0.158 NA
HETATM    5  C   UNL     1      25.056  47.983  50.049  1.00  0.00     0.196 C 
HETATM    6  C   UNL     1      26.003  48.721  49.144  1.00  0.00     0.209 C 
HETATM    7  O   UNL     1      27.175  48.385  49.072  1.00  0.00    -0.286 OA
HETATM    8  C   UNL     1      25.466  49.849  48.381  1.00  0.00     0.084 C 
ENDROOT
BRANCH   5   9
HETATM    9  C   UNL     1      25.539  46.966  51.071  1.00  0.00     0.294 C 
HETATM   10  N   UNL     1      25.995  45.767  50.558  1.00  0.00    -0.261 N 
HETATM   11  H   UNL     1      26.229  45.655  49.564  1.00  0.00     0.190 HD
HETATM   12  O   UNL     1      25.518  47.224  52.270  1.00  0.00    -0.264 OA
BRANCH  10  13
HETATM   13  N   UNL     1      26.580  44.857  51.451  1.00  0.00    -0.262 N 
HETATM   14  C   UNL     1      27.267  43.770  50.953  1.00  0.00     0.286 C 
HETATM   15  O   UNL     1      27.309  43.523  49.748  1.00  0.00    -0.264 OA
HETATM   16  H   UNL     1      26.633  45.143  52.425  1.00  0.00     0.190 HD
BRANCH  14  17
HETATM   17  C   UNL     1      27.935  42.951  51.939  1.00  0.00     0.102 A 
HETATM   18  N   UNL     1      27.325  41.835  52.475  1.00  0.00    -0.361 N 
HETATM   19  H   UNL     1      26.394  41.527  52.219  1.00  0.00     0.165 HD
HETATM   20  C   UNL     1      28.150  41.231  53.384  1.00  0.00     0.088 A 
HETATM   21  C   UNL     1      29.314  41.959  53.445  1.00  0.00     0.019 A 
HETATM   22  C   UNL     1      29.183  43.041  52.538  1.00  0.00     0.036 A 
ENDBRANCH  14  17
ENDBRANCH  10  13
ENDBRANCH   5   9
BRANCH   3  23
HETATM   23  C   UNL     1      21.863  49.137  49.027  1.00  0.00     0.059 A 
HETATM   24  C   UNL     1      21.155  50.350  49.135  1.00  0.00     0.047 A 
HETATM   25  C   UNL     1      19.751  50.393  49.092  1.00  0.00     0.050 A 
HETATM   26  C   UNL     1      19.042  49.196  48.937  1.00  0.00     0.016 A 
HETATM   27  C   UNL     1      19.721  47.982  48.855  1.00  0.00     0.003 A 
HETATM   28  C   UNL     1      21.118  47.955  48.911  1.00  0.00     0.031 A 
BRANCH  25  29
HETATM   29  C   UNL     1      19.015  51.706  49.185  1.00  0.00     0.417 C 
HETATM   30  F   UNL     1      19.516  52.678  48.375  1.00  0.00    -0.166 F 
HETATM   31  F   UNL     1      17.699  51.582  48.851  1.00  0.00    -0.166 F 
HETATM   32  F   UNL     1      19.029  52.228  50.445  1.00  0.00    -0.166 F 
ENDBRANCH  25  29
ENDBRANCH   3  23
TORSDOF 5
ENDMDL
MODEL 10
REMARK VINA RESULT:      -8.9      4.244      6.680
REMARK  5 active torsions:
REMARK  status: ('A' for Active; 'I' for Inactive)
REMARK    1  A    between atoms: N_3  and  C_4 
REMARK    2  A    between atoms: C_6  and  C_7 
REMARK    3  A    between atoms: C_15  and  C_16 
REMARK       I    between atoms: C_16  and  N_17 
REMARK    4  A    between atoms: N_17  and  N_18 
REMARK       I    between atoms: N_18  and  C_19 
REMARK    5  A    between atoms: C_19  and  C_20 
ROOT
HETATM    1  C   UNL     1      27.896  48.476  49.218  1.00  0.00     0.070 C 
HETATM    2  C   UNL     1      26.407  48.724  49.138  1.00  0.00     0.036 C 
HETATM    3  N   UNL     1      25.505  47.896  49.824  1.00  0.00    -0.238 N 
HETATM    4  N   UNL     1      24.156  47.876  49.548  1.00  0.00    -0.158 NA
HETATM    5  C   UNL     1      23.660  48.787  48.760  1.00  0.00     0.196 C 
HETATM    6  C   UNL     1      24.537  49.858  48.173  1.00  0.00     0.209 C 
HETATM    7  O   UNL     1      24.041  50.810  47.590  1.00  0.00    -0.286 OA
HETATM    8  C   UNL     1      25.985  49.700  48.319  1.00  0.00     0.084 C 
ENDROOT
BRANCH   5   9
HETATM    9  C   UNL     1      22.170  48.706  48.462  1.00  0.00     0.294 C 
HETATM   10  N   UNL     1      21.331  49.148  49.466  1.00  0.00    -0.261 N 
HETATM   11  H   UNL     1      21.673  49.719  50.248  1.00  0.00     0.190 HD
HETATM   12  O   UNL     1      21.769  48.274  47.386  1.00  0.00    -0.264 OA
BRANCH  10  13
HETATM   13  N   UNL     1      19.960  49.224  49.182  1.00  0.00    -0.262 N 
HETATM   14  C   UNL     1      19.270  50.377  49.489  1.00  0.00     0.286 C 
HETATM   15  O   UNL     1      19.799  51.313  50.088  1.00  0.00    -0.264 OA
HETATM   16  H   UNL     1      19.576  48.494  48.586  1.00  0.00     0.190 HD
BRANCH  14  17
HETATM   17  C   UNL     1      17.890  50.411  49.056  1.00  0.00     0.102 A 
HETATM   18  N   UNL     1      17.070  51.478  49.362  1.00  0.00    -0.361 N 
HETATM   19  H   UNL     1      17.374  52.284  49.897  1.00  0.00     0.165 HD
HETATM   20  C   UNL     1      15.818  51.280  48.848  1.00  0.00     0.088 A 
HETATM   21  C   UNL     1      15.817  50.069  48.198  1.00  0.00     0.019 A 
HETATM   22  C   UNL     1      17.118  49.520  48.327  1.00  0.00     0.036 A 
ENDBRANCH  14  17
ENDBRANCH  10  13
ENDBRANCH   5   9
BRANCH   3  23
HETATM   23  C   UNL     1      25.872  46.946  50.831  1.00  0.00     0.059 A 
HETATM   24  C   UNL     1      26.025  45.586  50.497  1.00  0.00     0.047 A 
HETATM   25  C   UNL     1      26.363  44.621  51.461  1.00  0.00     0.050 A 
HETATM   26  C   UNL     1      26.553  45.028  52.788  1.00  0.00     0.016 A 
HETATM   27  C   UNL     1      26.380  46.364  53.145  1.00  0.00     0.003 A 
HETATM   28  C   UNL     1      26.033  47.309  52.176  1.00  0.00     0.031 A 
BRANCH  25  29
HETATM   29  C   UNL     1      26.545  43.174  51.076  1.00  0.00     0.417 C 
HETATM   30  F   UNL     1      27.404  42.984  50.038  1.00  0.00    -0.166 F 
HETATM   31  F   UNL     1      27.031  42.426  52.106  1.00  0.00    -0.166 F 
HETATM   32  F   UNL     1      25.376  42.578  50.705  1.00  0.00    -0.166 F 
ENDBRANCH  25  29
ENDBRANCH   3  23
TORSDOF 5
ENDMDL
