MODEL 1
REMARK VINA RESULT:      -8.9      0.000      0.000
REMARK  11 active torsions:
REMARK  status: ('A' for Active; 'I' for Inactive)
REMARK    1  A    between atoms: O_1  and  C_2 
REMARK    2  A    between atoms: C_2  and  C_3 
REMARK    3  A    between atoms: C_3  and  O_4 
REMARK    4  A    between atoms: O_4  and  C_5 
REMARK    5  A    between atoms: C_7  and  C_25 
REMARK    6  A    between atoms: C_10  and  N_11 
REMARK       I    between atoms: N_11  and  C_12 
REMARK       I    between atoms: C_12  and  N_14 
REMARK    7  A    between atoms: N_14  and  C_15 
REMARK    8  A    between atoms: N_14  and  C_18 
REMARK    9  A    between atoms: C_15  and  C_16 
REMARK   10  A    between atoms: C_16  and  O_17 
REMARK   11  A    between atoms: C_18  and  C_19 
ROOT
HETATM    1  C   UNL     1      28.813  43.794  53.324  1.00  0.00     0.096 A 
HETATM    2  C   UNL     1      29.622  43.791  54.468  1.00  0.00     0.051 A 
HETATM    3  C   UNL     1      29.525  44.818  55.419  1.00  0.00    -0.020 A 
HETATM    4  C   UNL     1      28.634  45.874  55.197  1.00  0.00     0.015 A 
HETATM    5  C   UNL     1      27.816  45.882  54.066  1.00  0.00     0.033 A 
HETATM    6  C   UNL     1      27.861  44.816  53.162  1.00  0.00     0.069 A 
ENDROOT
BRANCH   6   7
HETATM    7  N   UNL     1      26.923  44.821  52.101  1.00  0.00    -0.306 N 
HETATM    8  C   UNL     1      25.970  45.824  52.011  1.00  0.00     0.323 C 
HETATM    9  O   UNL     1      25.887  46.768  52.795  1.00  0.00    -0.247 OA
HETATM   10  N   UNL     1      25.163  45.740  50.878  1.00  0.00    -0.328 N 
HETATM   11  H   UNL     1      27.301  44.580  51.189  1.00  0.00     0.171 HD
BRANCH  10  12
HETATM   12  C   UNL     1      25.056  44.545  50.031  1.00  0.00     0.153 C 
BRANCH  12  13
HETATM   13  C   UNL     1      24.010  43.555  50.547  1.00  0.00     0.184 C 
BRANCH  13  14
HETATM   14  O   UNL     1      24.493  42.867  51.703  1.00  0.00    -0.399 OA
HETATM   15  H   UNL     1      23.820  42.188  51.909  1.00  0.00     0.209 HD
ENDBRANCH  13  14
ENDBRANCH  12  13
ENDBRANCH  10  12
BRANCH  10  16
HETATM   16  C   UNL     1      24.392  46.922  50.497  1.00  0.00     0.166 C 
BRANCH  16  17
HETATM   17  C   UNL     1      25.161  47.986  49.748  1.00  0.00    -0.040 A 
HETATM   18  C   UNL     1      26.561  48.006  49.711  1.00  0.00     0.009 A 
HETATM   19  C   UNL     1      27.239  48.961  48.950  1.00  0.00     0.001 A 
HETATM   20  C   UNL     1      26.525  49.895  48.201  1.00  0.00     0.000 A 
HETATM   21  C   UNL     1      25.133  49.874  48.211  1.00  0.00     0.001 A 
HETATM   22  C   UNL     1      24.455  48.924  48.976  1.00  0.00     0.009 A 
ENDBRANCH  16  17
ENDBRANCH  10  16
ENDBRANCH   6   7
BRANCH   1  23
HETATM   23  O   UNL     1      28.910  42.867  52.316  1.00  0.00    -0.347 OA
BRANCH  23  24
HETATM   24  C   UNL     1      28.370  41.574  52.581  1.00  0.00     0.201 C 
BRANCH  24  25
HETATM   25  C   UNL     1      27.625  41.097  51.340  1.00  0.00     0.190 C 
BRANCH  25  26
HETATM   26  O   UNL     1      26.395  40.484  51.710  1.00  0.00    -0.399 OA
HETATM   27  H   UNL     1      25.864  41.168  52.154  1.00  0.00     0.209 HD
ENDBRANCH  25  26
ENDBRANCH  24  25
ENDBRANCH  23  24
ENDBRANCH   1  23
BRANCH   3  28
HETATM   28  C   UNL     1      30.319  44.786  56.633  1.00  0.00     0.010 A 
HETATM   29  C   UNL     1      31.336  43.895  57.044  1.00  0.00     0.152 A 
HETATM   30  N   UNL     1      31.832  44.198  58.247  1.00  0.00    -0.187 NA
HETATM   31  N   UNL     1      31.137  45.290  58.606  1.00  0.00    -0.289 N 
HETATM   32  H   UNL     1      31.343  45.716  59.503  1.00  0.00     0.188 HD
HETATM   33  C   UNL     1      30.218  45.682  57.676  1.00  0.00     0.123 A 
ENDBRANCH   3  28
TORSDOF 11
ENDMDL
MODEL 2
REMARK VINA RESULT:      -8.7      2.225      8.090
REMARK  11 active torsions:
REMARK  status: ('A' for Active; 'I' for Inactive)
REMARK    1  A    between atoms: O_1  and  C_2 
REMARK    2  A    between atoms: C_2  and  C_3 
REMARK    3  A    between atoms: C_3  and  O_4 
REMARK    4  A    between atoms: O_4  and  C_5 
REMARK    5  A    between atoms: C_7  and  C_25 
REMARK    6  A    between atoms: C_10  and  N_11 
REMARK       I    between atoms: N_11  and  C_12 
REMARK       I    between atoms: C_12  and  N_14 
REMARK    7  A    between atoms: N_14  and  C_15 
REMARK    8  A    between atoms: N_14  and  C_18 
REMARK    9  A    between atoms: C_15  and  C_16 
REMARK   10  A    between atoms: C_16  and  O_17 
REMARK   11  A    between atoms: C_18  and  C_19 
ROOT
HETATM    1  C   UNL     1      24.430  45.761  50.464  1.00  0.00     0.096 A 
HETATM    2  C   UNL     1      23.743  46.807  49.836  1.00  0.00     0.051 A 
HETATM    3  C   UNL     1      24.426  47.948  49.386  1.00  0.00    -0.020 A 
HETATM    4  C   UNL     1      25.805  48.050  49.605  1.00  0.00     0.015 A 
HETATM    5  C   UNL     1      26.501  47.009  50.222  1.00  0.00     0.033 A 
HETATM    6  C   UNL     1      25.828  45.842  50.597  1.00  0.00     0.069 A 
ENDROOT
BRANCH   6   7
HETATM    7  N   UNL     1      26.607  44.774  51.105  1.00  0.00    -0.306 N 
HETATM    8  C   UNL     1      26.955  44.737  52.447  1.00  0.00     0.323 C 
HETATM    9  O   UNL     1      26.603  45.575  53.274  1.00  0.00    -0.247 OA
HETATM   10  N   UNL     1      27.660  43.593  52.819  1.00  0.00    -0.328 N 
HETATM   11  H   UNL     1      26.358  43.853  50.757  1.00  0.00     0.171 HD
BRANCH  10  12
HETATM   12  C   UNL     1      28.297  42.674  51.866  1.00  0.00     0.153 C 
BRANCH  12  13
HETATM   13  C   UNL     1      28.211  41.214  52.315  1.00  0.00     0.184 C 
BRANCH  13  14
HETATM   14  O   UNL     1      26.925  40.668  52.012  1.00  0.00    -0.399 OA
HETATM   15  H   UNL     1      26.548  41.245  51.319  1.00  0.00     0.209 HD
ENDBRANCH  13  14
ENDBRANCH  12  13
ENDBRANCH  10  12
BRANCH  10  16
HETATM   16  C   UNL     1      27.751  43.277  54.243  1.00  0.00     0.166 C 
BRANCH  16  17
HETATM   17  C   UNL     1      28.983  43.798  54.946  1.00  0.00    -0.040 A 
HETATM   18  C   UNL     1      29.042  45.088  55.488  1.00  0.00     0.009 A 
HETATM   19  C   UNL     1      30.170  45.513  56.194  1.00  0.00     0.001 A 
HETATM   20  C   UNL     1      31.244  44.645  56.385  1.00  0.00     0.000 A 
HETATM   21  C   UNL     1      31.191  43.352  55.871  1.00  0.00     0.001 A 
HETATM   22  C   UNL     1      30.067  42.930  55.159  1.00  0.00     0.009 A 
ENDBRANCH  16  17
ENDBRANCH  10  16
ENDBRANCH   6   7
BRANCH   1  23
HETATM   23  O   UNL     1      23.816  44.656  50.999  1.00  0.00    -0.347 OA
BRANCH  23  24
HETATM   24  C   UNL     1      23.186  43.766  50.080  1.00  0.00     0.201 C 
BRANCH  24  25
HETATM   25  C   UNL     1      24.009  42.486  50.003  1.00  0.00     0.190 C 
BRANCH  25  26
HETATM   26  O   UNL     1      24.768  42.316  51.195  1.00  0.00    -0.399 OA
HETATM   27  H   UNL     1      24.220  42.649  51.926  1.00  0.00     0.209 HD
ENDBRANCH  25  26
ENDBRANCH  24  25
ENDBRANCH  23  24
ENDBRANCH   1  23
BRANCH   3  28
HETATM   28  C   UNL     1      23.727  49.005  48.682  1.00  0.00     0.010 A 
HETATM   29  C   UNL     1      22.353  49.163  48.387  1.00  0.00     0.152 A 
HETATM   30  N   UNL     1      22.097  50.284  47.708  1.00  0.00    -0.187 NA
HETATM   31  N   UNL     1      23.307  50.852  47.572  1.00  0.00    -0.289 N 
HETATM   32  H   UNL     1      23.370  51.737  47.081  1.00  0.00     0.188 HD
HETATM   33  C   UNL     1      24.316  50.126  48.136  1.00  0.00     0.123 A 
ENDBRANCH   3  28
TORSDOF 11
ENDMDL
MODEL 3
REMARK VINA RESULT:      -8.7      3.238      8.081
REMARK  11 active torsions:
REMARK  status: ('A' for Active; 'I' for Inactive)
REMARK    1  A    between atoms: O_1  and  C_2 
REMARK    2  A    between atoms: C_2  and  C_3 
REMARK    3  A    between atoms: C_3  and  O_4 
REMARK    4  A    between atoms: O_4  and  C_5 
REMARK    5  A    between atoms: C_7  and  C_25 
REMARK    6  A    between atoms: C_10  and  N_11 
REMARK       I    between atoms: N_11  and  C_12 
REMARK       I    between atoms: C_12  and  N_14 
REMARK    7  A    between atoms: N_14  and  C_15 
REMARK    8  A    between atoms: N_14  and  C_18 
REMARK    9  A    between atoms: C_15  and  C_16 
REMARK   10  A    between atoms: C_16  and  O_17 
REMARK   11  A    between atoms: C_18  and  C_19 
ROOT
HETATM    1  C   UNL     1      27.254  42.074  50.043  1.00  0.00     0.096 A 
HETATM    2  C   UNL     1      27.464  41.192  48.976  1.00  0.00     0.051 A 
HETATM    3  C   UNL     1      28.144  39.980  49.170  1.00  0.00    -0.020 A 
HETATM    4  C   UNL     1      28.647  39.673  50.439  1.00  0.00     0.015 A 
HETATM    5  C   UNL     1      28.435  40.542  51.512  1.00  0.00     0.033 A 
HETATM    6  C   UNL     1      27.688  41.710  51.329  1.00  0.00     0.069 A 
ENDROOT
BRANCH   6   7
HETATM    7  N   UNL     1      27.403  42.488  52.478  1.00  0.00    -0.306 N 
HETATM    8  C   UNL     1      28.376  43.304  53.031  1.00  0.00     0.323 C 
HETATM    9  O   UNL     1      29.508  43.439  52.570  1.00  0.00    -0.247 OA
HETATM   10  N   UNL     1      27.932  44.064  54.113  1.00  0.00    -0.328 N 
HETATM   11  H   UNL     1      26.491  42.936  52.481  1.00  0.00     0.171 HD
BRANCH  10  12
HETATM   12  C   UNL     1      26.686  43.801  54.846  1.00  0.00     0.153 C 
BRANCH  12  13
HETATM   13  C   UNL     1      25.501  44.588  54.284  1.00  0.00     0.184 C 
BRANCH  13  14
HETATM   14  O   UNL     1      24.692  43.755  53.451  1.00  0.00    -0.399 OA
HETATM   15  H   UNL     1      23.909  43.523  53.989  1.00  0.00     0.209 HD
ENDBRANCH  13  14
ENDBRANCH  12  13
ENDBRANCH  10  12
BRANCH  10  16
HETATM   16  C   UNL     1      28.745  45.206  54.529  1.00  0.00     0.166 C 
BRANCH  16  17
HETATM   17  C   UNL     1      29.553  45.003  55.789  1.00  0.00    -0.040 A 
HETATM   18  C   UNL     1      30.550  44.024  55.886  1.00  0.00     0.009 A 
HETATM   19  C   UNL     1      31.327  43.911  57.041  1.00  0.00     0.001 A 
HETATM   20  C   UNL     1      31.131  44.789  58.105  1.00  0.00     0.000 A 
HETATM   21  C   UNL     1      30.158  45.782  58.016  1.00  0.00     0.001 A 
HETATM   22  C   UNL     1      29.377  45.891  56.864  1.00  0.00     0.009 A 
ENDBRANCH  16  17
ENDBRANCH  10  16
ENDBRANCH   6   7
BRANCH   1  23
HETATM   23  O   UNL     1      26.668  43.310  49.909  1.00  0.00    -0.347 OA
BRANCH  23  24
HETATM   24  C   UNL     1      25.250  43.334  49.766  1.00  0.00     0.201 C 
BRANCH  24  25
HETATM   25  C   UNL     1      24.744  44.709  50.186  1.00  0.00     0.190 C 
BRANCH  25  26
HETATM   26  O   UNL     1      23.588  44.579  51.005  1.00  0.00    -0.399 OA
HETATM   27  H   UNL     1      23.769  43.861  51.635  1.00  0.00     0.209 HD
ENDBRANCH  25  26
ENDBRANCH  24  25
ENDBRANCH  23  24
ENDBRANCH   1  23
BRANCH   3  28
HETATM   28  C   UNL     1      28.311  39.037  48.081  1.00  0.00     0.010 A 
HETATM   29  C   UNL     1      27.982  39.146  46.710  1.00  0.00     0.152 A 
HETATM   30  N   UNL     1      28.291  38.048  46.016  1.00  0.00    -0.187 NA
HETATM   31  N   UNL     1      28.827  37.234  46.941  1.00  0.00    -0.289 N 
HETATM   32  H   UNL     1      29.149  36.318  46.646  1.00  0.00     0.188 HD
HETATM   33  C   UNL     1      28.861  37.778  48.192  1.00  0.00     0.123 A 
ENDBRANCH   3  28
TORSDOF 11
ENDMDL
MODEL 4
REMARK VINA RESULT:      -8.7      2.953      8.882
REMARK  11 active torsions:
REMARK  status: ('A' for Active; 'I' for Inactive)
REMARK    1  A    between atoms: O_1  and  C_2 
REMARK    2  A    between atoms: C_2  and  C_3 
REMARK    3  A    between atoms: C_3  and  O_4 
REMARK    4  A    between atoms: O_4  and  C_5 
REMARK    5  A    between atoms: C_7  and  C_25 
REMARK    6  A    between atoms: C_10  and  N_11 
REMARK       I    between atoms: N_11  and  C_12 
REMARK       I    between atoms: C_12  and  N_14 
REMARK    7  A    between atoms: N_14  and  C_15 
REMARK    8  A    between atoms: N_14  and  C_18 
REMARK    9  A    between atoms: C_15  and  C_16 
REMARK   10  A    between atoms: C_16  and  O_17 
REMARK   11  A    between atoms: C_18  and  C_19 
ROOT
HETATM    1  C   UNL     1      24.843  47.749  49.764  1.00  0.00     0.096 A 
HETATM    2  C   UNL     1      23.784  48.566  49.346  1.00  0.00     0.051 A 
HETATM    3  C   UNL     1      22.601  48.005  48.841  1.00  0.00    -0.020 A 
HETATM    4  C   UNL     1      22.498  46.615  48.724  1.00  0.00     0.015 A 
HETATM    5  C   UNL     1      23.543  45.791  49.146  1.00  0.00     0.033 A 
HETATM    6  C   UNL     1      24.689  46.352  49.721  1.00  0.00     0.069 A 
ENDROOT
BRANCH   6   7
HETATM    7  N   UNL     1      25.660  45.463  50.241  1.00  0.00    -0.306 N 
HETATM    8  C   UNL     1      25.754  45.249  51.607  1.00  0.00     0.323 C 
HETATM    9  O   UNL     1      25.013  45.768  52.440  1.00  0.00    -0.247 OA
HETATM   10  N   UNL     1      26.705  44.295  51.968  1.00  0.00    -0.328 N 
HETATM   11  H   UNL     1      25.781  44.601  49.717  1.00  0.00     0.171 HD
BRANCH  10  12
HETATM   12  C   UNL     1      27.761  43.806  51.071  1.00  0.00     0.153 C 
BRANCH  12  13
HETATM   13  C   UNL     1      27.316  42.590  50.256  1.00  0.00     0.184 C 
BRANCH  13  14
HETATM   14  O   UNL     1      27.006  42.968  48.913  1.00  0.00    -0.399 OA
HETATM   15  H   UNL     1      26.090  42.664  48.756  1.00  0.00     0.209 HD
ENDBRANCH  13  14
ENDBRANCH  12  13
ENDBRANCH  10  12
BRANCH  10  16
HETATM   16  C   UNL     1      26.634  43.732  53.315  1.00  0.00     0.166 C 
BRANCH  16  17
HETATM   17  C   UNL     1      27.875  43.907  54.159  1.00  0.00    -0.040 A 
HETATM   18  C   UNL     1      28.858  42.913  54.255  1.00  0.00     0.009 A 
HETATM   19  C   UNL     1      30.027  43.136  54.986  1.00  0.00     0.001 A 
HETATM   20  C   UNL     1      30.236  44.362  55.614  1.00  0.00     0.000 A 
HETATM   21  C   UNL     1      29.279  45.368  55.510  1.00  0.00     0.001 A 
HETATM   22  C   UNL     1      28.107  45.143  54.785  1.00  0.00     0.009 A 
ENDBRANCH  16  17
ENDBRANCH  10  16
ENDBRANCH   6   7
BRANCH   1  23
HETATM   23  O   UNL     1      26.056  48.229  50.191  1.00  0.00    -0.347 OA
BRANCH  23  24
HETATM   24  C   UNL     1      27.083  48.340  49.208  1.00  0.00     0.201 C 
BRANCH  24  25
HETATM   25  C   UNL     1      27.159  49.791  48.748  1.00  0.00     0.190 C 
BRANCH  25  26
HETATM   26  O   UNL     1      26.400  49.970  47.558  1.00  0.00    -0.399 OA
HETATM   27  H   UNL     1      26.717  50.791  47.143  1.00  0.00     0.209 HD
ENDBRANCH  25  26
ENDBRANCH  24  25
ENDBRANCH  23  24
ENDBRANCH   1  23
BRANCH   3  28
HETATM   28  C   UNL     1      21.481  48.846  48.464  1.00  0.00     0.010 A 
HETATM   29  C   UNL     1      21.452  50.150  47.920  1.00  0.00     0.152 A 
HETATM   30  N   UNL     1      20.209  50.594  47.710  1.00  0.00    -0.187 NA
HETATM   31  N   UNL     1      19.439  49.570  48.112  1.00  0.00    -0.289 N 
HETATM   32  H   UNL     1      18.432  49.671  48.044  1.00  0.00     0.188 HD
HETATM   33  C   UNL     1      20.151  48.501  48.573  1.00  0.00     0.123 A 
ENDBRANCH   3  28
TORSDOF 11
ENDMDL
MODEL 5
REMARK VINA RESULT:      -8.3      2.933      5.625
REMARK  11 active torsions:
REMARK  status: ('A' for Active; 'I' for Inactive)
REMARK    1  A    between atoms: O_1  and  C_2 
REMARK    2  A    between atoms: C_2  and  C_3 
REMARK    3  A    between atoms: C_3  and  O_4 
REMARK    4  A    between atoms: O_4  and  C_5 
REMARK    5  A    between atoms: C_7  and  C_25 
REMARK    6  A    between atoms: C_10  and  N_11 
REMARK       I    between atoms: N_11  and  C_12 
REMARK       I    between atoms: C_12  and  N_14 
REMARK    7  A    between atoms: N_14  and  C_15 
REMARK    8  A    between atoms: N_14  and  C_18 
REMARK    9  A    between atoms: C_15  and  C_16 
REMARK   10  A    between atoms: C_16  and  O_17 
REMARK   11  A    between atoms: C_18  and  C_19 
ROOT
HETATM    1  C   UNL     1      27.970  44.765  53.884  1.00  0.00     0.096 A 
HETATM    2  C   UNL     1      28.655  45.099  55.059  1.00  0.00     0.051 A 
HETATM    3  C   UNL     1      29.690  44.284  55.542  1.00  0.00    -0.020 A 
HETATM    4  C   UNL     1      30.013  43.108  54.856  1.00  0.00     0.015 A 
HETATM    5  C   UNL     1      29.343  42.772  53.679  1.00  0.00     0.033 A 
HETATM    6  C   UNL     1      28.366  43.627  53.160  1.00  0.00     0.069 A 
ENDROOT
BRANCH   6   7
HETATM    7  N   UNL     1      27.810  43.294  51.901  1.00  0.00    -0.306 N 
HETATM    8  C   UNL     1      27.558  41.971  51.573  1.00  0.00     0.323 C 
HETATM    9  O   UNL     1      27.758  41.022  52.330  1.00  0.00    -0.247 OA
HETATM   10  N   UNL     1      26.944  41.799  50.334  1.00  0.00    -0.328 N 
HETATM   11  H   UNL     1      27.066  43.907  51.581  1.00  0.00     0.171 HD
BRANCH  10  12
HETATM   12  C   UNL     1      26.876  42.841  49.299  1.00  0.00     0.153 C 
BRANCH  12  13
HETATM   13  C   UNL     1      25.523  43.555  49.278  1.00  0.00     0.184 C 
BRANCH  13  14
HETATM   14  O   UNL     1      25.447  44.522  50.328  1.00  0.00    -0.399 OA
HETATM   15  H   UNL     1      26.346  44.894  50.413  1.00  0.00     0.209 HD
ENDBRANCH  13  14
ENDBRANCH  12  13
ENDBRANCH  10  12
BRANCH  10  16
HETATM   16  C   UNL     1      26.308  40.512  50.055  1.00  0.00     0.166 C 
BRANCH  16  17
HETATM   17  C   UNL     1      27.100  39.576  49.172  1.00  0.00    -0.040 A 
HETATM   18  C   UNL     1      28.149  38.791  49.669  1.00  0.00     0.009 A 
HETATM   19  C   UNL     1      28.812  37.883  48.840  1.00  0.00     0.001 A 
HETATM   20  C   UNL     1      28.421  37.733  47.511  1.00  0.00     0.000 A 
HETATM   21  C   UNL     1      27.366  38.490  47.008  1.00  0.00     0.001 A 
HETATM   22  C   UNL     1      26.708  39.403  47.833  1.00  0.00     0.009 A 
ENDBRANCH  16  17
ENDBRANCH  10  16
ENDBRANCH   6   7
BRANCH   1  23
HETATM   23  O   UNL     1      26.897  45.471  53.398  1.00  0.00    -0.347 OA
BRANCH  23  24
HETATM   24  C   UNL     1      25.772  45.602  54.264  1.00  0.00     0.201 C 
BRANCH  24  25
HETATM   25  C   UNL     1      25.101  44.241  54.398  1.00  0.00     0.190 C 
BRANCH  25  26
HETATM   26  O   UNL     1      24.855  43.685  53.111  1.00  0.00    -0.399 OA
HETATM   27  H   UNL     1      23.920  43.417  53.095  1.00  0.00     0.209 HD
ENDBRANCH  25  26
ENDBRANCH  24  25
ENDBRANCH  23  24
ENDBRANCH   1  23
BRANCH   3  28
HETATM   28  C   UNL     1      30.441  44.658  56.726  1.00  0.00     0.010 A 
HETATM   29  C   UNL     1      31.473  43.980  57.414  1.00  0.00     0.152 A 
HETATM   30  N   UNL     1      31.914  44.656  58.478  1.00  0.00    -0.187 NA
HETATM   31  N   UNL     1      31.171  45.774  58.469  1.00  0.00    -0.289 N 
HETATM   32  H   UNL     1      31.330  46.463  59.197  1.00  0.00     0.188 HD
HETATM   33  C   UNL     1      30.273  45.824  57.442  1.00  0.00     0.123 A 
ENDBRANCH   3  28
TORSDOF 11
ENDMDL
MODEL 6
REMARK VINA RESULT:      -8.1      4.018      6.661
REMARK  11 active torsions:
REMARK  status: ('A' for Active; 'I' for Inactive)
REMARK    1  A    between atoms: O_1  and  C_2 
REMARK    2  A    between atoms: C_2  and  C_3 
REMARK    3  A    between atoms: C_3  and  O_4 
REMARK    4  A    between atoms: O_4  and  C_5 
REMARK    5  A    between atoms: C_7  and  C_25 
REMARK    6  A    between atoms: C_10  and  N_11 
REMARK       I    between atoms: N_11  and  C_12 
REMARK       I    between atoms: C_12  and  N_14 
REMARK    7  A    between atoms: N_14  and  C_15 
REMARK    8  A    between atoms: N_14  and  C_18 
REMARK    9  A    between atoms: C_15  and  C_16 
REMARK   10  A    between atoms: C_16  and  O_17 
REMARK   11  A    between atoms: C_18  and  C_19 
ROOT
HETATM    1  C   UNL     1      26.422  46.601  49.710  1.00  0.00     0.096 A 
HETATM    2  C   UNL     1      27.155  45.436  49.971  1.00  0.00     0.051 A 
HETATM    3  C   UNL     1      26.696  44.493  50.904  1.00  0.00    -0.020 A 
HETATM    4  C   UNL     1      25.511  44.744  51.604  1.00  0.00     0.015 A 
HETATM    5  C   UNL     1      24.768  45.897  51.344  1.00  0.00     0.033 A 
HETATM    6  C   UNL     1      25.189  46.795  50.358  1.00  0.00     0.069 A 
ENDROOT
BRANCH   6   7
HETATM    7  N   UNL     1      24.332  47.880  50.055  1.00  0.00    -0.306 N 
HETATM    8  C   UNL     1      23.280  47.717  49.168  1.00  0.00     0.323 C 
HETATM    9  O   UNL     1      22.997  46.652  48.622  1.00  0.00    -0.247 OA
HETATM   10  N   UNL     1      22.479  48.849  49.022  1.00  0.00    -0.328 N 
HETATM   11  H   UNL     1      24.068  48.457  50.848  1.00  0.00     0.171 HD
BRANCH  10  12
HETATM   12  C   UNL     1      22.872  50.195  49.460  1.00  0.00     0.153 C 
BRANCH  12  13
HETATM   13  C   UNL     1      23.494  51.019  48.330  1.00  0.00     0.184 C 
BRANCH  13  14
HETATM   14  O   UNL     1      23.682  50.214  47.164  1.00  0.00    -0.399 OA
HETATM   15  H   UNL     1      24.386  50.654  46.648  1.00  0.00     0.209 HD
ENDBRANCH  13  14
ENDBRANCH  12  13
ENDBRANCH  10  12
BRANCH  10  16
HETATM   16  C   UNL     1      21.159  48.682  48.416  1.00  0.00     0.166 C 
BRANCH  16  17
HETATM   17  C   UNL     1      20.164  49.778  48.716  1.00  0.00    -0.040 A 
HETATM   18  C   UNL     1      19.436  49.818  49.913  1.00  0.00     0.009 A 
HETATM   19  C   UNL     1      18.577  50.884  50.189  1.00  0.00     0.001 A 
HETATM   20  C   UNL     1      18.451  51.934  49.281  1.00  0.00     0.000 A 
HETATM   21  C   UNL     1      19.183  51.920  48.097  1.00  0.00     0.001 A 
HETATM   22  C   UNL     1      20.037  50.851  47.818  1.00  0.00     0.009 A 
ENDBRANCH  16  17
ENDBRANCH  10  16
ENDBRANCH   6   7
BRANCH   1  23
HETATM   23  O   UNL     1      26.850  47.602  48.873  1.00  0.00    -0.347 OA
BRANCH  23  24
HETATM   24  C   UNL     1      27.616  48.649  49.465  1.00  0.00     0.201 C 
BRANCH  24  25
HETATM   25  C   UNL     1      27.326  49.944  48.717  1.00  0.00     0.190 C 
BRANCH  25  26
HETATM   26  O   UNL     1      26.424  49.701  47.643  1.00  0.00    -0.399 OA
HETATM   27  H   UNL     1      26.928  49.236  46.953  1.00  0.00     0.209 HD
ENDBRANCH  25  26
ENDBRANCH  24  25
ENDBRANCH  23  24
ENDBRANCH   1  23
BRANCH   3  28
HETATM   28  C   UNL     1      27.422  43.258  51.133  1.00  0.00     0.010 A 
HETATM   29  C   UNL     1      27.224  41.963  50.602  1.00  0.00     0.152 A 
HETATM   30  N   UNL     1      28.109  41.076  51.064  1.00  0.00    -0.187 NA
HETATM   31  N   UNL     1      28.882  41.804  51.887  1.00  0.00    -0.289 N 
HETATM   32  H   UNL     1      29.645  41.338  52.366  1.00  0.00     0.188 HD
HETATM   33  C   UNL     1      28.511  43.115  51.965  1.00  0.00     0.123 A 
ENDBRANCH   3  28
TORSDOF 11
ENDMDL
MODEL 7
REMARK VINA RESULT:      -8.1      1.916      2.694
REMARK  11 active torsions:
REMARK  status: ('A' for Active; 'I' for Inactive)
REMARK    1  A    between atoms: O_1  and  C_2 
REMARK    2  A    between atoms: C_2  and  C_3 
REMARK    3  A    between atoms: C_3  and  O_4 
REMARK    4  A    between atoms: O_4  and  C_5 
REMARK    5  A    between atoms: C_7  and  C_25 
REMARK    6  A    between atoms: C_10  and  N_11 
REMARK       I    between atoms: N_11  and  C_12 
REMARK       I    between atoms: C_12  and  N_14 
REMARK    7  A    between atoms: N_14  and  C_15 
REMARK    8  A    between atoms: N_14  and  C_18 
REMARK    9  A    between atoms: C_15  and  C_16 
REMARK   10  A    between atoms: C_16  and  O_17 
REMARK   11  A    between atoms: C_18  and  C_19 
ROOT
HETATM    1  C   UNL     1      27.458  44.639  52.779  1.00  0.00     0.096 A 
HETATM    2  C   UNL     1      28.301  44.665  53.897  1.00  0.00     0.051 A 
HETATM    3  C   UNL     1      28.144  45.644  54.891  1.00  0.00    -0.020 A 
HETATM    4  C   UNL     1      27.157  46.623  54.737  1.00  0.00     0.015 A 
HETATM    5  C   UNL     1      26.306  46.600  53.631  1.00  0.00     0.033 A 
HETATM    6  C   UNL     1      26.415  45.577  52.684  1.00  0.00     0.069 A 
ENDROOT
BRANCH   6   7
HETATM    7  N   UNL     1      25.447  45.537  51.652  1.00  0.00    -0.306 N 
HETATM    8  C   UNL     1      25.103  46.693  50.968  1.00  0.00     0.323 C 
HETATM    9  O   UNL     1      25.614  47.793  51.171  1.00  0.00    -0.247 OA
HETATM   10  N   UNL     1      24.192  46.490  49.932  1.00  0.00    -0.328 N 
HETATM   11  H   UNL     1      25.512  44.738  51.029  1.00  0.00     0.171 HD
BRANCH  10  12
HETATM   12  C   UNL     1      23.386  45.272  49.773  1.00  0.00     0.153 C 
BRANCH  12  13
HETATM   13  C   UNL     1      23.824  44.434  48.571  1.00  0.00     0.184 C 
BRANCH  13  14
HETATM   14  O   UNL     1      25.220  44.134  48.646  1.00  0.00    -0.399 OA
HETATM   15  H   UNL     1      25.674  44.998  48.701  1.00  0.00     0.209 HD
ENDBRANCH  13  14
ENDBRANCH  12  13
ENDBRANCH  10  12
BRANCH  10  16
HETATM   16  C   UNL     1      24.047  47.544  48.930  1.00  0.00     0.166 C 
BRANCH  16  17
HETATM   17  C   UNL     1      22.899  48.501  49.154  1.00  0.00    -0.040 A 
HETATM   18  C   UNL     1      23.104  49.849  49.474  1.00  0.00     0.009 A 
HETATM   19  C   UNL     1      22.021  50.722  49.604  1.00  0.00     0.001 A 
HETATM   20  C   UNL     1      20.723  50.262  49.397  1.00  0.00     0.000 A 
HETATM   21  C   UNL     1      20.504  48.929  49.057  1.00  0.00     0.001 A 
HETATM   22  C   UNL     1      21.585  48.055  48.934  1.00  0.00     0.009 A 
ENDBRANCH  16  17
ENDBRANCH  10  16
ENDBRANCH   6   7
BRANCH   1  23
HETATM   23  O   UNL     1      27.604  43.762  51.732  1.00  0.00    -0.347 OA
BRANCH  23  24
HETATM   24  C   UNL     1      27.333  42.389  52.004  1.00  0.00     0.201 C 
BRANCH  24  25
HETATM   25  C   UNL     1      26.303  41.889  50.998  1.00  0.00     0.190 C 
BRANCH  25  26
HETATM   26  O   UNL     1      25.041  42.500  51.241  1.00  0.00    -0.399 OA
HETATM   27  H   UNL     1      25.222  43.383  51.606  1.00  0.00     0.209 HD
ENDBRANCH  25  26
ENDBRANCH  24  25
ENDBRANCH  23  24
ENDBRANCH   1  23
BRANCH   3  28
HETATM   28  C   UNL     1      28.976  45.638  56.079  1.00  0.00     0.010 A 
HETATM   29  C   UNL     1      28.724  46.125  57.382  1.00  0.00     0.152 A 
HETATM   30  N   UNL     1      29.753  45.936  58.212  1.00  0.00    -0.187 NA
HETATM   31  N   UNL     1      30.666  45.319  57.443  1.00  0.00    -0.289 N 
HETATM   32  H   UNL     1      31.553  45.064  57.863  1.00  0.00     0.188 HD
HETATM   33  C   UNL     1      30.251  45.119  56.158  1.00  0.00     0.123 A 
ENDBRANCH   3  28
TORSDOF 11
ENDMDL
MODEL 8
REMARK VINA RESULT:      -8.0      2.758      8.709
REMARK  11 active torsions:
REMARK  status: ('A' for Active; 'I' for Inactive)
REMARK    1  A    between atoms: O_1  and  C_2 
REMARK    2  A    between atoms: C_2  and  C_3 
REMARK    3  A    between atoms: C_3  and  O_4 
REMARK    4  A    between atoms: O_4  and  C_5 
REMARK    5  A    between atoms: C_7  and  C_25 
REMARK    6  A    between atoms: C_10  and  N_11 
REMARK       I    between atoms: N_11  and  C_12 
REMARK       I    between atoms: C_12  and  N_14 
REMARK    7  A    between atoms: N_14  and  C_15 
REMARK    8  A    between atoms: N_14  and  C_18 
REMARK    9  A    between atoms: C_15  and  C_16 
REMARK   10  A    between atoms: C_16  and  O_17 
REMARK   11  A    between atoms: C_18  and  C_19 
ROOT
HETATM    1  C   UNL     1      24.734  45.439  49.429  1.00  0.00     0.096 A 
HETATM    2  C   UNL     1      23.552  46.014  48.946  1.00  0.00     0.051 A 
HETATM    3  C   UNL     1      22.356  45.279  48.919  1.00  0.00    -0.020 A 
HETATM    4  C   UNL     1      22.361  43.947  49.347  1.00  0.00     0.015 A 
HETATM    5  C   UNL     1      23.532  43.369  49.839  1.00  0.00     0.033 A 
HETATM    6  C   UNL     1      24.702  44.129  49.937  1.00  0.00     0.069 A 
ENDROOT
BRANCH   6   7
HETATM    7  N   UNL     1      25.822  43.525  50.557  1.00  0.00    -0.306 N 
HETATM    8  C   UNL     1      26.056  43.703  51.912  1.00  0.00     0.323 C 
HETATM    9  O   UNL     1      25.321  44.347  52.659  1.00  0.00    -0.247 OA
HETATM   10  N   UNL     1      27.152  42.993  52.398  1.00  0.00    -0.328 N 
HETATM   11  H   UNL     1      26.015  42.571  50.266  1.00  0.00     0.171 HD
BRANCH  10  12
HETATM   12  C   UNL     1      28.187  42.393  51.545  1.00  0.00     0.153 C 
BRANCH  12  13
HETATM   13  C   UNL     1      28.031  40.876  51.416  1.00  0.00     0.184 C 
BRANCH  13  14
HETATM   14  O   UNL     1      29.118  40.201  52.050  1.00  0.00    -0.399 OA
HETATM   15  H   UNL     1      29.393  40.776  52.791  1.00  0.00     0.209 HD
ENDBRANCH  13  14
ENDBRANCH  12  13
ENDBRANCH  10  12
BRANCH  10  16
HETATM   16  C   UNL     1      27.267  42.813  53.845  1.00  0.00     0.166 C 
BRANCH  16  17
HETATM   17  C   UNL     1      28.421  43.536  54.499  1.00  0.00    -0.040 A 
HETATM   18  C   UNL     1      28.301  44.843  54.989  1.00  0.00     0.009 A 
HETATM   19  C   UNL     1      29.366  45.455  55.653  1.00  0.00     0.001 A 
HETATM   20  C   UNL     1      30.558  44.761  55.852  1.00  0.00     0.000 A 
HETATM   21  C   UNL     1      30.686  43.453  55.390  1.00  0.00     0.001 A 
HETATM   22  C   UNL     1      29.624  42.844  54.720  1.00  0.00     0.009 A 
ENDBRANCH  16  17
ENDBRANCH  10  16
ENDBRANCH   6   7
BRANCH   1  23
HETATM   23  O   UNL     1      25.954  46.071  49.411  1.00  0.00    -0.347 OA
BRANCH  23  24
HETATM   24  C   UNL     1      25.990  47.410  49.901  1.00  0.00     0.201 C 
BRANCH  24  25
HETATM   25  C   UNL     1      26.367  47.376  51.376  1.00  0.00     0.190 C 
BRANCH  25  26
HETATM   26  O   UNL     1      25.195  47.398  52.184  1.00  0.00    -0.399 OA
HETATM   27  H   UNL     1      25.105  48.306  52.523  1.00  0.00     0.209 HD
ENDBRANCH  25  26
ENDBRANCH  24  25
ENDBRANCH  23  24
ENDBRANCH   1  23
BRANCH   3  28
HETATM   28  C   UNL     1      21.117  45.890  48.475  1.00  0.00     0.010 A 
HETATM   29  C   UNL     1      20.858  47.186  47.973  1.00  0.00     0.152 A 
HETATM   30  N   UNL     1      19.571  47.375  47.673  1.00  0.00    -0.187 NA
HETATM   31  N   UNL     1      19.003  46.196  47.974  1.00  0.00    -0.289 N 
HETATM   32  H   UNL     1      18.005  46.091  47.823  1.00  0.00     0.188 HD
HETATM   33  C   UNL     1      19.885  45.274  48.459  1.00  0.00     0.123 A 
ENDBRANCH   3  28
TORSDOF 11
ENDMDL
MODEL 9
REMARK VINA RESULT:      -8.0      3.247      4.757
REMARK  11 active torsions:
REMARK  status: ('A' for Active; 'I' for Inactive)
REMARK    1  A    between atoms: O_1  and  C_2 
REMARK    2  A    between atoms: C_2  and  C_3 
REMARK    3  A    between atoms: C_3  and  O_4 
REMARK    4  A    between atoms: O_4  and  C_5 
REMARK    5  A    between atoms: C_7  and  C_25 
REMARK    6  A    between atoms: C_10  and  N_11 
REMARK       I    between atoms: N_11  and  C_12 
REMARK       I    between atoms: C_12  and  N_14 
REMARK    7  A    between atoms: N_14  and  C_15 
REMARK    8  A    between atoms: N_14  and  C_18 
REMARK    9  A    between atoms: C_15  and  C_16 
REMARK   10  A    between atoms: C_16  and  O_17 
REMARK   11  A    between atoms: C_18  and  C_19 
ROOT
HETATM    1  C   UNL     1      28.251  44.235  53.544  1.00  0.00     0.096 A 
HETATM    2  C   UNL     1      28.809  44.696  54.744  1.00  0.00     0.051 A 
HETATM    3  C   UNL     1      29.890  44.026  55.336  1.00  0.00    -0.020 A 
HETATM    4  C   UNL     1      30.388  42.865  54.736  1.00  0.00     0.015 A 
HETATM    5  C   UNL     1      29.846  42.402  53.535  1.00  0.00     0.033 A 
HETATM    6  C   UNL     1      28.820  43.117  52.908  1.00  0.00     0.069 A 
ENDROOT
BRANCH   6   7
HETATM    7  N   UNL     1      28.396  42.668  51.635  1.00  0.00    -0.306 N 
HETATM    8  C   UNL     1      27.442  41.668  51.526  1.00  0.00     0.323 C 
HETATM    9  O   UNL     1      26.888  41.135  52.486  1.00  0.00    -0.247 OA
HETATM   10  N   UNL     1      27.070  41.378  50.214  1.00  0.00    -0.328 N 
HETATM   11  H   UNL     1      28.253  43.399  50.944  1.00  0.00     0.171 HD
BRANCH  10  12
HETATM   12  C   UNL     1      27.829  41.805  49.031  1.00  0.00     0.153 C 
BRANCH  12  13
HETATM   13  C   UNL     1      28.423  40.623  48.261  1.00  0.00     0.184 C 
BRANCH  13  14
HETATM   14  O   UNL     1      29.375  39.924  49.066  1.00  0.00    -0.399 OA
HETATM   15  H   UNL     1      30.241  40.329  48.865  1.00  0.00     0.209 HD
ENDBRANCH  13  14
ENDBRANCH  12  13
ENDBRANCH  10  12
BRANCH  10  16
HETATM   16  C   UNL     1      25.835  40.625  50.002  1.00  0.00     0.166 C 
BRANCH  16  17
HETATM   17  C   UNL     1      24.762  41.343  49.218  1.00  0.00    -0.040 A 
HETATM   18  C   UNL     1      24.296  40.868  47.985  1.00  0.00     0.009 A 
HETATM   19  C   UNL     1      23.253  41.517  47.320  1.00  0.00     0.001 A 
HETATM   20  C   UNL     1      22.649  42.637  47.890  1.00  0.00     0.000 A 
HETATM   21  C   UNL     1      23.087  43.108  49.126  1.00  0.00     0.001 A 
HETATM   22  C   UNL     1      24.134  42.464  49.786  1.00  0.00     0.009 A 
ENDBRANCH  16  17
ENDBRANCH  10  16
ENDBRANCH   6   7
BRANCH   1  23
HETATM   23  O   UNL     1      27.144  44.792  52.952  1.00  0.00    -0.347 OA
BRANCH  23  24
HETATM   24  C   UNL     1      26.201  45.418  53.819  1.00  0.00     0.201 C 
BRANCH  24  25
HETATM   25  C   UNL     1      25.166  44.382  54.239  1.00  0.00     0.190 C 
BRANCH  25  26
HETATM   26  O   UNL     1      24.887  43.499  53.159  1.00  0.00    -0.399 OA
HETATM   27  H   UNL     1      25.412  42.694  53.312  1.00  0.00     0.209 HD
ENDBRANCH  25  26
ENDBRANCH  24  25
ENDBRANCH  23  24
ENDBRANCH   1  23
BRANCH   3  28
HETATM   28  C   UNL     1      30.508  44.535  56.546  1.00  0.00     0.010 A 
HETATM   29  C   UNL     1      31.470  43.952  57.403  1.00  0.00     0.152 A 
HETATM   30  N   UNL     1      31.790  44.743  58.432  1.00  0.00    -0.187 NA
HETATM   31  N   UNL     1      31.039  45.838  58.230  1.00  0.00    -0.289 N 
HETATM   32  H   UNL     1      31.113  46.600  58.896  1.00  0.00     0.188 HD
HETATM   33  C   UNL     1      30.253  45.763  57.117  1.00  0.00     0.123 A 
ENDBRANCH   3  28
TORSDOF 11
ENDMDL
MODEL 10
REMARK VINA RESULT:      -8.0      3.092      4.677
REMARK  11 active torsions:
REMARK  status: ('A' for Active; 'I' for Inactive)
REMARK    1  A    between atoms: O_1  and  C_2 
REMARK    2  A    between atoms: C_2  and  C_3 
REMARK    3  A    between atoms: C_3  and  O_4 
REMARK    4  A    between atoms: O_4  and  C_5 
REMARK    5  A    between atoms: C_7  and  C_25 
REMARK    6  A    between atoms: C_10  and  N_11 
REMARK       I    between atoms: N_11  and  C_12 
REMARK       I    between atoms: C_12  and  N_14 
REMARK    7  A    between atoms: N_14  and  C_15 
REMARK    8  A    between atoms: N_14  and  C_18 
REMARK    9  A    between atoms: C_15  and  C_16 
REMARK   10  A    between atoms: C_16  and  O_17 
REMARK   11  A    between atoms: C_18  and  C_19 
ROOT
HETATM    1  C   UNL     1      25.501  44.825  51.074  1.00  0.00     0.096 A 
HETATM    2  C   UNL     1      26.462  44.550  52.055  1.00  0.00     0.051 A 
HETATM    3  C   UNL     1      26.892  45.552  52.938  1.00  0.00    -0.020 A 
HETATM    4  C   UNL     1      26.377  46.846  52.809  1.00  0.00     0.015 A 
HETATM    5  C   UNL     1      25.411  47.128  51.841  1.00  0.00     0.033 A 
HETATM    6  C   UNL     1      24.929  46.109  51.014  1.00  0.00     0.069 A 
ENDROOT
BRANCH   6   7
HETATM    7  N   UNL     1      23.865  46.428  50.137  1.00  0.00    -0.306 N 
HETATM    8  C   UNL     1      23.690  47.729  49.691  1.00  0.00     0.323 C 
HETATM    9  O   UNL     1      24.433  48.664  49.984  1.00  0.00    -0.247 OA
HETATM   10  N   UNL     1      22.648  47.881  48.778  1.00  0.00    -0.328 N 
HETATM   11  H   UNL     1      23.697  45.752  49.398  1.00  0.00     0.171 HD
BRANCH  10  12
HETATM   12  C   UNL     1      21.598  46.877  48.554  1.00  0.00     0.153 C 
BRANCH  12  13
HETATM   13  C   UNL     1      21.840  46.052  47.288  1.00  0.00     0.184 C 
BRANCH  13  14
HETATM   14  O   UNL     1      22.822  45.042  47.525  1.00  0.00    -0.399 OA
HETATM   15  H   UNL     1      22.322  44.232  47.750  1.00  0.00     0.209 HD
ENDBRANCH  13  14
ENDBRANCH  12  13
ENDBRANCH  10  12
BRANCH  10  16
HETATM   16  C   UNL     1      22.610  49.104  47.978  1.00  0.00     0.166 C 
BRANCH  16  17
HETATM   17  C   UNL     1      21.502  50.072  48.323  1.00  0.00    -0.040 A 
HETATM   18  C   UNL     1      20.540  50.469  47.385  1.00  0.00     0.009 A 
HETATM   19  C   UNL     1      19.488  51.309  47.757  1.00  0.00     0.001 A 
HETATM   20  C   UNL     1      19.373  51.746  49.075  1.00  0.00     0.000 A 
HETATM   21  C   UNL     1      20.309  51.342  50.024  1.00  0.00     0.001 A 
HETATM   22  C   UNL     1      21.365  50.508  49.651  1.00  0.00     0.009 A 
ENDBRANCH  16  17
ENDBRANCH  10  16
ENDBRANCH   6   7
BRANCH   1  23
HETATM   23  O   UNL     1      25.094  43.918  50.127  1.00  0.00    -0.347 OA
BRANCH  23  24
HETATM   24  C   UNL     1      24.380  42.776  50.598  1.00  0.00     0.201 C 
BRANCH  24  25
HETATM   25  C   UNL     1      22.987  42.787  49.982  1.00  0.00     0.190 C 
BRANCH  25  26
HETATM   26  O   UNL     1      22.257  43.922  50.434  1.00  0.00    -0.399 OA
HETATM   27  H   UNL     1      22.241  43.876  51.406  1.00  0.00     0.209 HD
ENDBRANCH  25  26
ENDBRANCH  24  25
ENDBRANCH  23  24
ENDBRANCH   1  23
BRANCH   3  28
HETATM   28  C   UNL     1      27.843  45.256  53.993  1.00  0.00     0.010 A 
HETATM   29  C   UNL     1      28.162  45.969  55.171  1.00  0.00     0.152 A 
HETATM   30  N   UNL     1      29.107  45.367  55.899  1.00  0.00    -0.187 NA
HETATM   31  N   UNL     1      29.389  44.261  55.191  1.00  0.00    -0.289 N 
HETATM   32  H   UNL     1      30.093  43.626  55.553  1.00  0.00     0.188 HD
HETATM   33  C   UNL     1      28.661  44.148  54.042  1.00  0.00     0.123 A 
ENDBRANCH   3  28
TORSDOF 11
ENDMDL
