MODEL 1
REMARK VINA RESULT:      -8.5      0.000      0.000
REMARK  6 active torsions:
REMARK  status: ('A' for Active; 'I' for Inactive)
REMARK    1  A    between atoms: C_2  and  S_3 
REMARK    2  A    between atoms: C_2  and  C_18 
REMARK    3  A    between atoms: S_3  and  C_4 
REMARK    4  A    between atoms: C_4  and  C_5 
REMARK       I    between atoms: C_5  and  N_6 
REMARK    5  A    between atoms: N_6  and  C_7 
REMARK    6  A    between atoms: C_10  and  C_11 
REMARK       I    between atoms: C_11  and  N_12 
ROOT
HETATM    1  C   UNL     1      26.498  45.782  51.128  1.00  0.00     0.231 C 
HETATM    2  N   UNL     1      26.567  44.622  51.888  1.00  0.00    -0.327 N 
HETATM    3  O   UNL     1      26.781  45.887  49.938  1.00  0.00    -0.272 OA
HETATM    4  H   UNL     1      26.305  44.701  52.863  1.00  0.00     0.169 HD
ENDROOT
BRANCH   1   5
HETATM    5  C   UNL     1      26.029  46.991  51.926  1.00  0.00     0.177 C 
BRANCH   5   6
HETATM    6  S   UNL     1      25.671  46.487  53.643  1.00  0.00    -0.147 SA
BRANCH   6   7
HETATM    7  C   UNL     1      27.026  47.402  54.471  1.00  0.00     0.113 C 
HETATM    8  C   UNL     1      26.452  48.267  55.589  1.00  0.00     0.029 C 
BRANCH   7   9
HETATM    9  C   UNL     1      28.066  46.447  54.968  1.00  0.00     0.118 A 
HETATM   10  N   UNL     1      28.421  45.314  54.394  1.00  0.00    -0.232 NA
HETATM   11  C   UNL     1      29.381  44.768  55.209  1.00  0.00     0.085 A 
HETATM   12  C   UNL     1      29.605  45.572  56.320  1.00  0.00     0.062 A 
HETATM   13  C   UNL     1      30.107  43.576  55.068  1.00  0.00     0.034 A 
HETATM   14  N   UNL     1      28.753  46.632  56.146  1.00  0.00    -0.342 N 
HETATM   15  C   UNL     1      30.523  45.257  57.323  1.00  0.00     0.032 A 
HETATM   16  H   UNL     1      28.634  47.409  56.780  1.00  0.00     0.167 HD
HETATM   17  C   UNL     1      31.239  44.065  57.166  1.00  0.00     0.002 A 
HETATM   18  C   UNL     1      31.037  43.237  56.059  1.00  0.00     0.002 A 
ENDBRANCH   7   9
ENDBRANCH   6   7
ENDBRANCH   5   6
ENDBRANCH   1   5
BRANCH   2  19
HETATM   19  C   UNL     1      26.972  43.342  51.458  1.00  0.00     0.034 A 
HETATM   20  C   UNL     1      26.259  42.563  50.544  1.00  0.00     0.030 A 
HETATM   21  C   UNL     1      26.730  41.300  50.156  1.00  0.00     0.019 A 
HETATM   22  C   UNL     1      27.933  40.807  50.669  1.00  0.00     0.032 A 
HETATM   23  C   UNL     1      28.639  41.574  51.602  1.00  0.00     0.019 A 
HETATM   24  C   UNL     1      28.161  42.831  51.993  1.00  0.00     0.030 A 
BRANCH  22  25
HETATM   25  C   UNL     1      28.485  39.476  50.280  1.00  0.00     0.251 C 
HETATM   26  N   UNL     1      29.321  38.863  51.190  1.00  0.00    -0.361 N 
HETATM   27  C   UNL     1      29.864  37.547  50.955  1.00  0.00     0.149 C 
HETATM   28  H   UNL     1      29.399  39.237  52.125  1.00  0.00     0.162 HD
HETATM   29  O   UNL     1      28.163  38.971  49.210  1.00  0.00    -0.268 OA
ENDBRANCH  22  25
ENDBRANCH   2  19
TORSDOF 6
ENDMDL
MODEL 2
REMARK VINA RESULT:      -8.3      4.220      8.176
REMARK  6 active torsions:
REMARK  status: ('A' for Active; 'I' for Inactive)
REMARK    1  A    between atoms: C_2  and  S_3 
REMARK    2  A    between atoms: C_2  and  C_18 
REMARK    3  A    between atoms: S_3  and  C_4 
REMARK    4  A    between atoms: C_4  and  C_5 
REMARK       I    between atoms: C_5  and  N_6 
REMARK    5  A    between atoms: N_6  and  C_7 
REMARK    6  A    between atoms: C_10  and  C_11 
REMARK       I    between atoms: C_11  and  N_12 
ROOT
HETATM    1  C   UNL     1      25.067  44.395  51.997  1.00  0.00     0.231 C 
HETATM    2  N   UNL     1      26.451  44.376  51.893  1.00  0.00    -0.327 N 
HETATM    3  O   UNL     1      24.419  44.528  53.032  1.00  0.00    -0.272 OA
HETATM    4  H   UNL     1      26.836  44.251  50.965  1.00  0.00     0.169 HD
ENDROOT
BRANCH   1   5
HETATM    5  C   UNL     1      24.365  44.218  50.658  1.00  0.00     0.177 C 
BRANCH   5   6
HETATM    6  S   UNL     1      25.071  45.381  49.441  1.00  0.00    -0.147 SA
BRANCH   6   7
HETATM    7  C   UNL     1      24.877  46.923  50.411  1.00  0.00     0.113 C 
HETATM    8  C   UNL     1      26.228  47.623  50.538  1.00  0.00     0.029 C 
BRANCH   7   9
HETATM    9  C   UNL     1      23.840  47.801  49.783  1.00  0.00     0.118 A 
HETATM   10  N   UNL     1      23.860  49.119  49.735  1.00  0.00    -0.232 NA
HETATM   11  C   UNL     1      22.704  49.486  49.090  1.00  0.00     0.085 A 
HETATM   12  C   UNL     1      21.948  48.370  48.754  1.00  0.00     0.062 A 
HETATM   13  C   UNL     1      22.227  50.763  48.760  1.00  0.00     0.034 A 
HETATM   14  N   UNL     1      22.689  47.310  49.209  1.00  0.00    -0.342 N 
HETATM   15  C   UNL     1      20.717  48.445  48.099  1.00  0.00     0.032 A 
HETATM   16  H   UNL     1      22.430  46.336  49.151  1.00  0.00     0.167 HD
HETATM   17  C   UNL     1      20.256  49.727  47.776  1.00  0.00     0.002 A 
HETATM   18  C   UNL     1      20.996  50.868  48.099  1.00  0.00     0.002 A 
ENDBRANCH   7   9
ENDBRANCH   6   7
ENDBRANCH   5   6
ENDBRANCH   1   5
BRANCH   2  19
HETATM   19  C   UNL     1      27.388  44.502  52.939  1.00  0.00     0.034 A 
HETATM   20  C   UNL     1      27.413  45.567  53.842  1.00  0.00     0.030 A 
HETATM   21  C   UNL     1      28.372  45.620  54.864  1.00  0.00     0.019 A 
HETATM   22  C   UNL     1      29.311  44.594  55.005  1.00  0.00     0.032 A 
HETATM   23  C   UNL     1      29.303  43.536  54.089  1.00  0.00     0.019 A 
HETATM   24  C   UNL     1      28.350  43.492  53.065  1.00  0.00     0.030 A 
BRANCH  22  25
HETATM   25  C   UNL     1      30.344  44.594  56.083  1.00  0.00     0.251 C 
HETATM   26  N   UNL     1      31.007  43.405  56.304  1.00  0.00    -0.361 N 
HETATM   27  C   UNL     1      32.071  43.298  57.272  1.00  0.00     0.149 C 
HETATM   28  H   UNL     1      30.901  42.646  55.646  1.00  0.00     0.162 HD
HETATM   29  O   UNL     1      30.584  45.628  56.696  1.00  0.00    -0.268 OA
ENDBRANCH  22  25
ENDBRANCH   2  19
TORSDOF 6
ENDMDL
MODEL 3
REMARK VINA RESULT:      -7.9      5.477      9.591
REMARK  6 active torsions:
REMARK  status: ('A' for Active; 'I' for Inactive)
REMARK    1  A    between atoms: C_2  and  S_3 
REMARK    2  A    between atoms: C_2  and  C_18 
REMARK    3  A    between atoms: S_3  and  C_4 
REMARK    4  A    between atoms: C_4  and  C_5 
REMARK       I    between atoms: C_5  and  N_6 
REMARK    5  A    between atoms: N_6  and  C_7 
REMARK    6  A    between atoms: C_10  and  C_11 
REMARK       I    between atoms: C_11  and  N_12 
ROOT
HETATM    1  C   UNL     1      25.592  47.127  50.971  1.00  0.00     0.231 C 
HETATM    2  N   UNL     1      25.503  46.443  52.176  1.00  0.00    -0.327 N 
HETATM    3  O   UNL     1      26.577  47.728  50.550  1.00  0.00    -0.272 OA
HETATM    4  H   UNL     1      24.615  46.002  52.384  1.00  0.00     0.169 HD
ENDROOT
BRANCH   1   5
HETATM    5  C   UNL     1      24.302  47.086  50.165  1.00  0.00     0.177 C 
BRANCH   5   6
HETATM    6  S   UNL     1      24.146  48.619  49.187  1.00  0.00    -0.147 SA
BRANCH   6   7
HETATM    7  C   UNL     1      22.641  48.174  48.242  1.00  0.00     0.113 C 
HETATM    8  C   UNL     1      22.225  46.745  48.581  1.00  0.00     0.029 C 
BRANCH   7   9
HETATM    9  C   UNL     1      21.550  49.163  48.514  1.00  0.00     0.118 A 
HETATM   10  N   UNL     1      21.421  50.352  47.959  1.00  0.00    -0.232 NA
HETATM   11  C   UNL     1      20.299  50.907  48.524  1.00  0.00     0.085 A 
HETATM   12  C   UNL     1      19.739  50.048  49.462  1.00  0.00     0.062 A 
HETATM   13  C   UNL     1      19.697  52.152  48.289  1.00  0.00     0.034 A 
HETATM   14  N   UNL     1      20.555  48.947  49.440  1.00  0.00    -0.342 N 
HETATM   15  C   UNL     1      18.595  50.357  50.200  1.00  0.00     0.032 A 
HETATM   16  H   UNL     1      20.457  48.124  50.017  1.00  0.00     0.167 HD
HETATM   17  C   UNL     1      18.006  51.603  49.952  1.00  0.00     0.002 A 
HETATM   18  C   UNL     1      18.546  52.487  49.013  1.00  0.00     0.002 A 
ENDBRANCH   7   9
ENDBRANCH   6   7
ENDBRANCH   5   6
ENDBRANCH   1   5
BRANCH   2  19
HETATM   19  C   UNL     1      26.508  46.299  53.154  1.00  0.00     0.034 A 
HETATM   20  C   UNL     1      26.943  47.333  53.986  1.00  0.00     0.030 A 
HETATM   21  C   UNL     1      27.943  47.112  54.944  1.00  0.00     0.019 A 
HETATM   22  C   UNL     1      28.511  45.844  55.092  1.00  0.00     0.032 A 
HETATM   23  C   UNL     1      28.094  44.810  54.245  1.00  0.00     0.019 A 
HETATM   24  C   UNL     1      27.102  45.038  53.284  1.00  0.00     0.030 A 
BRANCH  22  25
HETATM   25  C   UNL     1      29.569  45.551  56.104  1.00  0.00     0.251 C 
HETATM   26  N   UNL     1      29.313  45.950  57.399  1.00  0.00    -0.361 N 
HETATM   27  C   UNL     1      30.230  45.665  58.476  1.00  0.00     0.149 C 
HETATM   28  H   UNL     1      28.386  46.263  57.650  1.00  0.00     0.162 HD
HETATM   29  O   UNL     1      30.587  44.957  55.767  1.00  0.00    -0.268 OA
ENDBRANCH  22  25
ENDBRANCH   2  19
TORSDOF 6
ENDMDL
MODEL 4
REMARK VINA RESULT:      -7.9      4.893      8.408
REMARK  6 active torsions:
REMARK  status: ('A' for Active; 'I' for Inactive)
REMARK    1  A    between atoms: C_2  and  S_3 
REMARK    2  A    between atoms: C_2  and  C_18 
REMARK    3  A    between atoms: S_3  and  C_4 
REMARK    4  A    between atoms: C_4  and  C_5 
REMARK       I    between atoms: C_5  and  N_6 
REMARK    5  A    between atoms: N_6  and  C_7 
REMARK    6  A    between atoms: C_10  and  C_11 
REMARK       I    between atoms: C_11  and  N_12 
ROOT
HETATM    1  C   UNL     1      25.256  47.502  50.294  1.00  0.00     0.231 C 
HETATM    2  N   UNL     1      24.670  47.969  49.125  1.00  0.00    -0.327 N 
HETATM    3  O   UNL     1      24.872  47.728  51.438  1.00  0.00    -0.272 OA
HETATM    4  H   UNL     1      25.111  47.699  48.255  1.00  0.00     0.169 HD
ENDROOT
BRANCH   1   5
HETATM    5  C   UNL     1      26.490  46.647  50.042  1.00  0.00     0.177 C 
BRANCH   5   6
HETATM    6  S   UNL     1      25.977  44.970  49.536  1.00  0.00    -0.147 SA
BRANCH   6   7
HETATM    7  C   UNL     1      25.498  44.334  51.186  1.00  0.00     0.113 C 
HETATM    8  C   UNL     1      24.682  43.055  51.026  1.00  0.00     0.029 C 
BRANCH   7   9
HETATM    9  C   UNL     1      26.716  44.129  52.033  1.00  0.00     0.118 A 
HETATM   10  N   UNL     1      27.702  43.288  51.788  1.00  0.00    -0.232 NA
HETATM   11  C   UNL     1      28.578  43.425  52.836  1.00  0.00     0.085 A 
HETATM   12  C   UNL     1      28.109  44.354  53.757  1.00  0.00     0.062 A 
HETATM   13  C   UNL     1      29.800  42.780  53.076  1.00  0.00     0.034 A 
HETATM   14  N   UNL     1      26.920  44.785  53.226  1.00  0.00    -0.342 N 
HETATM   15  C   UNL     1      28.791  44.688  54.928  1.00  0.00     0.032 A 
HETATM   16  H   UNL     1      26.291  45.455  53.643  1.00  0.00     0.167 HD
HETATM   17  C   UNL     1      30.010  44.035  55.151  1.00  0.00     0.002 A 
HETATM   18  C   UNL     1      30.508  43.098  54.242  1.00  0.00     0.002 A 
ENDBRANCH   7   9
ENDBRANCH   6   7
ENDBRANCH   5   6
ENDBRANCH   1   5
BRANCH   2  19
HETATM   19  C   UNL     1      23.529  48.790  49.010  1.00  0.00     0.034 A 
HETATM   20  C   UNL     1      23.575  50.182  48.900  1.00  0.00     0.030 A 
HETATM   21  C   UNL     1      22.397  50.933  48.779  1.00  0.00     0.019 A 
HETATM   22  C   UNL     1      21.154  50.295  48.751  1.00  0.00     0.032 A 
HETATM   23  C   UNL     1      21.102  48.903  48.884  1.00  0.00     0.019 A 
HETATM   24  C   UNL     1      22.280  48.158  49.013  1.00  0.00     0.030 A 
BRANCH  22  25
HETATM   25  C   UNL     1      19.871  51.045  48.612  1.00  0.00     0.251 C 
HETATM   26  N   UNL     1      19.317  51.544  49.772  1.00  0.00    -0.361 N 
HETATM   27  C   UNL     1      18.114  52.341  49.758  1.00  0.00     0.149 C 
HETATM   28  H   UNL     1      19.858  51.536  50.626  1.00  0.00     0.162 HD
HETATM   29  O   UNL     1      19.381  51.214  47.501  1.00  0.00    -0.268 OA
ENDBRANCH  22  25
ENDBRANCH   2  19
TORSDOF 6
ENDMDL
MODEL 5
REMARK VINA RESULT:      -7.9     12.943     15.164
REMARK  6 active torsions:
REMARK  status: ('A' for Active; 'I' for Inactive)
REMARK    1  A    between atoms: C_2  and  S_3 
REMARK    2  A    between atoms: C_2  and  C_18 
REMARK    3  A    between atoms: S_3  and  C_4 
REMARK    4  A    between atoms: C_4  and  C_5 
REMARK       I    between atoms: C_5  and  N_6 
REMARK    5  A    between atoms: N_6  and  C_7 
REMARK    6  A    between atoms: C_10  and  C_11 
REMARK       I    between atoms: C_11  and  N_12 
ROOT
HETATM    1  C   UNL     1      28.909  46.658  40.184  1.00  0.00     0.231 C 
HETATM    2  N   UNL     1      29.020  47.903  40.789  1.00  0.00    -0.327 N 
HETATM    3  O   UNL     1      29.840  45.955  39.797  1.00  0.00    -0.272 OA
HETATM    4  H   UNL     1      28.154  48.362  41.046  1.00  0.00     0.169 HD
ENDROOT
BRANCH   1   5
HETATM    5  C   UNL     1      27.467  46.202  40.016  1.00  0.00     0.177 C 
BRANCH   5   6
HETATM    6  S   UNL     1      26.808  46.835  38.436  1.00  0.00    -0.147 SA
BRANCH   6   7
HETATM    7  C   UNL     1      25.776  48.190  39.108  1.00  0.00     0.113 C 
HETATM    8  C   UNL     1      25.101  47.731  40.397  1.00  0.00     0.029 C 
BRANCH   7   9
HETATM    9  C   UNL     1      26.605  49.421  39.308  1.00  0.00     0.118 A 
HETATM   10  N   UNL     1      27.453  49.938  38.440  1.00  0.00    -0.232 NA
HETATM   11  C   UNL     1      27.996  51.037  39.058  1.00  0.00     0.085 A 
HETATM   12  C   UNL     1      27.487  51.185  40.342  1.00  0.00     0.062 A 
HETATM   13  C   UNL     1      28.941  51.958  38.585  1.00  0.00     0.034 A 
HETATM   14  N   UNL     1      26.607  50.143  40.480  1.00  0.00    -0.342 N 
HETATM   15  C   UNL     1      27.869  52.214  41.206  1.00  0.00     0.032 A 
HETATM   16  H   UNL     1      26.065  49.927  41.303  1.00  0.00     0.167 HD
HETATM   17  C   UNL     1      28.813  53.125  40.717  1.00  0.00     0.002 A 
HETATM   18  C   UNL     1      29.341  53.002  39.429  1.00  0.00     0.002 A 
ENDBRANCH   7   9
ENDBRANCH   6   7
ENDBRANCH   5   6
ENDBRANCH   1   5
BRANCH   2  19
HETATM   19  C   UNL     1      30.204  48.611  41.078  1.00  0.00     0.034 A 
HETATM   20  C   UNL     1      30.988  49.250  40.114  1.00  0.00     0.030 A 
HETATM   21  C   UNL     1      32.150  49.945  40.478  1.00  0.00     0.019 A 
HETATM   22  C   UNL     1      32.534  50.022  41.820  1.00  0.00     0.032 A 
HETATM   23  C   UNL     1      31.765  49.364  42.786  1.00  0.00     0.019 A 
HETATM   24  C   UNL     1      30.610  48.664  42.417  1.00  0.00     0.030 A 
BRANCH  22  25
HETATM   25  C   UNL     1      33.755  50.758  42.264  1.00  0.00     0.251 C 
HETATM   26  N   UNL     1      34.964  50.121  42.077  1.00  0.00    -0.361 N 
HETATM   27  C   UNL     1      36.216  50.758  42.406  1.00  0.00     0.149 C 
HETATM   28  H   UNL     1      35.003  49.283  41.515  1.00  0.00     0.162 HD
HETATM   29  O   UNL     1      33.649  51.884  42.737  1.00  0.00    -0.268 OA
ENDBRANCH  22  25
ENDBRANCH   2  19
TORSDOF 6
ENDMDL
MODEL 6
REMARK VINA RESULT:      -7.7      2.701      7.209
REMARK  6 active torsions:
REMARK  status: ('A' for Active; 'I' for Inactive)
REMARK    1  A    between atoms: C_2  and  S_3 
REMARK    2  A    between atoms: C_2  and  C_18 
REMARK    3  A    between atoms: S_3  and  C_4 
REMARK    4  A    between atoms: C_4  and  C_5 
REMARK       I    between atoms: C_5  and  N_6 
REMARK    5  A    between atoms: N_6  and  C_7 
REMARK    6  A    between atoms: C_10  and  C_11 
REMARK       I    between atoms: C_11  and  N_12 
ROOT
HETATM    1  C   UNL     1      26.896  44.221  50.157  1.00  0.00     0.231 C 
HETATM    2  N   UNL     1      26.954  43.449  51.310  1.00  0.00    -0.327 N 
HETATM    3  O   UNL     1      27.633  45.163  49.878  1.00  0.00    -0.272 OA
HETATM    4  H   UNL     1      26.268  42.709  51.396  1.00  0.00     0.169 HD
ENDROOT
BRANCH   1   5
HETATM    5  C   UNL     1      25.780  43.800  49.212  1.00  0.00     0.177 C 
BRANCH   5   6
HETATM    6  S   UNL     1      24.574  42.769  50.113  1.00  0.00    -0.147 SA
BRANCH   6   7
HETATM    7  C   UNL     1      24.563  41.328  48.981  1.00  0.00     0.113 C 
HETATM    8  C   UNL     1      24.351  41.805  47.547  1.00  0.00     0.029 C 
BRANCH   7   9
HETATM    9  C   UNL     1      25.826  40.540  49.136  1.00  0.00     0.118 A 
HETATM   10  N   UNL     1      26.590  40.496  50.211  1.00  0.00    -0.232 NA
HETATM   11  C   UNL     1      27.640  39.672  49.889  1.00  0.00     0.085 A 
HETATM   12  C   UNL     1      27.531  39.218  48.580  1.00  0.00     0.062 A 
HETATM   13  C   UNL     1      28.735  39.268  50.666  1.00  0.00     0.034 A 
HETATM   14  N   UNL     1      26.371  39.787  48.121  1.00  0.00    -0.342 N 
HETATM   15  C   UNL     1      28.465  38.371  47.981  1.00  0.00     0.032 A 
HETATM   16  H   UNL     1      25.988  39.688  47.192  1.00  0.00     0.167 HD
HETATM   17  C   UNL     1      29.552  37.977  48.771  1.00  0.00     0.002 A 
HETATM   18  C   UNL     1      29.687  38.416  50.090  1.00  0.00     0.002 A 
ENDBRANCH   7   9
ENDBRANCH   6   7
ENDBRANCH   5   6
ENDBRANCH   1   5
BRANCH   2  19
HETATM   19  C   UNL     1      27.856  43.584  52.385  1.00  0.00     0.034 A 
HETATM   20  C   UNL     1      29.039  42.851  52.508  1.00  0.00     0.030 A 
HETATM   21  C   UNL     1      29.894  43.046  53.602  1.00  0.00     0.019 A 
HETATM   22  C   UNL     1      29.581  43.993  54.582  1.00  0.00     0.032 A 
HETATM   23  C   UNL     1      28.387  44.713  54.473  1.00  0.00     0.019 A 
HETATM   24  C   UNL     1      27.532  44.509  53.384  1.00  0.00     0.030 A 
BRANCH  22  25
HETATM   25  C   UNL     1      30.462  44.249  55.760  1.00  0.00     0.251 C 
HETATM   26  N   UNL     1      31.168  43.171  56.251  1.00  0.00    -0.361 N 
HETATM   27  C   UNL     1      32.100  43.307  57.343  1.00  0.00     0.149 C 
HETATM   28  H   UNL     1      31.199  42.312  55.719  1.00  0.00     0.162 HD
HETATM   29  O   UNL     1      30.551  45.382  56.219  1.00  0.00    -0.268 OA
ENDBRANCH  22  25
ENDBRANCH   2  19
TORSDOF 6
ENDMDL
MODEL 7
REMARK VINA RESULT:      -7.5     13.241     15.695
REMARK  6 active torsions:
REMARK  status: ('A' for Active; 'I' for Inactive)
REMARK    1  A    between atoms: C_2  and  S_3 
REMARK    2  A    between atoms: C_2  and  C_18 
REMARK    3  A    between atoms: S_3  and  C_4 
REMARK    4  A    between atoms: C_4  and  C_5 
REMARK       I    between atoms: C_5  and  N_6 
REMARK    5  A    between atoms: N_6  and  C_7 
REMARK    6  A    between atoms: C_10  and  C_11 
REMARK       I    between atoms: C_11  and  N_12 
ROOT
HETATM    1  C   UNL     1      27.904  50.723  38.923  1.00  0.00     0.231 C 
HETATM    2  N   UNL     1      28.879  50.986  39.876  1.00  0.00    -0.327 N 
HETATM    3  O   UNL     1      28.038  50.811  37.705  1.00  0.00    -0.272 OA
HETATM    4  H   UNL     1      28.609  50.874  40.846  1.00  0.00     0.169 HD
ENDROOT
BRANCH   1   5
HETATM    5  C   UNL     1      26.573  50.305  39.531  1.00  0.00     0.177 C 
BRANCH   5   6
HETATM    6  S   UNL     1      26.252  48.550  39.148  1.00  0.00    -0.147 SA
BRANCH   6   7
HETATM    7  C   UNL     1      26.665  47.845  40.788  1.00  0.00     0.113 C 
HETATM    8  C   UNL     1      26.226  46.385  40.845  1.00  0.00     0.029 C 
BRANCH   7   9
HETATM    9  C   UNL     1      28.127  48.010  41.067  1.00  0.00     0.118 A 
HETATM   10  N   UNL     1      28.658  48.700  42.058  1.00  0.00    -0.232 NA
HETATM   11  C   UNL     1      30.018  48.589  41.903  1.00  0.00     0.085 A 
HETATM   12  C   UNL     1      30.329  47.834  40.779  1.00  0.00     0.062 A 
HETATM   13  C   UNL     1      31.056  49.116  42.684  1.00  0.00     0.034 A 
HETATM   14  N   UNL     1      29.110  47.480  40.262  1.00  0.00    -0.342 N 
HETATM   15  C   UNL     1      31.637  47.565  40.372  1.00  0.00     0.032 A 
HETATM   16  H   UNL     1      28.954  46.939  39.424  1.00  0.00     0.167 HD
HETATM   17  C   UNL     1      32.662  48.099  41.163  1.00  0.00     0.002 A 
HETATM   18  C   UNL     1      32.379  48.860  42.300  1.00  0.00     0.002 A 
ENDBRANCH   7   9
ENDBRANCH   6   7
ENDBRANCH   5   6
ENDBRANCH   1   5
BRANCH   2  19
HETATM   19  C   UNL     1      30.207  51.403  39.648  1.00  0.00     0.034 A 
HETATM   20  C   UNL     1      31.038  50.862  38.664  1.00  0.00     0.030 A 
HETATM   21  C   UNL     1      32.346  51.334  38.490  1.00  0.00     0.019 A 
HETATM   22  C   UNL     1      32.835  52.370  39.292  1.00  0.00     0.032 A 
HETATM   23  C   UNL     1      32.014  52.899  40.293  1.00  0.00     0.019 A 
HETATM   24  C   UNL     1      30.711  52.418  40.469  1.00  0.00     0.030 A 
BRANCH  22  25
HETATM   25  C   UNL     1      34.215  52.919  39.140  1.00  0.00     0.251 C 
HETATM   26  N   UNL     1      34.351  54.288  39.238  1.00  0.00    -0.361 N 
HETATM   27  C   UNL     1      35.641  54.929  39.173  1.00  0.00     0.149 C 
HETATM   28  H   UNL     1      33.573  54.843  39.564  1.00  0.00     0.162 HD
HETATM   29  O   UNL     1      35.159  52.155  38.968  1.00  0.00    -0.268 OA
ENDBRANCH  22  25
ENDBRANCH   2  19
TORSDOF 6
ENDMDL
MODEL 8
REMARK VINA RESULT:      -7.3      2.699      6.945
REMARK  6 active torsions:
REMARK  status: ('A' for Active; 'I' for Inactive)
REMARK    1  A    between atoms: C_2  and  S_3 
REMARK    2  A    between atoms: C_2  and  C_18 
REMARK    3  A    between atoms: S_3  and  C_4 
REMARK    4  A    between atoms: C_4  and  C_5 
REMARK       I    between atoms: C_5  and  N_6 
REMARK    5  A    between atoms: N_6  and  C_7 
REMARK    6  A    between atoms: C_10  and  C_11 
REMARK       I    between atoms: C_11  and  N_12 
ROOT
HETATM    1  C   UNL     1      25.332  44.284  52.148  1.00  0.00     0.231 C 
HETATM    2  N   UNL     1      26.708  44.397  52.008  1.00  0.00    -0.327 N 
HETATM    3  O   UNL     1      24.726  44.047  53.189  1.00  0.00    -0.272 OA
HETATM    4  H   UNL     1      27.057  44.590  51.077  1.00  0.00     0.169 HD
ENDROOT
BRANCH   1   5
HETATM    5  C   UNL     1      24.581  44.475  50.838  1.00  0.00     0.177 C 
BRANCH   5   6
HETATM    6  S   UNL     1      25.485  43.641  49.489  1.00  0.00    -0.147 SA
BRANCH   6   7
HETATM    7  C   UNL     1      24.861  41.941  49.769  1.00  0.00     0.113 C 
HETATM    8  C   UNL     1      23.884  41.565  48.659  1.00  0.00     0.029 C 
BRANCH   7   9
HETATM    9  C   UNL     1      26.006  40.981  49.867  1.00  0.00     0.118 A 
HETATM   10  N   UNL     1      26.192  39.912  49.118  1.00  0.00    -0.232 NA
HETATM   11  C   UNL     1      27.348  39.331  49.579  1.00  0.00     0.085 A 
HETATM   12  C   UNL     1      27.870  40.046  50.649  1.00  0.00     0.062 A 
HETATM   13  C   UNL     1      28.012  38.179  49.135  1.00  0.00     0.034 A 
HETATM   14  N   UNL     1      26.997  41.089  50.816  1.00  0.00    -0.342 N 
HETATM   15  C   UNL     1      29.037  39.679  51.323  1.00  0.00     0.032 A 
HETATM   16  H   UNL     1      27.056  41.807  51.525  1.00  0.00     0.167 HD
HETATM   17  C   UNL     1      29.688  38.526  50.866  1.00  0.00     0.002 A 
HETATM   18  C   UNL     1      29.187  37.788  49.791  1.00  0.00     0.002 A 
ENDBRANCH   7   9
ENDBRANCH   6   7
ENDBRANCH   5   6
ENDBRANCH   1   5
BRANCH   2  19
HETATM   19  C   UNL     1      27.684  44.264  53.017  1.00  0.00     0.034 A 
HETATM   20  C   UNL     1      28.592  43.205  53.092  1.00  0.00     0.030 A 
HETATM   21  C   UNL     1      29.542  43.145  54.121  1.00  0.00     0.019 A 
HETATM   22  C   UNL     1      29.605  44.157  55.083  1.00  0.00     0.032 A 
HETATM   23  C   UNL     1      28.684  45.208  55.025  1.00  0.00     0.019 A 
HETATM   24  C   UNL     1      27.731  45.260  54.001  1.00  0.00     0.030 A 
BRANCH  22  25
HETATM   25  C   UNL     1      30.605  44.148  56.192  1.00  0.00     0.251 C 
HETATM   26  N   UNL     1      30.391  45.037  57.225  1.00  0.00    -0.361 N 
HETATM   27  C   UNL     1      31.251  45.077  58.382  1.00  0.00     0.149 C 
HETATM   28  H   UNL     1      29.512  45.530  57.283  1.00  0.00     0.162 HD
HETATM   29  O   UNL     1      31.538  43.353  56.165  1.00  0.00    -0.268 OA
ENDBRANCH  22  25
ENDBRANCH   2  19
TORSDOF 6
ENDMDL
MODEL 9
REMARK VINA RESULT:      -7.2      6.849     10.396
REMARK  6 active torsions:
REMARK  status: ('A' for Active; 'I' for Inactive)
REMARK    1  A    between atoms: C_2  and  S_3 
REMARK    2  A    between atoms: C_2  and  C_18 
REMARK    3  A    between atoms: S_3  and  C_4 
REMARK    4  A    between atoms: C_4  and  C_5 
REMARK       I    between atoms: C_5  and  N_6 
REMARK    5  A    between atoms: N_6  and  C_7 
REMARK    6  A    between atoms: C_10  and  C_11 
REMARK       I    between atoms: C_11  and  N_12 
ROOT
HETATM    1  C   UNL     1      21.794  47.875  48.592  1.00  0.00     0.231 C 
HETATM    2  N   UNL     1      21.549  48.966  49.415  1.00  0.00    -0.327 N 
HETATM    3  O   UNL     1      21.099  47.509  47.647  1.00  0.00    -0.272 OA
HETATM    4  H   UNL     1      22.216  49.133  50.159  1.00  0.00     0.169 HD
ENDROOT
BRANCH   1   5
HETATM    5  C   UNL     1      23.054  47.110  48.973  1.00  0.00     0.177 C 
BRANCH   5   6
HETATM    6  S   UNL     1      24.171  48.205  49.913  1.00  0.00    -0.147 SA
BRANCH   6   7
HETATM    7  C   UNL     1      25.713  47.236  49.716  1.00  0.00     0.113 C 
HETATM    8  C   UNL     1      26.892  48.184  49.511  1.00  0.00     0.029 C 
BRANCH   7   9
HETATM    9  C   UNL     1      25.909  46.332  50.893  1.00  0.00     0.118 A 
HETATM   10  N   UNL     1      25.311  46.437  52.063  1.00  0.00    -0.232 NA
HETATM   11  C   UNL     1      25.812  45.414  52.831  1.00  0.00     0.085 A 
HETATM   12  C   UNL     1      26.755  44.679  52.124  1.00  0.00     0.062 A 
HETATM   13  C   UNL     1      25.512  45.053  54.152  1.00  0.00     0.034 A 
HETATM   14  N   UNL     1      26.803  45.285  50.895  1.00  0.00    -0.342 N 
HETATM   15  C   UNL     1      27.437  43.585  52.660  1.00  0.00     0.032 A 
HETATM   16  H   UNL     1      27.402  45.023  50.126  1.00  0.00     0.167 HD
HETATM   17  C   UNL     1      27.125  43.238  53.980  1.00  0.00     0.002 A 
HETATM   18  C   UNL     1      26.179  43.958  54.716  1.00  0.00     0.002 A 
ENDBRANCH   7   9
ENDBRANCH   6   7
ENDBRANCH   5   6
ENDBRANCH   1   5
BRANCH   2  19
HETATM   19  C   UNL     1      20.468  49.868  49.340  1.00  0.00     0.034 A 
HETATM   20  C   UNL     1      20.547  51.135  48.758  1.00  0.00     0.030 A 
HETATM   21  C   UNL     1      19.425  51.975  48.711  1.00  0.00     0.019 A 
HETATM   22  C   UNL     1      18.202  51.548  49.235  1.00  0.00     0.032 A 
HETATM   23  C   UNL     1      18.124  50.288  49.840  1.00  0.00     0.019 A 
HETATM   24  C   UNL     1      19.249  49.457  49.892  1.00  0.00     0.030 A 
BRANCH  22  25
HETATM   25  C   UNL     1      16.974  52.397  49.201  1.00  0.00     0.251 C 
HETATM   26  N   UNL     1      16.639  53.049  50.369  1.00  0.00    -0.361 N 
HETATM   27  C   UNL     1      15.513  53.947  50.442  1.00  0.00     0.149 C 
HETATM   28  H   UNL     1      17.298  53.068  51.135  1.00  0.00     0.162 HD
HETATM   29  O   UNL     1      16.340  52.509  48.158  1.00  0.00    -0.268 OA
ENDBRANCH  22  25
ENDBRANCH   2  19
TORSDOF 6
ENDMDL
MODEL 10
REMARK VINA RESULT:      -7.1     14.551     16.468
REMARK  6 active torsions:
REMARK  status: ('A' for Active; 'I' for Inactive)
REMARK    1  A    between atoms: C_2  and  S_3 
REMARK    2  A    between atoms: C_2  and  C_18 
REMARK    3  A    between atoms: S_3  and  C_4 
REMARK    4  A    between atoms: C_4  and  C_5 
REMARK       I    between atoms: C_5  and  N_6 
REMARK    5  A    between atoms: N_6  and  C_7 
REMARK    6  A    between atoms: C_10  and  C_11 
REMARK       I    between atoms: C_11  and  N_12 
ROOT
HETATM    1  C   UNL     1      37.235  45.966  64.579  1.00  0.00     0.231 C 
HETATM    2  N   UNL     1      37.981  45.427  63.540  1.00  0.00    -0.327 N 
HETATM    3  O   UNL     1      36.913  45.390  65.615  1.00  0.00    -0.272 OA
HETATM    4  H   UNL     1      38.159  46.030  62.746  1.00  0.00     0.169 HD
ENDROOT
BRANCH   1   5
HETATM    5  C   UNL     1      36.810  47.405  64.325  1.00  0.00     0.177 C 
BRANCH   5   6
HETATM    6  S   UNL     1      37.283  48.442  65.750  1.00  0.00    -0.147 SA
BRANCH   6   7
HETATM    7  C   UNL     1      38.877  49.068  65.100  1.00  0.00     0.113 C 
HETATM    8  C   UNL     1      39.251  50.363  65.816  1.00  0.00     0.029 C 
BRANCH   7   9
HETATM    9  C   UNL     1      39.937  48.019  65.233  1.00  0.00     0.118 A 
HETATM   10  N   UNL     1      40.878  47.745  64.350  1.00  0.00    -0.232 NA
HETATM   11  C   UNL     1      41.598  46.705  64.884  1.00  0.00     0.085 A 
HETATM   12  C   UNL     1      41.074  46.317  66.111  1.00  0.00     0.062 A 
HETATM   13  C   UNL     1      42.715  46.030  64.371  1.00  0.00     0.034 A 
HETATM   14  N   UNL     1      40.016  47.164  66.310  1.00  0.00    -0.342 N 
HETATM   15  C   UNL     1      41.601  45.275  66.877  1.00  0.00     0.032 A 
HETATM   16  H   UNL     1      39.387  47.156  67.100  1.00  0.00     0.167 HD
HETATM   17  C   UNL     1      42.717  44.613  66.350  1.00  0.00     0.002 A 
HETATM   18  C   UNL     1      43.267  44.982  65.120  1.00  0.00     0.002 A 
ENDBRANCH   7   9
ENDBRANCH   6   7
ENDBRANCH   5   6
ENDBRANCH   1   5
BRANCH   2  19
HETATM   19  C   UNL     1      38.515  44.124  63.457  1.00  0.00     0.034 A 
HETATM   20  C   UNL     1      39.856  43.813  63.694  1.00  0.00     0.030 A 
HETATM   21  C   UNL     1      40.314  42.491  63.601  1.00  0.00     0.019 A 
HETATM   22  C   UNL     1      39.427  41.458  63.285  1.00  0.00     0.032 A 
HETATM   23  C   UNL     1      38.087  41.768  63.025  1.00  0.00     0.019 A 
HETATM   24  C   UNL     1      37.637  43.091  63.110  1.00  0.00     0.030 A 
BRANCH  22  25
HETATM   25  C   UNL     1      39.858  40.032  63.187  1.00  0.00     0.251 C 
HETATM   26  N   UNL     1      40.648  39.553  64.211  1.00  0.00    -0.361 N 
HETATM   27  C   UNL     1      41.074  38.175  64.260  1.00  0.00     0.149 C 
HETATM   28  H   UNL     1      40.768  40.105  65.048  1.00  0.00     0.162 HD
HETATM   29  O   UNL     1      39.483  39.346  62.243  1.00  0.00    -0.268 OA
ENDBRANCH  22  25
ENDBRANCH   2  19
TORSDOF 6
ENDMDL
