MODEL 1
REMARK VINA RESULT:      -9.9      0.000      0.000
REMARK  3 active torsions:
REMARK  status: ('A' for Active; 'I' for Inactive)
REMARK    1  A    between atoms: C_6  and  C_7 
REMARK    2  A    between atoms: C_13  and  C_14 
REMARK    3  A    between atoms: C_14  and  C_15 
ROOT
HETATM    1  C   UNL     1      29.670  46.150  57.751  1.00  0.00     0.070 C 
HETATM    2  C   UNL     1      29.103  45.706  56.433  1.00  0.00     0.033 A 
HETATM    3  N   UNL     1      28.044  46.389  55.968  1.00  0.00    -0.246 NA
HETATM    4  C   UNL     1      27.567  45.970  54.780  1.00  0.00     0.112 A 
HETATM    5  C   UNL     1      28.048  44.917  54.008  1.00  0.00     0.043 A 
HETATM    6  C   UNL     1      29.166  44.209  54.525  1.00  0.00     0.065 A 
HETATM    7  C   UNL     1      29.685  44.641  55.761  1.00  0.00     0.044 A 
HETATM    8  S   UNL     1      26.237  46.763  54.079  1.00  0.00    -0.063 SA
HETATM    9  C   UNL     1      26.276  45.763  52.693  1.00  0.00     0.085 A 
HETATM   10  C   UNL     1      27.259  44.795  52.810  1.00  0.00     0.061 A 
HETATM   11  N   UNL     1      27.452  43.843  51.864  1.00  0.00    -0.397 N 
HETATM   12  H   UNL     1      26.723  43.716  51.152  1.00  0.00     0.156 HD
HETATM   13  H   UNL     1      27.882  42.946  52.090  1.00  0.00     0.156 HD
ENDROOT
BRANCH   9  14
HETATM   14  C   UNL     1      25.301  45.904  51.619  1.00  0.00     0.201 C 
HETATM   15  O   UNL     1      24.406  45.077  51.424  1.00  0.00    -0.286 OA
BRANCH  14  16
HETATM   16  C   UNL     1      25.355  47.049  50.671  1.00  0.00     0.018 A 
HETATM   17  C   UNL     1      24.148  47.546  50.160  1.00  0.00     0.055 A 
HETATM   18  C   UNL     1      24.215  48.580  49.251  1.00  0.00     0.106 A 
HETATM   19  C   UNL     1      25.417  49.109  48.841  1.00  0.00     0.105 A 
HETATM   20  O   UNL     1      23.154  49.184  48.656  1.00  0.00    -0.323 OA
HETATM   21  O   UNL     1      25.260  50.113  47.939  1.00  0.00    -0.323 OA
HETATM   22  C   UNL     1      26.622  48.632  49.313  1.00  0.00     0.040 A 
HETATM   23  C   UNL     1      23.823  50.148  47.815  1.00  0.00     0.352 A 
HETATM   24  C   UNL     1      26.590  47.580  50.234  1.00  0.00     0.018 A 
ENDBRANCH  14  16
ENDBRANCH   9  14
BRANCH   6  25
HETATM   25  C   UNL     1      29.845  43.076  53.802  1.00  0.00     0.418 C 
HETATM   26  F   UNL     1      29.077  41.953  53.706  1.00  0.00    -0.166 F 
HETATM   27  F   UNL     1      30.199  43.404  52.529  1.00  0.00    -0.166 F 
HETATM   28  F   UNL     1      30.997  42.670  54.409  1.00  0.00    -0.166 F 
ENDBRANCH   6  25
TORSDOF 3
ENDMDL
MODEL 2
REMARK VINA RESULT:      -9.0      2.592      4.094
REMARK  3 active torsions:
REMARK  status: ('A' for Active; 'I' for Inactive)
REMARK    1  A    between atoms: C_6  and  C_7 
REMARK    2  A    between atoms: C_13  and  C_14 
REMARK    3  A    between atoms: C_14  and  C_15 
ROOT
HETATM    1  C   UNL     1      27.785  39.975  48.452  1.00  0.00     0.070 C 
HETATM    2  C   UNL     1      27.660  41.087  49.453  1.00  0.00     0.033 A 
HETATM    3  N   UNL     1      27.079  42.222  49.029  1.00  0.00    -0.246 NA
HETATM    4  C   UNL     1      26.976  43.195  49.954  1.00  0.00     0.112 A 
HETATM    5  C   UNL     1      27.409  43.145  51.276  1.00  0.00     0.043 A 
HETATM    6  C   UNL     1      28.023  41.935  51.698  1.00  0.00     0.065 A 
HETATM    7  C   UNL     1      28.129  40.902  50.746  1.00  0.00     0.044 A 
HETATM    8  S   UNL     1      26.247  44.675  49.544  1.00  0.00    -0.063 SA
HETATM    9  C   UNL     1      26.437  45.294  51.126  1.00  0.00     0.085 A 
HETATM   10  C   UNL     1      27.112  44.392  51.931  1.00  0.00     0.061 A 
HETATM   11  N   UNL     1      27.437  44.674  53.217  1.00  0.00    -0.397 N 
HETATM   12  H   UNL     1      27.362  45.649  53.530  1.00  0.00     0.156 HD
HETATM   13  H   UNL     1      28.220  44.215  53.682  1.00  0.00     0.156 HD
ENDROOT
BRANCH   9  14
HETATM   14  C   UNL     1      26.014  46.643  51.476  1.00  0.00     0.201 C 
HETATM   15  O   UNL     1      25.875  47.011  52.646  1.00  0.00    -0.286 OA
BRANCH  14  16
HETATM   16  C   UNL     1      25.692  47.649  50.429  1.00  0.00     0.018 A 
HETATM   17  C   UNL     1      24.343  47.889  50.129  1.00  0.00     0.055 A 
HETATM   18  C   UNL     1      24.062  48.792  49.127  1.00  0.00     0.106 A 
HETATM   19  C   UNL     1      25.057  49.437  48.430  1.00  0.00     0.105 A 
HETATM   20  O   UNL     1      22.820  49.148  48.705  1.00  0.00    -0.323 OA
HETATM   21  O   UNL     1      24.564  50.280  47.483  1.00  0.00    -0.323 OA
HETATM   22  C   UNL     1      26.392  49.212  48.690  1.00  0.00     0.040 A 
HETATM   23  C   UNL     1      23.145  50.082  47.654  1.00  0.00     0.352 A 
HETATM   24  C   UNL     1      26.714  48.297  49.698  1.00  0.00     0.018 A 
ENDBRANCH  14  16
ENDBRANCH   9  14
BRANCH   6  25
HETATM   25  C   UNL     1      28.504  41.688  53.102  1.00  0.00     0.418 C 
HETATM   26  F   UNL     1      29.556  42.477  53.464  1.00  0.00    -0.166 F 
HETATM   27  F   UNL     1      27.535  41.898  54.034  1.00  0.00    -0.166 F 
HETATM   28  F   UNL     1      28.933  40.408  53.302  1.00  0.00    -0.166 F 
ENDBRANCH   6  25
TORSDOF 3
ENDMDL
MODEL 3
REMARK VINA RESULT:      -8.7      2.490      3.046
REMARK  3 active torsions:
REMARK  status: ('A' for Active; 'I' for Inactive)
REMARK    1  A    between atoms: C_6  and  C_7 
REMARK    2  A    between atoms: C_13  and  C_14 
REMARK    3  A    between atoms: C_14  and  C_15 
ROOT
HETATM    1  C   UNL     1      30.227  42.911  54.949  1.00  0.00     0.070 C 
HETATM    2  C   UNL     1      29.167  43.845  54.442  1.00  0.00     0.033 A 
HETATM    3  N   UNL     1      28.546  43.496  53.302  1.00  0.00    -0.246 NA
HETATM    4  C   UNL     1      27.595  44.352  52.881  1.00  0.00     0.112 A 
HETATM    5  C   UNL     1      27.206  45.540  53.493  1.00  0.00     0.043 A 
HETATM    6  C   UNL     1      27.880  45.887  54.694  1.00  0.00     0.065 A 
HETATM    7  C   UNL     1      28.871  44.997  55.156  1.00  0.00     0.044 A 
HETATM    8  S   UNL     1      26.729  44.015  51.457  1.00  0.00    -0.063 SA
HETATM    9  C   UNL     1      25.765  45.417  51.623  1.00  0.00     0.085 A 
HETATM   10  C   UNL     1      26.158  46.160  52.723  1.00  0.00     0.061 A 
HETATM   11  N   UNL     1      25.585  47.348  53.036  1.00  0.00    -0.397 N 
HETATM   12  H   UNL     1      24.993  47.798  52.328  1.00  0.00     0.156 HD
HETATM   13  H   UNL     1      26.082  48.053  53.579  1.00  0.00     0.156 HD
ENDROOT
BRANCH   9  14
HETATM   14  C   UNL     1      24.754  45.772  50.636  1.00  0.00     0.201 C 
HETATM   15  O   UNL     1      23.835  45.009  50.325  1.00  0.00    -0.286 OA
BRANCH  14  16
HETATM   16  C   UNL     1      24.796  47.075  49.920  1.00  0.00     0.018 A 
HETATM   17  C   UNL     1      23.585  47.641  49.498  1.00  0.00     0.055 A 
HETATM   18  C   UNL     1      23.642  48.827  48.799  1.00  0.00     0.106 A 
HETATM   19  C   UNL     1      24.839  49.441  48.508  1.00  0.00     0.105 A 
HETATM   20  O   UNL     1      22.576  49.517  48.317  1.00  0.00    -0.323 OA
HETATM   21  O   UNL     1      24.672  50.594  47.807  1.00  0.00    -0.323 OA
HETATM   22  C   UNL     1      26.047  48.902  48.894  1.00  0.00     0.040 A 
HETATM   23  C   UNL     1      23.236  50.631  47.678  1.00  0.00     0.352 A 
HETATM   24  C   UNL     1      26.026  47.696  49.602  1.00  0.00     0.018 A 
ENDBRANCH  14  16
ENDBRANCH   9  14
BRANCH   6  25
HETATM   25  C   UNL     1      27.554  47.108  55.512  1.00  0.00     0.418 C 
HETATM   26  F   UNL     1      28.086  47.081  56.767  1.00  0.00    -0.166 F 
HETATM   27  F   UNL     1      27.997  48.259  54.937  1.00  0.00    -0.166 F 
HETATM   28  F   UNL     1      26.213  47.283  55.696  1.00  0.00    -0.166 F 
ENDBRANCH   6  25
TORSDOF 3
ENDMDL
MODEL 4
REMARK VINA RESULT:      -8.5      4.474      5.967
REMARK  3 active torsions:
REMARK  status: ('A' for Active; 'I' for Inactive)
REMARK    1  A    between atoms: C_6  and  C_7 
REMARK    2  A    between atoms: C_13  and  C_14 
REMARK    3  A    between atoms: C_14  and  C_15 
ROOT
HETATM    1  C   UNL     1      31.380  43.785  56.584  1.00  0.00     0.070 C 
HETATM    2  C   UNL     1      30.205  44.028  55.681  1.00  0.00     0.033 A 
HETATM    3  N   UNL     1      29.876  43.039  54.834  1.00  0.00    -0.246 NA
HETATM    4  C   UNL     1      28.812  43.287  54.046  1.00  0.00     0.112 A 
HETATM    5  C   UNL     1      28.043  44.446  54.017  1.00  0.00     0.043 A 
HETATM    6  C   UNL     1      28.414  45.478  54.920  1.00  0.00     0.065 A 
HETATM    7  C   UNL     1      29.517  45.231  55.761  1.00  0.00     0.044 A 
HETATM    8  S   UNL     1      28.289  42.106  52.940  1.00  0.00    -0.063 SA
HETATM    9  C   UNL     1      26.984  43.074  52.410  1.00  0.00     0.085 A 
HETATM   10  C   UNL     1      27.001  44.311  53.032  1.00  0.00     0.061 A 
HETATM   11  N   UNL     1      26.101  45.281  52.738  1.00  0.00    -0.397 N 
HETATM   12  H   UNL     1      25.528  45.166  51.894  1.00  0.00     0.156 HD
HETATM   13  H   UNL     1      26.311  46.267  52.889  1.00  0.00     0.156 HD
ENDROOT
BRANCH   9  14
HETATM   14  C   UNL     1      26.078  42.629  51.359  1.00  0.00     0.201 C 
HETATM   15  O   UNL     1      24.917  43.036  51.269  1.00  0.00    -0.286 OA
BRANCH  14  16
HETATM   16  C   UNL     1      26.502  41.624  50.347  1.00  0.00     0.018 A 
HETATM   17  C   UNL     1      27.121  42.081  49.175  1.00  0.00     0.055 A 
HETATM   18  C   UNL     1      27.470  41.142  48.229  1.00  0.00     0.106 A 
HETATM   19  C   UNL     1      27.217  39.801  48.408  1.00  0.00     0.105 A 
HETATM   20  O   UNL     1      28.077  41.400  47.041  1.00  0.00    -0.323 OA
HETATM   21  O   UNL     1      27.634  39.050  47.354  1.00  0.00    -0.323 OA
HETATM   22  C   UNL     1      26.595  39.322  49.541  1.00  0.00     0.040 A 
HETATM   23  C   UNL     1      28.168  40.071  46.485  1.00  0.00     0.352 A 
HETATM   24  C   UNL     1      26.223  40.248  50.521  1.00  0.00     0.018 A 
ENDBRANCH  14  16
ENDBRANCH   9  14
BRANCH   6  25
HETATM   25  C   UNL     1      27.664  46.776  55.058  1.00  0.00     0.418 C 
HETATM   26  F   UNL     1      27.992  47.478  56.181  1.00  0.00    -0.166 F 
HETATM   27  F   UNL     1      27.874  47.617  54.010  1.00  0.00    -0.166 F 
HETATM   28  F   UNL     1      26.312  46.606  55.126  1.00  0.00    -0.166 F 
ENDBRANCH   6  25
TORSDOF 3
ENDMDL
MODEL 5
REMARK VINA RESULT:      -8.4      4.645      6.389
REMARK  3 active torsions:
REMARK  status: ('A' for Active; 'I' for Inactive)
REMARK    1  A    between atoms: C_6  and  C_7 
REMARK    2  A    between atoms: C_13  and  C_14 
REMARK    3  A    between atoms: C_14  and  C_15 
ROOT
HETATM    1  C   UNL     1      31.022  44.143  56.404  1.00  0.00     0.070 C 
HETATM    2  C   UNL     1      29.864  44.279  55.459  1.00  0.00     0.033 A 
HETATM    3  N   UNL     1      29.607  43.229  54.660  1.00  0.00    -0.246 NA
HETATM    4  C   UNL     1      28.557  43.381  53.831  1.00  0.00     0.112 A 
HETATM    5  C   UNL     1      27.734  44.498  53.717  1.00  0.00     0.043 A 
HETATM    6  C   UNL     1      28.029  45.595  54.570  1.00  0.00     0.065 A 
HETATM    7  C   UNL     1      29.118  45.448  55.452  1.00  0.00     0.044 A 
HETATM    8  S   UNL     1      28.122  42.118  52.779  1.00  0.00    -0.063 SA
HETATM    9  C   UNL     1      26.789  42.990  52.161  1.00  0.00     0.085 A 
HETATM   10  C   UNL     1      26.729  44.258  52.714  1.00  0.00     0.061 A 
HETATM   11  N   UNL     1      25.792  45.165  52.342  1.00  0.00    -0.397 N 
HETATM   12  H   UNL     1      25.250  44.977  51.491  1.00  0.00     0.156 HD
HETATM   13  H   UNL     1      25.951  46.167  52.443  1.00  0.00     0.156 HD
ENDROOT
BRANCH   9  14
HETATM   14  C   UNL     1      25.936  42.444  51.113  1.00  0.00     0.201 C 
HETATM   15  O   UNL     1      24.743  42.740  51.009  1.00  0.00    -0.286 OA
BRANCH  14  16
HETATM   16  C   UNL     1      26.458  41.465  50.123  1.00  0.00     0.018 A 
HETATM   17  C   UNL     1      26.284  40.098  50.383  1.00  0.00     0.055 A 
HETATM   18  C   UNL     1      26.810  39.203  49.478  1.00  0.00     0.106 A 
HETATM   19  C   UNL     1      27.494  39.619  48.359  1.00  0.00     0.105 A 
HETATM   20  O   UNL     1      26.736  37.849  49.566  1.00  0.00    -0.323 OA
HETATM   21  O   UNL     1      27.934  38.577  47.604  1.00  0.00    -0.323 OA
HETATM   22  C   UNL     1      27.697  40.954  48.083  1.00  0.00     0.040 A 
HETATM   23  C   UNL     1      27.461  37.457  48.381  1.00  0.00     0.352 A 
HETATM   24  C   UNL     1      27.179  41.891  48.984  1.00  0.00     0.018 A 
ENDBRANCH  14  16
ENDBRANCH   9  14
BRANCH   6  25
HETATM   25  C   UNL     1      27.215  46.860  54.616  1.00  0.00     0.418 C 
HETATM   26  F   UNL     1      25.897  46.650  54.898  1.00  0.00    -0.166 F 
HETATM   27  F   UNL     1      27.667  47.742  55.548  1.00  0.00    -0.166 F 
HETATM   28  F   UNL     1      27.223  47.542  53.434  1.00  0.00    -0.166 F 
ENDBRANCH   6  25
TORSDOF 3
ENDMDL
MODEL 6
REMARK VINA RESULT:      -8.3      2.717      3.366
REMARK  3 active torsions:
REMARK  status: ('A' for Active; 'I' for Inactive)
REMARK    1  A    between atoms: C_6  and  C_7 
REMARK    2  A    between atoms: C_13  and  C_14 
REMARK    3  A    between atoms: C_14  and  C_15 
ROOT
HETATM    1  C   UNL     1      28.003  47.008  56.605  1.00  0.00     0.070 C 
HETATM    2  C   UNL     1      28.020  46.033  55.463  1.00  0.00     0.033 A 
HETATM    3  N   UNL     1      27.168  46.269  54.451  1.00  0.00    -0.246 NA
HETATM    4  C   UNL     1      27.215  45.381  53.440  1.00  0.00     0.112 A 
HETATM    5  C   UNL     1      28.036  44.261  53.346  1.00  0.00     0.043 A 
HETATM    6  C   UNL     1      28.925  44.032  54.431  1.00  0.00     0.065 A 
HETATM    7  C   UNL     1      28.897  44.958  55.492  1.00  0.00     0.044 A 
HETATM    8  S   UNL     1      26.195  45.579  52.095  1.00  0.00    -0.063 SA
HETATM    9  C   UNL     1      26.839  44.205  51.309  1.00  0.00     0.085 A 
HETATM   10  C   UNL     1      27.777  43.573  52.109  1.00  0.00     0.061 A 
HETATM   11  N   UNL     1      28.391  42.424  51.732  1.00  0.00    -0.397 N 
HETATM   12  H   UNL     1      28.002  41.909  50.934  1.00  0.00     0.156 HD
HETATM   13  H   UNL     1      28.772  41.773  52.419  1.00  0.00     0.156 HD
ENDROOT
BRANCH   9  14
HETATM   14  C   UNL     1      26.340  43.758  50.015  1.00  0.00     0.201 C 
HETATM   15  O   UNL     1      27.082  43.309  49.138  1.00  0.00    -0.286 OA
BRANCH  14  16
HETATM   16  C   UNL     1      24.897  43.852  49.669  1.00  0.00     0.018 A 
HETATM   17  C   UNL     1      24.479  44.902  48.839  1.00  0.00     0.055 A 
HETATM   18  C   UNL     1      23.133  45.001  48.561  1.00  0.00     0.106 A 
HETATM   19  C   UNL     1      22.217  44.115  49.080  1.00  0.00     0.105 A 
HETATM   20  O   UNL     1      22.551  45.947  47.779  1.00  0.00    -0.323 OA
HETATM   21  O   UNL     1      20.946  44.394  48.687  1.00  0.00    -0.323 OA
HETATM   22  C   UNL     1      22.593  43.082  49.912  1.00  0.00     0.040 A 
HETATM   23  C   UNL     1      21.162  45.565  47.873  1.00  0.00     0.352 A 
HETATM   24  C   UNL     1      23.952  42.955  50.218  1.00  0.00     0.018 A 
ENDBRANCH  14  16
ENDBRANCH   9  14
BRANCH   6  25
HETATM   25  C   UNL     1      29.916  42.899  54.474  1.00  0.00     0.418 C 
HETATM   26  F   UNL     1      29.336  41.666  54.426  1.00  0.00    -0.166 F 
HETATM   27  F   UNL     1      30.804  42.940  53.444  1.00  0.00    -0.166 F 
HETATM   28  F   UNL     1      30.672  42.895  55.609  1.00  0.00    -0.166 F 
ENDBRANCH   6  25
TORSDOF 3
ENDMDL
MODEL 7
REMARK VINA RESULT:      -8.2     12.512     14.618
REMARK  3 active torsions:
REMARK  status: ('A' for Active; 'I' for Inactive)
REMARK    1  A    between atoms: C_6  and  C_7 
REMARK    2  A    between atoms: C_13  and  C_14 
REMARK    3  A    between atoms: C_14  and  C_15 
ROOT
HETATM    1  C   UNL     1      28.088  47.116  39.452  1.00  0.00     0.070 C 
HETATM    2  C   UNL     1      28.746  48.321  40.059  1.00  0.00     0.033 A 
HETATM    3  N   UNL     1      29.636  48.096  41.041  1.00  0.00    -0.246 NA
HETATM    4  C   UNL     1      30.213  49.197  41.557  1.00  0.00     0.112 A 
HETATM    5  C   UNL     1      29.978  50.518  41.188  1.00  0.00     0.043 A 
HETATM    6  C   UNL     1      29.030  50.729  40.150  1.00  0.00     0.065 A 
HETATM    7  C   UNL     1      28.425  49.587  39.591  1.00  0.00     0.044 A 
HETATM    8  S   UNL     1      31.366  49.043  42.797  1.00  0.00    -0.063 SA
HETATM    9  C   UNL     1      31.635  50.730  42.860  1.00  0.00     0.085 A 
HETATM   10  C   UNL     1      30.796  51.397  41.984  1.00  0.00     0.061 A 
HETATM   11  N   UNL     1      30.776  52.749  41.890  1.00  0.00    -0.397 N 
HETATM   12  H   UNL     1      31.244  53.290  42.626  1.00  0.00     0.156 HD
HETATM   13  H   UNL     1      29.952  53.248  41.556  1.00  0.00     0.156 HD
ENDROOT
BRANCH   9  14
HETATM   14  C   UNL     1      32.565  51.322  43.813  1.00  0.00     0.201 C 
HETATM   15  O   UNL     1      32.219  51.672  44.945  1.00  0.00    -0.286 OA
BRANCH  14  16
HETATM   16  C   UNL     1      33.987  51.567  43.455  1.00  0.00     0.018 A 
HETATM   17  C   UNL     1      34.500  50.949  42.306  1.00  0.00     0.055 A 
HETATM   18  C   UNL     1      35.831  51.152  42.010  1.00  0.00     0.106 A 
HETATM   19  C   UNL     1      36.643  51.921  42.810  1.00  0.00     0.105 A 
HETATM   20  O   UNL     1      36.494  50.637  40.942  1.00  0.00    -0.323 OA
HETATM   21  O   UNL     1      37.918  51.987  42.343  1.00  0.00    -0.323 OA
HETATM   22  C   UNL     1      36.174  52.529  43.955  1.00  0.00     0.040 A 
HETATM   23  C   UNL     1      37.820  51.159  41.165  1.00  0.00     0.352 A 
HETATM   24  C   UNL     1      34.828  52.341  44.288  1.00  0.00     0.018 A 
ENDBRANCH  14  16
ENDBRANCH   9  14
BRANCH   6  25
HETATM   25  C   UNL     1      28.691  52.085  39.593  1.00  0.00     0.418 C 
HETATM   26  F   UNL     1      29.766  52.749  39.080  1.00  0.00    -0.166 F 
HETATM   27  F   UNL     1      27.769  52.027  38.593  1.00  0.00    -0.166 F 
HETATM   28  F   UNL     1      28.163  52.929  40.527  1.00  0.00    -0.166 F 
ENDBRANCH   6  25
TORSDOF 3
ENDMDL
MODEL 8
REMARK VINA RESULT:      -8.1      4.047      7.646
REMARK  3 active torsions:
REMARK  status: ('A' for Active; 'I' for Inactive)
REMARK    1  A    between atoms: C_6  and  C_7 
REMARK    2  A    between atoms: C_13  and  C_14 
REMARK    3  A    between atoms: C_14  and  C_15 
ROOT
HETATM    1  C   UNL     1      23.970  49.163  48.624  1.00  0.00     0.070 C 
HETATM    2  C   UNL     1      24.166  47.901  49.414  1.00  0.00     0.033 A 
HETATM    3  N   UNL     1      24.767  48.022  50.610  1.00  0.00    -0.246 NA
HETATM    4  C   UNL     1      24.919  46.872  51.295  1.00  0.00     0.112 A 
HETATM    5  C   UNL     1      24.532  45.598  50.891  1.00  0.00     0.043 A 
HETATM    6  C   UNL     1      23.903  45.498  49.620  1.00  0.00     0.065 A 
HETATM    7  C   UNL     1      23.725  46.692  48.895  1.00  0.00     0.044 A 
HETATM    8  S   UNL     1      25.653  46.896  52.828  1.00  0.00    -0.063 SA
HETATM    9  C   UNL     1      25.442  45.212  53.037  1.00  0.00     0.085 A 
HETATM   10  C   UNL     1      24.876  44.641  51.910  1.00  0.00     0.061 A 
HETATM   11  N   UNL     1      24.661  43.307  51.806  1.00  0.00    -0.397 N 
HETATM   12  H   UNL     1      25.114  42.691  52.491  1.00  0.00     0.156 HD
HETATM   13  H   UNL     1      24.607  42.844  50.899  1.00  0.00     0.156 HD
ENDROOT
BRANCH   9  14
HETATM   14  C   UNL     1      25.919  44.523  54.229  1.00  0.00     0.201 C 
HETATM   15  O   UNL     1      25.210  43.746  54.874  1.00  0.00    -0.286 OA
BRANCH  14  16
HETATM   16  C   UNL     1      27.292  44.749  54.755  1.00  0.00     0.018 A 
HETATM   17  C   UNL     1      28.245  43.735  54.583  1.00  0.00     0.055 A 
HETATM   18  C   UNL     1      29.501  43.941  55.112  1.00  0.00     0.106 A 
HETATM   19  C   UNL     1      29.820  45.090  55.798  1.00  0.00     0.105 A 
HETATM   20  O   UNL     1      30.545  43.074  55.039  1.00  0.00    -0.323 OA
HETATM   21  O   UNL     1      31.106  45.088  56.241  1.00  0.00    -0.323 OA
HETATM   22  C   UNL     1      28.902  46.098  55.999  1.00  0.00     0.040 A 
HETATM   23  C   UNL     1      31.556  43.802  55.768  1.00  0.00     0.352 A 
HETATM   24  C   UNL     1      27.616  45.920  55.478  1.00  0.00     0.018 A 
ENDBRANCH  14  16
ENDBRANCH   9  14
BRANCH   6  25
HETATM   25  C   UNL     1      23.378  44.209  49.048  1.00  0.00     0.418 C 
HETATM   26  F   UNL     1      24.342  43.263  48.861  1.00  0.00    -0.166 F 
HETATM   27  F   UNL     1      22.429  43.633  49.836  1.00  0.00    -0.166 F 
HETATM   28  F   UNL     1      22.791  44.368  47.827  1.00  0.00    -0.166 F 
ENDBRANCH   6  25
TORSDOF 3
ENDMDL
MODEL 9
REMARK VINA RESULT:      -8.0      3.556      4.309
REMARK  3 active torsions:
REMARK  status: ('A' for Active; 'I' for Inactive)
REMARK    1  A    between atoms: C_6  and  C_7 
REMARK    2  A    between atoms: C_13  and  C_14 
REMARK    3  A    between atoms: C_14  and  C_15 
ROOT
HETATM    1  C   UNL     1      30.920  43.526  56.222  1.00  0.00     0.070 C 
HETATM    2  C   UNL     1      29.890  43.882  55.188  1.00  0.00     0.033 A 
HETATM    3  N   UNL     1      29.804  43.076  54.116  1.00  0.00    -0.246 NA
HETATM    4  C   UNL     1      28.865  43.418  53.214  1.00  0.00     0.112 A 
HETATM    5  C   UNL     1      27.999  44.505  53.277  1.00  0.00     0.043 A 
HETATM    6  C   UNL     1      28.113  45.343  54.419  1.00  0.00     0.065 A 
HETATM    7  C   UNL     1      29.083  44.994  55.379  1.00  0.00     0.044 A 
HETATM    8  S   UNL     1      28.650  42.469  51.820  1.00  0.00    -0.063 SA
HETATM    9  C   UNL     1      27.359  43.443  51.265  1.00  0.00     0.085 A 
HETATM   10  C   UNL     1      27.151  44.517  52.113  1.00  0.00     0.061 A 
HETATM   11  N   UNL     1      26.219  45.469  51.859  1.00  0.00    -0.397 N 
HETATM   12  H   UNL     1      25.807  45.500  50.920  1.00  0.00     0.156 HD
HETATM   13  H   UNL     1      26.303  46.411  52.238  1.00  0.00     0.156 HD
ENDROOT
BRANCH   9  14
HETATM   14  C   UNL     1      26.686  43.175  50.001  1.00  0.00     0.201 C 
HETATM   15  O   UNL     1      27.286  42.752  49.008  1.00  0.00    -0.286 OA
BRANCH  14  16
HETATM   16  C   UNL     1      25.231  43.430  49.830  1.00  0.00     0.018 A 
HETATM   17  C   UNL     1      24.835  44.511  49.030  1.00  0.00     0.055 A 
HETATM   18  C   UNL     1      23.484  44.760  48.915  1.00  0.00     0.106 A 
HETATM   19  C   UNL     1      22.546  43.991  49.564  1.00  0.00     0.105 A 
HETATM   20  O   UNL     1      22.921  45.757  48.185  1.00  0.00    -0.323 OA
HETATM   21  O   UNL     1      21.276  44.410  49.321  1.00  0.00    -0.323 OA
HETATM   22  C   UNL     1      22.904  42.932  50.370  1.00  0.00     0.040 A 
HETATM   23  C   UNL     1      21.520  45.539  48.456  1.00  0.00     0.352 A 
HETATM   24  C   UNL     1      24.267  42.653  50.513  1.00  0.00     0.018 A 
ENDBRANCH  14  16
ENDBRANCH   9  14
BRANCH   6  25
HETATM   25  C   UNL     1      27.226  46.532  54.674  1.00  0.00     0.418 C 
HETATM   26  F   UNL     1      27.318  47.497  53.714  1.00  0.00    -0.166 F 
HETATM   27  F   UNL     1      25.909  46.198  54.750  1.00  0.00    -0.166 F 
HETATM   28  F   UNL     1      27.510  47.167  55.847  1.00  0.00    -0.166 F 
ENDBRANCH   6  25
TORSDOF 3
ENDMDL
MODEL 10
REMARK VINA RESULT:      -8.0      4.775      8.216
REMARK  3 active torsions:
REMARK  status: ('A' for Active; 'I' for Inactive)
REMARK    1  A    between atoms: C_6  and  C_7 
REMARK    2  A    between atoms: C_13  and  C_14 
REMARK    3  A    between atoms: C_14  and  C_15 
ROOT
HETATM    1  C   UNL     1      22.357  50.764  49.080  1.00  0.00     0.070 C 
HETATM    2  C   UNL     1      22.773  49.321  49.094  1.00  0.00     0.033 A 
HETATM    3  N   UNL     1      24.011  49.052  49.540  1.00  0.00    -0.246 NA
HETATM    4  C   UNL     1      24.348  47.748  49.548  1.00  0.00     0.112 A 
HETATM    5  C   UNL     1      23.560  46.676  49.141  1.00  0.00     0.043 A 
HETATM    6  C   UNL     1      22.256  46.989  48.670  1.00  0.00     0.065 A 
HETATM    7  C   UNL     1      21.883  48.347  48.666  1.00  0.00     0.044 A 
HETATM    8  S   UNL     1      25.885  47.277  50.103  1.00  0.00    -0.063 SA
HETATM    9  C   UNL     1      25.545  45.619  49.867  1.00  0.00     0.085 A 
HETATM   10  C   UNL     1      24.291  45.446  49.306  1.00  0.00     0.061 A 
HETATM   11  N   UNL     1      23.812  44.224  48.969  1.00  0.00    -0.397 N 
HETATM   12  H   UNL     1      24.472  43.439  48.940  1.00  0.00     0.156 HD
HETATM   13  H   UNL     1      23.100  44.110  48.248  1.00  0.00     0.156 HD
ENDROOT
BRANCH   9  14
HETATM   14  C   UNL     1      26.536  44.587  50.143  1.00  0.00     0.201 C 
HETATM   15  O   UNL     1      26.864  43.742  49.306  1.00  0.00    -0.286 OA
BRANCH  14  16
HETATM   16  C   UNL     1      27.189  44.479  51.475  1.00  0.00     0.018 A 
HETATM   17  C   UNL     1      28.401  43.779  51.567  1.00  0.00     0.055 A 
HETATM   18  C   UNL     1      28.973  43.652  52.814  1.00  0.00     0.106 A 
HETATM   19  C   UNL     1      28.382  44.176  53.941  1.00  0.00     0.105 A 
HETATM   20  O   UNL     1      30.139  43.012  53.091  1.00  0.00    -0.323 OA
HETATM   21  O   UNL     1      29.106  43.933  55.066  1.00  0.00    -0.323 OA
HETATM   22  C   UNL     1      27.184  44.855  53.887  1.00  0.00     0.040 A 
HETATM   23  C   UNL     1      30.213  43.183  54.522  1.00  0.00     0.352 A 
HETATM   24  C   UNL     1      26.573  45.000  52.636  1.00  0.00     0.018 A 
ENDBRANCH  14  16
ENDBRANCH   9  14
BRANCH   6  25
HETATM   25  C   UNL     1      21.254  45.952  48.237  1.00  0.00     0.418 C 
HETATM   26  F   UNL     1      21.005  45.005  49.186  1.00  0.00    -0.166 F 
HETATM   27  F   UNL     1      20.047  46.492  47.914  1.00  0.00    -0.166 F 
HETATM   28  F   UNL     1      21.650  45.256  47.133  1.00  0.00    -0.166 F 
ENDBRANCH   6  25
TORSDOF 3
ENDMDL
