MODEL 1
REMARK VINA RESULT:      -9.5      0.000      0.000
REMARK  5 active torsions:
REMARK  status: ('A' for Active; 'I' for Inactive)
REMARK    1  A    between atoms: C_4  and  C_5 
REMARK    2  A    between atoms: C_5  and  S_6 
REMARK    3  A    between atoms: S_6  and  C_7 
REMARK    4  A    between atoms: C_9  and  C_10 
REMARK       I    between atoms: C_10  and  N_11 
REMARK    5  A    between atoms: N_11  and  C_12 
ROOT
HETATM    1  C   UNL     1      28.457  42.475  52.191  1.00  0.00     0.189 A 
HETATM    2  N   UNL     1      27.457  43.361  52.064  1.00  0.00    -0.216 NA
HETATM    3  C   UNL     1      26.417  42.986  51.255  1.00  0.00     0.150 A 
HETATM    4  C   UNL     1      26.336  41.755  50.629  1.00  0.00     0.086 A 
HETATM    5 CL   UNL     1      25.050  41.167  49.659  1.00  0.00    -0.080 Cl
HETATM    6  C   UNL     1      27.410  40.928  50.864  1.00  0.00     0.146 A 
HETATM    7  N   UNL     1      28.473  41.262  51.624  1.00  0.00    -0.234 NA
ENDROOT
BRANCH   3   8
HETATM    8  C   UNL     1      25.361  44.048  51.101  1.00  0.00     0.278 C 
HETATM    9  N   UNL     1      25.440  44.708  49.891  1.00  0.00    -0.300 N 
HETATM   10  H   UNL     1      26.154  44.434  49.230  1.00  0.00     0.171 HD
HETATM   11  O   UNL     1      24.543  44.254  51.985  1.00  0.00    -0.265 OA
BRANCH   9  12
HETATM   12  C   UNL     1      24.591  45.720  49.547  1.00  0.00     0.174 A 
HETATM   13  S   UNL     1      25.132  47.271  50.001  1.00  0.00    -0.050 SA
HETATM   14  C   UNL     1      23.690  47.955  49.342  1.00  0.00     0.039 A 
HETATM   15  C   UNL     1      22.913  46.926  48.802  1.00  0.00     0.077 A 
HETATM   16  C   UNL     1      23.278  49.297  49.302  1.00  0.00     0.045 A 
HETATM   17  N   UNL     1      23.438  45.657  48.936  1.00  0.00    -0.223 NA
HETATM   18  C   UNL     1      21.686  47.251  48.186  1.00  0.00     0.035 A 
HETATM   19  C   UNL     1      21.266  48.584  48.134  1.00  0.00     0.026 A 
HETATM   20  C   UNL     1      22.054  49.586  48.690  1.00  0.00     0.035 A 
HETATM   21 CL   UNL     1      21.513  51.220  48.626  1.00  0.00    -0.084 Cl
ENDBRANCH   9  12
ENDBRANCH   3   8
BRANCH   1  22
HETATM   22  S   UNL     1      29.897  42.944  53.097  1.00  0.00    -0.086 SA
BRANCH  22  23
HETATM   23  C   UNL     1      29.150  44.169  54.206  1.00  0.00     0.121 C 
BRANCH  23  24
HETATM   24  C   UNL     1      29.931  44.289  55.491  1.00  0.00    -0.049 A 
HETATM   25  C   UNL     1      30.827  43.282  55.881  1.00  0.00     0.008 A 
HETATM   26  C   UNL     1      31.525  43.381  57.087  1.00  0.00     0.001 A 
HETATM   27  C   UNL     1      31.334  44.486  57.916  1.00  0.00     0.000 A 
HETATM   28  C   UNL     1      30.444  45.490  57.542  1.00  0.00     0.001 A 
HETATM   29  C   UNL     1      29.742  45.392  56.339  1.00  0.00     0.008 A 
ENDBRANCH  23  24
ENDBRANCH  22  23
ENDBRANCH   1  22
TORSDOF 5
ENDMDL
MODEL 2
REMARK VINA RESULT:      -9.5      3.390     10.440
REMARK  5 active torsions:
REMARK  status: ('A' for Active; 'I' for Inactive)
REMARK    1  A    between atoms: C_4  and  C_5 
REMARK    2  A    between atoms: C_5  and  S_6 
REMARK    3  A    between atoms: S_6  and  C_7 
REMARK    4  A    between atoms: C_9  and  C_10 
REMARK       I    between atoms: C_10  and  N_11 
REMARK    5  A    between atoms: N_11  and  C_12 
ROOT
HETATM    1  C   UNL     1      22.931  49.158  49.069  1.00  0.00     0.189 A 
HETATM    2  N   UNL     1      24.061  48.797  49.695  1.00  0.00    -0.216 NA
HETATM    3  C   UNL     1      24.302  47.451  49.776  1.00  0.00     0.150 A 
HETATM    4  C   UNL     1      23.483  46.488  49.213  1.00  0.00     0.086 A 
HETATM    5 CL   UNL     1      23.734  44.792  49.199  1.00  0.00    -0.080 Cl
HETATM    6  C   UNL     1      22.374  46.992  48.574  1.00  0.00     0.146 A 
HETATM    7  N   UNL     1      22.073  48.305  48.496  1.00  0.00    -0.234 NA
ENDROOT
BRANCH   3   8
HETATM    8  C   UNL     1      25.549  47.108  50.547  1.00  0.00     0.278 C 
HETATM    9  N   UNL     1      25.279  46.505  51.759  1.00  0.00    -0.300 N 
HETATM   10  H   UNL     1      24.316  46.335  52.017  1.00  0.00     0.171 HD
HETATM   11  O   UNL     1      26.656  47.355  50.094  1.00  0.00    -0.265 OA
BRANCH   9  12
HETATM   12  C   UNL     1      26.261  46.125  52.628  1.00  0.00     0.174 A 
HETATM   13  S   UNL     1      26.946  44.602  52.287  1.00  0.00    -0.050 SA
HETATM   14  C   UNL     1      27.969  44.765  53.668  1.00  0.00     0.039 A 
HETATM   15  C   UNL     1      27.712  45.999  54.272  1.00  0.00     0.077 A 
HETATM   16  C   UNL     1      28.926  43.872  54.177  1.00  0.00     0.045 A 
HETATM   17  N   UNL     1      26.728  46.758  53.670  1.00  0.00    -0.223 NA
HETATM   18  C   UNL     1      28.450  46.362  55.417  1.00  0.00     0.035 A 
HETATM   19  C   UNL     1      29.410  45.486  55.933  1.00  0.00     0.026 A 
HETATM   20  C   UNL     1      29.636  44.258  55.318  1.00  0.00     0.035 A 
HETATM   21 CL   UNL     1      30.815  43.188  55.975  1.00  0.00    -0.084 Cl
ENDBRANCH   9  12
ENDBRANCH   3   8
BRANCH   1  22
HETATM   22  S   UNL     1      22.478  50.865  49.052  1.00  0.00    -0.086 SA
BRANCH  22  23
HETATM   23  C   UNL     1      21.133  50.815  50.268  1.00  0.00     0.121 C 
BRANCH  23  24
HETATM   24  C   UNL     1      19.830  51.269  49.659  1.00  0.00    -0.049 A 
HETATM   25  C   UNL     1      18.604  50.843  50.193  1.00  0.00     0.008 A 
HETATM   26  C   UNL     1      17.399  51.240  49.608  1.00  0.00     0.001 A 
HETATM   27  C   UNL     1      17.407  52.065  48.484  1.00  0.00     0.000 A 
HETATM   28  C   UNL     1      18.618  52.491  47.943  1.00  0.00     0.001 A 
HETATM   29  C   UNL     1      19.823  52.093  48.523  1.00  0.00     0.008 A 
ENDBRANCH  23  24
ENDBRANCH  22  23
ENDBRANCH   1  22
TORSDOF 5
ENDMDL
MODEL 3
REMARK VINA RESULT:      -9.4      2.821      9.754
REMARK  5 active torsions:
REMARK  status: ('A' for Active; 'I' for Inactive)
REMARK    1  A    between atoms: C_4  and  C_5 
REMARK    2  A    between atoms: C_5  and  S_6 
REMARK    3  A    between atoms: S_6  and  C_7 
REMARK    4  A    between atoms: C_9  and  C_10 
REMARK       I    between atoms: C_10  and  N_11 
REMARK    5  A    between atoms: N_11  and  C_12 
ROOT
HETATM    1  C   UNL     1      23.723  47.014  49.520  1.00  0.00     0.189 A 
HETATM    2  N   UNL     1      24.475  46.561  50.533  1.00  0.00    -0.216 NA
HETATM    3  C   UNL     1      24.401  45.216  50.784  1.00  0.00     0.150 A 
HETATM    4  C   UNL     1      23.650  44.332  50.029  1.00  0.00     0.086 A 
HETATM    5 CL   UNL     1      23.547  42.632  50.219  1.00  0.00    -0.080 Cl
HETATM    6  C   UNL     1      22.949  44.921  49.003  1.00  0.00     0.146 A 
HETATM    7  N   UNL     1      22.961  46.243  48.734  1.00  0.00    -0.234 NA
ENDROOT
BRANCH   3   8
HETATM    8  C   UNL     1      25.216  44.780  51.974  1.00  0.00     0.278 C 
HETATM    9  N   UNL     1      26.517  45.237  51.926  1.00  0.00    -0.300 N 
HETATM   10  H   UNL     1      26.806  45.811  51.145  1.00  0.00     0.171 HD
HETATM   11  O   UNL     1      24.721  44.099  52.859  1.00  0.00    -0.265 OA
BRANCH   9  12
HETATM   12  C   UNL     1      27.436  44.947  52.893  1.00  0.00     0.174 A 
HETATM   13  S   UNL     1      27.413  46.013  54.222  1.00  0.00    -0.050 SA
HETATM   14  C   UNL     1      28.718  45.136  54.934  1.00  0.00     0.039 A 
HETATM   15  C   UNL     1      29.055  44.072  54.093  1.00  0.00     0.077 A 
HETATM   16  C   UNL     1      29.393  45.369  56.144  1.00  0.00     0.045 A 
HETATM   17  N   UNL     1      28.318  43.984  52.928  1.00  0.00    -0.223 NA
HETATM   18  C   UNL     1      30.091  43.198  54.481  1.00  0.00     0.035 A 
HETATM   19  C   UNL     1      30.768  43.415  55.686  1.00  0.00     0.026 A 
HETATM   20  C   UNL     1      30.421  44.490  56.498  1.00  0.00     0.035 A 
HETATM   21 CL   UNL     1      31.274  44.746  57.973  1.00  0.00    -0.084 Cl
ENDBRANCH   9  12
ENDBRANCH   3   8
BRANCH   1  22
HETATM   22  S   UNL     1      23.651  48.754  49.228  1.00  0.00    -0.086 SA
BRANCH  22  23
HETATM   23  C   UNL     1      22.182  48.805  48.166  1.00  0.00     0.121 C 
BRANCH  23  24
HETATM   24  C   UNL     1      21.151  49.764  48.707  1.00  0.00    -0.049 A 
HETATM   25  C   UNL     1      20.307  49.385  49.763  1.00  0.00     0.008 A 
HETATM   26  C   UNL     1      19.332  50.263  50.241  1.00  0.00     0.001 A 
HETATM   27  C   UNL     1      19.188  51.527  49.669  1.00  0.00     0.000 A 
HETATM   28  C   UNL     1      20.017  51.912  48.618  1.00  0.00     0.001 A 
HETATM   29  C   UNL     1      20.990  51.035  48.135  1.00  0.00     0.008 A 
ENDBRANCH  23  24
ENDBRANCH  22  23
ENDBRANCH   1  22
TORSDOF 5
ENDMDL
MODEL 4
REMARK VINA RESULT:      -9.4      3.065      4.351
REMARK  5 active torsions:
REMARK  status: ('A' for Active; 'I' for Inactive)
REMARK    1  A    between atoms: C_4  and  C_5 
REMARK    2  A    between atoms: C_5  and  S_6 
REMARK    3  A    between atoms: S_6  and  C_7 
REMARK    4  A    between atoms: C_9  and  C_10 
REMARK       I    between atoms: C_10  and  N_11 
REMARK    5  A    between atoms: N_11  and  C_12 
ROOT
HETATM    1  C   UNL     1      25.760  46.505  52.046  1.00  0.00     0.189 A 
HETATM    2  N   UNL     1      25.033  47.441  51.418  1.00  0.00    -0.216 NA
HETATM    3  C   UNL     1      24.430  47.052  50.250  1.00  0.00     0.150 A 
HETATM    4  C   UNL     1      24.496  45.767  49.741  1.00  0.00     0.086 A 
HETATM    5 CL   UNL     1      23.722  45.168  48.334  1.00  0.00    -0.080 Cl
HETATM    6  C   UNL     1      25.247  44.898  50.497  1.00  0.00     0.146 A 
HETATM    7  N   UNL     1      25.888  45.238  51.634  1.00  0.00    -0.234 NA
ENDROOT
BRANCH   3   8
HETATM    8  C   UNL     1      23.685  48.164  49.558  1.00  0.00     0.278 C 
HETATM    9  N   UNL     1      22.316  48.050  49.686  1.00  0.00    -0.300 N 
HETATM   10  H   UNL     1      21.937  47.277  50.219  1.00  0.00     0.171 HD
HETATM   11  O   UNL     1      24.285  49.049  48.967  1.00  0.00    -0.265 OA
BRANCH   9  12
HETATM   12  C   UNL     1      21.446  48.939  49.124  1.00  0.00     0.174 A 
HETATM   13  S   UNL     1      20.717  48.389  47.685  1.00  0.00    -0.050 SA
HETATM   14  C   UNL     1      19.872  49.889  47.553  1.00  0.00     0.039 A 
HETATM   15  C   UNL     1      20.207  50.689  48.649  1.00  0.00     0.077 A 
HETATM   16  C   UNL     1      18.980  50.323  46.559  1.00  0.00     0.045 A 
HETATM   17  N   UNL     1      21.113  50.134  49.530  1.00  0.00    -0.223 NA
HETATM   18  C   UNL     1      19.617  51.964  48.766  1.00  0.00     0.035 A 
HETATM   19  C   UNL     1      18.722  52.409  47.786  1.00  0.00     0.026 A 
HETATM   20  C   UNL     1      18.417  51.596  46.699  1.00  0.00     0.035 A 
HETATM   21 CL   UNL     1      17.322  52.166  45.498  1.00  0.00    -0.084 Cl
ENDBRANCH   9  12
ENDBRANCH   3   8
BRANCH   1  22
HETATM   22  S   UNL     1      26.686  46.968  53.477  1.00  0.00    -0.086 SA
BRANCH  22  23
HETATM   23  C   UNL     1      26.653  45.386  54.362  1.00  0.00     0.121 C 
BRANCH  23  24
HETATM   24  C   UNL     1      28.038  44.975  54.796  1.00  0.00    -0.049 A 
HETATM   25  C   UNL     1      28.581  43.747  54.386  1.00  0.00     0.008 A 
HETATM   26  C   UNL     1      29.852  43.355  54.815  1.00  0.00     0.001 A 
HETATM   27  C   UNL     1      30.591  44.184  55.657  1.00  0.00     0.000 A 
HETATM   28  C   UNL     1      30.061  45.403  56.074  1.00  0.00     0.001 A 
HETATM   29  C   UNL     1      28.790  45.796  55.650  1.00  0.00     0.008 A 
ENDBRANCH  23  24
ENDBRANCH  22  23
ENDBRANCH   1  22
TORSDOF 5
ENDMDL
MODEL 5
REMARK VINA RESULT:      -9.2      3.488      5.515
REMARK  5 active torsions:
REMARK  status: ('A' for Active; 'I' for Inactive)
REMARK    1  A    between atoms: C_4  and  C_5 
REMARK    2  A    between atoms: C_5  and  S_6 
REMARK    3  A    between atoms: S_6  and  C_7 
REMARK    4  A    between atoms: C_9  and  C_10 
REMARK       I    between atoms: C_10  and  N_11 
REMARK    5  A    between atoms: N_11  and  C_12 
ROOT
HETATM    1  C   UNL     1      25.472  46.599  50.868  1.00  0.00     0.189 A 
HETATM    2  N   UNL     1      24.380  47.083  50.258  1.00  0.00    -0.216 NA
HETATM    3  C   UNL     1      24.579  48.154  49.427  1.00  0.00     0.150 A 
HETATM    4  C   UNL     1      25.821  48.702  49.162  1.00  0.00     0.086 A 
HETATM    5 CL   UNL     1      26.181  49.990  48.089  1.00  0.00    -0.080 Cl
HETATM    6  C   UNL     1      26.861  48.094  49.827  1.00  0.00     0.146 A 
HETATM    7  N   UNL     1      26.715  47.060  50.681  1.00  0.00    -0.234 NA
ENDROOT
BRANCH   3   8
HETATM    8  C   UNL     1      23.307  48.693  48.825  1.00  0.00     0.278 C 
HETATM    9  N   UNL     1      22.536  49.386  49.736  1.00  0.00    -0.300 N 
HETATM   10  H   UNL     1      22.872  49.485  50.685  1.00  0.00     0.171 HD
HETATM   11  O   UNL     1      23.044  48.510  47.646  1.00  0.00    -0.265 OA
BRANCH   9  12
HETATM   12  C   UNL     1      21.335  49.945  49.410  1.00  0.00     0.174 A 
HETATM   13  S   UNL     1      20.025  48.855  49.443  1.00  0.00    -0.050 SA
HETATM   14  C   UNL     1      18.969  50.128  48.946  1.00  0.00     0.039 A 
HETATM   15  C   UNL     1      19.714  51.303  48.815  1.00  0.00     0.077 A 
HETATM   16  C   UNL     1      17.587  50.091  48.694  1.00  0.00     0.045 A 
HETATM   17  N   UNL     1      21.064  51.178  49.076  1.00  0.00    -0.223 NA
HETATM   18  C   UNL     1      19.053  52.489  48.434  1.00  0.00     0.035 A 
HETATM   19  C   UNL     1      17.677  52.469  48.185  1.00  0.00     0.026 A 
HETATM   20  C   UNL     1      16.962  51.282  48.311  1.00  0.00     0.035 A 
HETATM   21 CL   UNL     1      15.270  51.276  47.988  1.00  0.00    -0.084 Cl
ENDBRANCH   9  12
ENDBRANCH   3   8
BRANCH   1  22
HETATM   22  S   UNL     1      25.276  45.315  52.065  1.00  0.00    -0.086 SA
BRANCH  22  23
HETATM   23  C   UNL     1      26.610  44.213  51.521  1.00  0.00     0.121 C 
BRANCH  23  24
HETATM   24  C   UNL     1      27.672  44.077  52.584  1.00  0.00    -0.049 A 
HETATM   25  C   UNL     1      28.741  43.182  52.416  1.00  0.00     0.008 A 
HETATM   26  C   UNL     1      29.705  43.035  53.415  1.00  0.00     0.001 A 
HETATM   27  C   UNL     1      29.612  43.778  54.591  1.00  0.00     0.000 A 
HETATM   28  C   UNL     1      28.554  44.666  54.771  1.00  0.00     0.001 A 
HETATM   29  C   UNL     1      27.586  44.813  53.776  1.00  0.00     0.008 A 
ENDBRANCH  23  24
ENDBRANCH  22  23
ENDBRANCH   1  22
TORSDOF 5
ENDMDL
MODEL 6
REMARK VINA RESULT:      -8.9      3.211     10.458
REMARK  5 active torsions:
REMARK  status: ('A' for Active; 'I' for Inactive)
REMARK    1  A    between atoms: C_4  and  C_5 
REMARK    2  A    between atoms: C_5  and  S_6 
REMARK    3  A    between atoms: S_6  and  C_7 
REMARK    4  A    between atoms: C_9  and  C_10 
REMARK       I    between atoms: C_10  and  N_11 
REMARK    5  A    between atoms: N_11  and  C_12 
ROOT
HETATM    1  C   UNL     1      22.728  48.951  48.192  1.00  0.00     0.189 A 
HETATM    2  N   UNL     1      23.281  48.184  49.143  1.00  0.00    -0.216 NA
HETATM    3  C   UNL     1      24.620  48.373  49.368  1.00  0.00     0.150 A 
HETATM    4  C   UNL     1      25.382  49.324  48.714  1.00  0.00     0.086 A 
HETATM    5 CL   UNL     1      27.038  49.684  48.974  1.00  0.00    -0.080 Cl
HETATM    6  C   UNL     1      24.688  50.064  47.785  1.00  0.00     0.146 A 
HETATM    7  N   UNL     1      23.380  49.895  47.503  1.00  0.00    -0.234 NA
ENDROOT
BRANCH   3   8
HETATM    8  C   UNL     1      25.196  47.437  50.398  1.00  0.00     0.278 C 
HETATM    9  N   UNL     1      25.820  46.342  49.836  1.00  0.00    -0.300 N 
HETATM   10  H   UNL     1      25.855  46.263  48.827  1.00  0.00     0.171 HD
HETATM   11  O   UNL     1      25.094  47.677  51.591  1.00  0.00    -0.265 OA
BRANCH   9  12
HETATM   12  C   UNL     1      26.398  45.357  50.584  1.00  0.00     0.174 A 
HETATM   13  S   UNL     1      26.689  43.911  49.731  1.00  0.00    -0.050 SA
HETATM   14  C   UNL     1      27.326  43.204  51.171  1.00  0.00     0.039 A 
HETATM   15  C   UNL     1      27.281  44.154  52.195  1.00  0.00     0.077 A 
HETATM   16  C   UNL     1      27.829  41.909  51.380  1.00  0.00     0.045 A 
HETATM   17  N   UNL     1      26.741  45.375  51.844  1.00  0.00    -0.223 NA
HETATM   18  C   UNL     1      27.772  43.805  53.470  1.00  0.00     0.035 A 
HETATM   19  C   UNL     1      28.281  42.521  53.692  1.00  0.00     0.026 A 
HETATM   20  C   UNL     1      28.301  41.590  52.657  1.00  0.00     0.035 A 
HETATM   21 CL   UNL     1      28.921  40.011  52.954  1.00  0.00    -0.084 Cl
ENDBRANCH   9  12
ENDBRANCH   3   8
BRANCH   1  22
HETATM   22  S   UNL     1      21.045  48.665  47.743  1.00  0.00    -0.086 SA
BRANCH  22  23
HETATM   23  C   UNL     1      20.256  49.058  49.328  1.00  0.00     0.121 C 
BRANCH  23  24
HETATM   24  C   UNL     1      19.427  50.314  49.228  1.00  0.00    -0.049 A 
HETATM   25  C   UNL     1      19.843  51.384  48.420  1.00  0.00     0.008 A 
HETATM   26  C   UNL     1      19.089  52.558  48.354  1.00  0.00     0.001 A 
HETATM   27  C   UNL     1      17.914  52.676  49.095  1.00  0.00     0.000 A 
HETATM   28  C   UNL     1      17.493  51.623  49.903  1.00  0.00     0.001 A 
HETATM   29  C   UNL     1      18.245  50.450  49.974  1.00  0.00     0.008 A 
ENDBRANCH  23  24
ENDBRANCH  22  23
ENDBRANCH   1  22
TORSDOF 5
ENDMDL
MODEL 7
REMARK VINA RESULT:      -8.8      2.785      9.308
REMARK  5 active torsions:
REMARK  status: ('A' for Active; 'I' for Inactive)
REMARK    1  A    between atoms: C_4  and  C_5 
REMARK    2  A    between atoms: C_5  and  S_6 
REMARK    3  A    between atoms: S_6  and  C_7 
REMARK    4  A    between atoms: C_9  and  C_10 
REMARK       I    between atoms: C_10  and  N_11 
REMARK    5  A    between atoms: N_11  and  C_12 
ROOT
HETATM    1  C   UNL     1      23.255  44.753  48.435  1.00  0.00     0.189 A 
HETATM    2  N   UNL     1      24.356  44.959  49.173  1.00  0.00    -0.216 NA
HETATM    3  C   UNL     1      25.209  43.894  49.293  1.00  0.00     0.150 A 
HETATM    4  C   UNL     1      25.015  42.677  48.664  1.00  0.00     0.086 A 
HETATM    5 CL   UNL     1      26.055  41.315  48.694  1.00  0.00    -0.080 Cl
HETATM    6  C   UNL     1      23.864  42.607  47.913  1.00  0.00     0.146 A 
HETATM    7  N   UNL     1      22.975  43.614  47.790  1.00  0.00    -0.234 NA
ENDROOT
BRANCH   3   8
HETATM    8  C   UNL     1      26.391  44.167  50.187  1.00  0.00     0.278 C 
HETATM    9  N   UNL     1      26.178  43.766  51.491  1.00  0.00    -0.300 N 
HETATM   10  H   UNL     1      25.297  43.330  51.731  1.00  0.00     0.171 HD
HETATM   11  O   UNL     1      27.406  44.685  49.747  1.00  0.00    -0.265 OA
BRANCH   9  12
HETATM   12  C   UNL     1      27.109  43.933  52.475  1.00  0.00     0.174 A 
HETATM   13  S   UNL     1      28.157  42.605  52.678  1.00  0.00    -0.050 SA
HETATM   14  C   UNL     1      28.944  43.438  53.969  1.00  0.00     0.039 A 
HETATM   15  C   UNL     1      28.343  44.690  54.126  1.00  0.00     0.077 A 
HETATM   16  C   UNL     1      30.011  43.018  54.780  1.00  0.00     0.045 A 
HETATM   17  N   UNL     1      27.292  44.952  53.270  1.00  0.00    -0.223 NA
HETATM   18  C   UNL     1      28.837  45.562  55.118  1.00  0.00     0.035 A 
HETATM   19  C   UNL     1      29.903  45.160  55.930  1.00  0.00     0.026 A 
HETATM   20  C   UNL     1      30.474  43.902  55.760  1.00  0.00     0.035 A 
HETATM   21 CL   UNL     1      31.778  43.421  56.777  1.00  0.00    -0.084 Cl
ENDBRANCH   9  12
ENDBRANCH   3   8
BRANCH   1  22
HETATM   22  S   UNL     1      22.037  46.028  48.353  1.00  0.00    -0.086 SA
BRANCH  22  23
HETATM   23  C   UNL     1      23.101  47.461  48.674  1.00  0.00     0.121 C 
BRANCH  23  24
HETATM   24  C   UNL     1      22.321  48.749  48.592  1.00  0.00    -0.049 A 
HETATM   25  C   UNL     1      20.991  48.753  48.143  1.00  0.00     0.008 A 
HETATM   26  C   UNL     1      20.282  49.952  48.039  1.00  0.00     0.001 A 
HETATM   27  C   UNL     1      20.893  51.157  48.381  1.00  0.00     0.000 A 
HETATM   28  C   UNL     1      22.213  51.166  48.824  1.00  0.00     0.001 A 
HETATM   29  C   UNL     1      22.926  49.971  48.926  1.00  0.00     0.008 A 
ENDBRANCH  23  24
ENDBRANCH  22  23
ENDBRANCH   1  22
TORSDOF 5
ENDMDL
MODEL 8
REMARK VINA RESULT:      -8.8      3.077      4.622
REMARK  5 active torsions:
REMARK  status: ('A' for Active; 'I' for Inactive)
REMARK    1  A    between atoms: C_4  and  C_5 
REMARK    2  A    between atoms: C_5  and  S_6 
REMARK    3  A    between atoms: S_6  and  C_7 
REMARK    4  A    between atoms: C_9  and  C_10 
REMARK       I    between atoms: C_10  and  N_11 
REMARK    5  A    between atoms: N_11  and  C_12 
ROOT
HETATM    1  C   UNL     1      25.126  45.124  50.185  1.00  0.00     0.189 A 
HETATM    2  N   UNL     1      24.259  46.062  49.776  1.00  0.00    -0.216 NA
HETATM    3  C   UNL     1      23.410  45.698  48.764  1.00  0.00     0.150 A 
HETATM    4  C   UNL     1      23.379  44.433  48.203  1.00  0.00     0.086 A 
HETATM    5 CL   UNL     1      22.312  43.863  46.988  1.00  0.00    -0.080 Cl
HETATM    6  C   UNL     1      24.298  43.558  48.732  1.00  0.00     0.146 A 
HETATM    7  N   UNL     1      25.178  43.875  49.705  1.00  0.00    -0.234 NA
ENDROOT
BRANCH   3   8
HETATM    8  C   UNL     1      22.507  46.813  48.305  1.00  0.00     0.278 C 
HETATM    9  N   UNL     1      21.943  47.509  49.354  1.00  0.00    -0.300 N 
HETATM   10  H   UNL     1      22.176  47.241  50.302  1.00  0.00     0.171 HD
HETATM   11  O   UNL     1      22.336  47.034  47.116  1.00  0.00    -0.265 OA
BRANCH   9  12
HETATM   12  C   UNL     1      21.078  48.549  49.169  1.00  0.00     0.174 A 
HETATM   13  S   UNL     1      19.433  48.113  49.242  1.00  0.00    -0.050 SA
HETATM   14  C   UNL     1      18.995  49.752  48.920  1.00  0.00     0.039 A 
HETATM   15  C   UNL     1      20.162  50.512  48.803  1.00  0.00     0.077 A 
HETATM   16  C   UNL     1      17.719  50.322  48.784  1.00  0.00     0.045 A 
HETATM   17  N   UNL     1      21.342  49.807  48.939  1.00  0.00    -0.223 NA
HETATM   18  C   UNL     1      20.051  51.896  48.557  1.00  0.00     0.035 A 
HETATM   19  C   UNL     1      18.787  52.479  48.424  1.00  0.00     0.026 A 
HETATM   20  C   UNL     1      17.642  51.696  48.533  1.00  0.00     0.035 A 
HETATM   21 CL   UNL     1      16.095  52.431  48.355  1.00  0.00    -0.084 Cl
ENDBRANCH   9  12
ENDBRANCH   3   8
BRANCH   1  22
HETATM   22  S   UNL     1      26.348  45.562  51.382  1.00  0.00    -0.086 SA
BRANCH  22  23
HETATM   23  C   UNL     1      27.420  44.106  51.241  1.00  0.00     0.121 C 
BRANCH  23  24
HETATM   24  C   UNL     1      28.279  43.939  52.470  1.00  0.00    -0.049 A 
HETATM   25  C   UNL     1      29.388  43.080  52.457  1.00  0.00     0.008 A 
HETATM   26  C   UNL     1      30.163  42.904  53.605  1.00  0.00     0.001 A 
HETATM   27  C   UNL     1      29.837  43.583  54.778  1.00  0.00     0.000 A 
HETATM   28  C   UNL     1      28.736  44.436  54.805  1.00  0.00     0.001 A 
HETATM   29  C   UNL     1      27.957  44.611  53.660  1.00  0.00     0.008 A 
ENDBRANCH  23  24
ENDBRANCH  22  23
ENDBRANCH   1  22
TORSDOF 5
ENDMDL
MODEL 9
REMARK VINA RESULT:      -8.7      3.938      5.704
REMARK  5 active torsions:
REMARK  status: ('A' for Active; 'I' for Inactive)
REMARK    1  A    between atoms: C_4  and  C_5 
REMARK    2  A    between atoms: C_5  and  S_6 
REMARK    3  A    between atoms: S_6  and  C_7 
REMARK    4  A    between atoms: C_9  and  C_10 
REMARK       I    between atoms: C_10  and  N_11 
REMARK    5  A    between atoms: N_11  and  C_12 
ROOT
HETATM    1  C   UNL     1      24.877  46.757  50.075  1.00  0.00     0.189 A 
HETATM    2  N   UNL     1      23.886  47.612  49.783  1.00  0.00    -0.216 NA
HETATM    3  C   UNL     1      22.907  47.138  48.949  1.00  0.00     0.150 A 
HETATM    4  C   UNL     1      22.875  45.846  48.456  1.00  0.00     0.086 A 
HETATM    5 CL   UNL     1      21.664  45.141  47.469  1.00  0.00    -0.080 Cl
HETATM    6  C   UNL     1      23.933  45.063  48.855  1.00  0.00     0.146 A 
HETATM    7  N   UNL     1      24.939  45.490  49.647  1.00  0.00    -0.234 NA
ENDROOT
BRANCH   3   8
HETATM    8  C   UNL     1      21.860  48.165  48.605  1.00  0.00     0.278 C 
HETATM    9  N   UNL     1      20.821  48.194  49.514  1.00  0.00    -0.300 N 
HETATM   10  H   UNL     1      20.848  47.566  50.307  1.00  0.00     0.171 HD
HETATM   11  O   UNL     1      21.975  48.874  47.617  1.00  0.00    -0.265 OA
BRANCH   9  12
HETATM   12  C   UNL     1      19.755  49.037  49.389  1.00  0.00     0.174 A 
HETATM   13  S   UNL     1      19.979  50.560  50.118  1.00  0.00    -0.050 SA
HETATM   14  C   UNL     1      18.385  51.014  49.634  1.00  0.00     0.039 A 
HETATM   15  C   UNL     1      17.813  49.953  48.926  1.00  0.00     0.077 A 
HETATM   16  C   UNL     1      17.694  52.215  49.861  1.00  0.00     0.045 A 
HETATM   17  N   UNL     1      18.607  48.830  48.803  1.00  0.00    -0.223 NA
HETATM   18  C   UNL     1      16.509  50.103  48.411  1.00  0.00     0.035 A 
HETATM   19  C   UNL     1      15.811  51.296  48.624  1.00  0.00     0.026 A 
HETATM   20  C   UNL     1      16.400  52.331  49.344  1.00  0.00     0.035 A 
HETATM   21 CL   UNL     1      15.518  53.787  49.605  1.00  0.00    -0.084 Cl
ENDBRANCH   9  12
ENDBRANCH   3   8
BRANCH   1  22
HETATM   22  S   UNL     1      26.247  47.339  51.024  1.00  0.00    -0.086 SA
BRANCH  22  23
HETATM   23  C   UNL     1      25.596  47.027  52.687  1.00  0.00     0.121 C 
BRANCH  23  24
HETATM   24  C   UNL     1      26.665  46.478  53.598  1.00  0.00    -0.049 A 
HETATM   25  C   UNL     1      27.305  47.307  54.532  1.00  0.00     0.008 A 
HETATM   26  C   UNL     1      28.316  46.803  55.353  1.00  0.00     0.001 A 
HETATM   27  C   UNL     1      28.700  45.467  55.248  1.00  0.00     0.000 A 
HETATM   28  C   UNL     1      28.075  44.635  54.322  1.00  0.00     0.001 A 
HETATM   29  C   UNL     1      27.066  45.136  53.498  1.00  0.00     0.008 A 
ENDBRANCH  23  24
ENDBRANCH  22  23
ENDBRANCH   1  22
TORSDOF 5
ENDMDL
MODEL 10
REMARK VINA RESULT:      -8.6      1.714      2.322
REMARK  5 active torsions:
REMARK  status: ('A' for Active; 'I' for Inactive)
REMARK    1  A    between atoms: C_4  and  C_5 
REMARK    2  A    between atoms: C_5  and  S_6 
REMARK    3  A    between atoms: S_6  and  C_7 
REMARK    4  A    between atoms: C_9  and  C_10 
REMARK       I    between atoms: C_10  and  N_11 
REMARK    5  A    between atoms: N_11  and  C_12 
ROOT
HETATM    1  C   UNL     1      27.053  42.159  51.596  1.00  0.00     0.189 A 
HETATM    2  N   UNL     1      26.063  43.047  51.419  1.00  0.00    -0.216 NA
HETATM    3  C   UNL     1      25.145  42.740  50.449  1.00  0.00     0.150 A 
HETATM    4  C   UNL     1      25.169  41.572  49.709  1.00  0.00     0.086 A 
HETATM    5 CL   UNL     1      24.032  41.067  48.528  1.00  0.00    -0.080 Cl
HETATM    6  C   UNL     1      26.218  40.734  50.009  1.00  0.00     0.146 A 
HETATM    7  N   UNL     1      27.166  41.003  50.930  1.00  0.00    -0.234 NA
ENDROOT
BRANCH   3   8
HETATM    8  C   UNL     1      24.098  43.806  50.252  1.00  0.00     0.278 C 
HETATM    9  N   UNL     1      24.515  44.815  49.408  1.00  0.00    -0.300 N 
HETATM   10  H   UNL     1      25.437  44.758  48.995  1.00  0.00     0.171 HD
HETATM   11  O   UNL     1      23.011  43.728  50.804  1.00  0.00    -0.265 OA
BRANCH   9  12
HETATM   12  C   UNL     1      23.732  45.891  49.102  1.00  0.00     0.174 A 
HETATM   13  S   UNL     1      24.213  47.341  49.856  1.00  0.00    -0.050 SA
HETATM   14  C   UNL     1      22.887  48.156  49.109  1.00  0.00     0.039 A 
HETATM   15  C   UNL     1      22.189  47.242  48.316  1.00  0.00     0.077 A 
HETATM   16  C   UNL     1      22.496  49.501  49.214  1.00  0.00     0.045 A 
HETATM   17  N   UNL     1      22.681  45.951  48.331  1.00  0.00    -0.223 NA
HETATM   18  C   UNL     1      21.068  47.689  47.587  1.00  0.00     0.035 A 
HETATM   19  C   UNL     1      20.669  49.027  47.677  1.00  0.00     0.026 A 
HETATM   20  C   UNL     1      21.376  49.913  48.485  1.00  0.00     0.035 A 
HETATM   21 CL   UNL     1      20.862  51.553  48.591  1.00  0.00    -0.084 Cl
ENDBRANCH   9  12
ENDBRANCH   3   8
BRANCH   1  22
HETATM   22  S   UNL     1      28.353  42.552  52.724  1.00  0.00    -0.086 SA
BRANCH  22  23
HETATM   23  C   UNL     1      27.352  43.086  54.139  1.00  0.00     0.121 C 
BRANCH  23  24
HETATM   24  C   UNL     1      27.574  44.546  54.445  1.00  0.00    -0.049 A 
HETATM   25  C   UNL     1      26.625  45.508  54.068  1.00  0.00     0.008 A 
HETATM   26  C   UNL     1      26.848  46.863  54.325  1.00  0.00     0.001 A 
HETATM   27  C   UNL     1      28.021  47.270  54.958  1.00  0.00     0.000 A 
HETATM   28  C   UNL     1      28.973  46.325  55.333  1.00  0.00     0.001 A 
HETATM   29  C   UNL     1      28.755  44.970  55.075  1.00  0.00     0.008 A 
ENDBRANCH  23  24
ENDBRANCH  22  23
ENDBRANCH   1  22
TORSDOF 5
ENDMDL
