MODEL 1
REMARK VINA RESULT:      -9.0      0.000      0.000
REMARK  6 active torsions:
REMARK  status: ('A' for Active; 'I' for Inactive)
REMARK    1  A    between atoms: C_7  and  S_8 
REMARK    2  A    between atoms: S_8  and  C_9 
REMARK    3  A    between atoms: C_9  and  C_10 
REMARK    4  A    between atoms: C_18  and  C_19 
REMARK    5  A    between atoms: C_26  and  C_27 
REMARK    6  A    between atoms: C_27  and  O_28 
ROOT
HETATM    1  C   UNL     1      28.929  38.388  48.753  1.00  0.00     0.070 C 
HETATM    2  C   UNL     1      28.417  39.640  49.420  1.00  0.00     0.037 A 
HETATM    3  N   UNL     1      28.461  39.657  50.811  1.00  0.00    -0.192 N 
HETATM    4  C   UNL     1      28.190  40.757  51.540  1.00  0.00     0.726 A 
HETATM    5  N   UNL     1      27.713  41.877  50.914  1.00  0.00    -0.082 N 
HETATM    6  N   UNL     1      27.554  42.893  51.783  1.00  0.00    -0.128 NA
HETATM    7  C   UNL     1      27.926  42.307  52.926  1.00  0.00     0.226 A 
HETATM    8  N   UNL     1      28.321  40.995  52.818  1.00  0.00    -0.035 NA
HETATM    9  C   UNL     1      27.460  41.971  49.468  1.00  0.00     0.204 A 
HETATM   10  C   UNL     1      27.969  40.729  48.751  1.00  0.00     0.070 A 
HETATM   11  H   UNL     1      28.865  38.849  51.277  1.00  0.00     0.184 HD
ENDROOT
BRANCH   7  12
HETATM   12  S   UNL     1      27.892  43.177  54.434  1.00  0.00    -0.083 SA
BRANCH  12  13
HETATM   13  C   UNL     1      29.462  44.076  54.304  1.00  0.00     0.123 C 
BRANCH  13  14
HETATM   14  C   UNL     1      30.044  44.386  55.663  1.00  0.00    -0.027 A 
HETATM   15  C   UNL     1      29.638  45.487  56.435  1.00  0.00     0.041 A 
HETATM   16 CL   UNL     1      28.439  46.602  55.881  1.00  0.00    -0.084 Cl
HETATM   17  C   UNL     1      30.202  45.719  57.694  1.00  0.00     0.024 A 
HETATM   18  C   UNL     1      31.174  44.857  58.199  1.00  0.00     0.002 A 
HETATM   19  C   UNL     1      31.583  43.758  57.450  1.00  0.00     0.001 A 
HETATM   20  C   UNL     1      31.020  43.522  56.194  1.00  0.00     0.009 A 
ENDBRANCH  13  14
ENDBRANCH  12  13
ENDBRANCH   7  12
BRANCH   9  21
HETATM   21  C   UNL     1      25.971  42.209  49.218  1.00  0.00    -0.006 A 
HETATM   22  C   UNL     1      25.404  43.495  49.201  1.00  0.00     0.042 A 
HETATM   23 CL   UNL     1      26.341  44.926  49.447  1.00  0.00    -0.084 Cl
HETATM   24  C   UNL     1      24.035  43.670  48.963  1.00  0.00     0.024 A 
HETATM   25  C   UNL     1      23.210  42.571  48.737  1.00  0.00     0.002 A 
HETATM   26  C   UNL     1      23.751  41.290  48.743  1.00  0.00     0.001 A 
HETATM   27  C   UNL     1      25.115  41.110  48.978  1.00  0.00     0.011 A 
ENDBRANCH   9  21
BRANCH  10  28
HETATM   28  C   UNL     1      27.945  40.767  47.278  1.00  0.00     0.293 C 
HETATM   29  O   UNL     1      28.627  41.509  46.593  1.00  0.00    -0.259 OA
BRANCH  28  30
HETATM   30  O   UNL     1      27.020  39.881  46.835  1.00  0.00    -0.323 OA
HETATM   31  C   UNL     1      26.551  40.140  45.512  1.00  0.00     0.213 C 
ENDBRANCH  28  30
ENDBRANCH  10  28
TORSDOF 6
ENDMDL
MODEL 2
REMARK VINA RESULT:      -8.7     12.619     15.164
REMARK  6 active torsions:
REMARK  status: ('A' for Active; 'I' for Inactive)
REMARK    1  A    between atoms: C_7  and  S_8 
REMARK    2  A    between atoms: S_8  and  C_9 
REMARK    3  A    between atoms: C_9  and  C_10 
REMARK    4  A    between atoms: C_18  and  C_19 
REMARK    5  A    between atoms: C_26  and  C_27 
REMARK    6  A    between atoms: C_27  and  O_28 
ROOT
HETATM    1  C   UNL     1      34.199  49.333  41.467  1.00  0.00     0.070 C 
HETATM    2  C   UNL     1      32.736  49.215  41.121  1.00  0.00     0.037 A 
HETATM    3  N   UNL     1      32.329  48.000  40.579  1.00  0.00    -0.192 N 
HETATM    4  C   UNL     1      31.036  47.686  40.368  1.00  0.00     0.726 A 
HETATM    5  N   UNL     1      30.075  48.642  40.556  1.00  0.00    -0.082 N 
HETATM    6  N   UNL     1      28.841  48.141  40.357  1.00  0.00    -0.128 NA
HETATM    7  C   UNL     1      29.132  46.880  40.020  1.00  0.00     0.226 A 
HETATM    8  N   UNL     1      30.470  46.564  40.012  1.00  0.00    -0.035 NA
HETATM    9  C   UNL     1      30.353  50.024  40.976  1.00  0.00     0.204 A 
HETATM   10  C   UNL     1      31.821  50.188  41.344  1.00  0.00     0.070 A 
HETATM   11  H   UNL     1      33.030  47.269  40.487  1.00  0.00     0.184 HD
ENDROOT
BRANCH   7  12
HETATM   12  S   UNL     1      27.877  45.745  39.615  1.00  0.00    -0.083 SA
BRANCH  12  13
HETATM   13  C   UNL     1      27.072  46.646  38.263  1.00  0.00     0.123 C 
BRANCH  13  14
HETATM   14  C   UNL     1      25.831  47.368  38.730  1.00  0.00    -0.027 A 
HETATM   15  C   UNL     1      25.660  48.756  38.600  1.00  0.00     0.041 A 
HETATM   16 CL   UNL     1      26.876  49.768  37.904  1.00  0.00    -0.084 Cl
HETATM   17  C   UNL     1      24.482  49.371  39.039  1.00  0.00     0.024 A 
HETATM   18  C   UNL     1      23.461  48.612  39.609  1.00  0.00     0.002 A 
HETATM   19  C   UNL     1      23.613  47.234  39.739  1.00  0.00     0.001 A 
HETATM   20  C   UNL     1      24.785  46.617  39.300  1.00  0.00     0.009 A 
ENDBRANCH  13  14
ENDBRANCH  12  13
ENDBRANCH   7  12
BRANCH   9  21
HETATM   21  C   UNL     1      29.924  50.995  39.876  1.00  0.00    -0.006 A 
HETATM   22  C   UNL     1      28.970  52.005  40.091  1.00  0.00     0.042 A 
HETATM   23 CL   UNL     1      28.204  52.248  41.620  1.00  0.00    -0.084 Cl
HETATM   24  C   UNL     1      28.608  52.878  39.058  1.00  0.00     0.024 A 
HETATM   25  C   UNL     1      29.190  52.762  37.797  1.00  0.00     0.002 A 
HETATM   26  C   UNL     1      30.142  51.775  37.565  1.00  0.00     0.001 A 
HETATM   27  C   UNL     1      30.507  50.903  38.592  1.00  0.00     0.011 A 
ENDBRANCH   9  21
BRANCH  10  28
HETATM   28  C   UNL     1      32.204  51.474  41.954  1.00  0.00     0.293 C 
HETATM   29  O   UNL     1      32.750  52.387  41.359  1.00  0.00    -0.259 OA
BRANCH  28  30
HETATM   30  O   UNL     1      31.888  51.442  43.271  1.00  0.00    -0.323 OA
HETATM   31  C   UNL     1      32.968  51.787  44.138  1.00  0.00     0.213 C 
ENDBRANCH  28  30
ENDBRANCH  10  28
TORSDOF 6
ENDMDL
MODEL 3
REMARK VINA RESULT:      -8.4     11.266     14.183
REMARK  6 active torsions:
REMARK  status: ('A' for Active; 'I' for Inactive)
REMARK    1  A    between atoms: C_7  and  S_8 
REMARK    2  A    between atoms: S_8  and  C_9 
REMARK    3  A    between atoms: C_9  and  C_10 
REMARK    4  A    between atoms: C_18  and  C_19 
REMARK    5  A    between atoms: C_26  and  C_27 
REMARK    6  A    between atoms: C_27  and  O_28 
ROOT
HETATM    1  C   UNL     1      34.131  49.325  41.555  1.00  0.00     0.070 C 
HETATM    2  C   UNL     1      32.681  49.170  41.169  1.00  0.00     0.037 A 
HETATM    3  N   UNL     1      32.325  47.952  40.599  1.00  0.00    -0.192 N 
HETATM    4  C   UNL     1      31.048  47.604  40.350  1.00  0.00     0.726 A 
HETATM    5  N   UNL     1      30.053  48.528  40.528  1.00  0.00    -0.082 N 
HETATM    6  N   UNL     1      28.840  47.994  40.289  1.00  0.00    -0.128 NA
HETATM    7  C   UNL     1      29.178  46.748  39.941  1.00  0.00     0.226 A 
HETATM    8  N   UNL     1      30.524  46.471  39.964  1.00  0.00    -0.035 NA
HETATM    9  C   UNL     1      30.280  49.911  40.974  1.00  0.00     0.204 A 
HETATM   10  C   UNL     1      31.733  50.113  41.383  1.00  0.00     0.070 A 
HETATM   11  H   UNL     1      33.049  47.243  40.515  1.00  0.00     0.184 HD
ENDROOT
BRANCH   7  12
HETATM   12  S   UNL     1      27.967  45.582  39.488  1.00  0.00    -0.083 SA
BRANCH  12  13
HETATM   13  C   UNL     1      26.473  46.488  39.975  1.00  0.00     0.123 C 
BRANCH  13  14
HETATM   14  C   UNL     1      25.750  45.805  41.113  1.00  0.00    -0.027 A 
HETATM   15  C   UNL     1      24.424  46.106  41.465  1.00  0.00     0.041 A 
HETATM   16 CL   UNL     1      23.505  47.308  40.631  1.00  0.00    -0.084 Cl
HETATM   17  C   UNL     1      23.799  45.433  42.520  1.00  0.00     0.024 A 
HETATM   18  C   UNL     1      24.485  44.452  43.234  1.00  0.00     0.002 A 
HETATM   19  C   UNL     1      25.797  44.137  42.893  1.00  0.00     0.001 A 
HETATM   20  C   UNL     1      26.424  44.805  41.839  1.00  0.00     0.009 A 
ENDBRANCH  13  14
ENDBRANCH  12  13
ENDBRANCH   7  12
BRANCH   9  21
HETATM   21  C   UNL     1      29.851  50.886  39.878  1.00  0.00    -0.006 A 
HETATM   22  C   UNL     1      28.861  51.863  40.082  1.00  0.00     0.042 A 
HETATM   23 CL   UNL     1      28.048  52.059  41.594  1.00  0.00    -0.084 Cl
HETATM   24  C   UNL     1      28.500  52.740  39.053  1.00  0.00     0.024 A 
HETATM   25  C   UNL     1      29.118  52.662  37.807  1.00  0.00     0.002 A 
HETATM   26  C   UNL     1      30.105  51.708  37.585  1.00  0.00     0.001 A 
HETATM   27  C   UNL     1      30.470  50.832  38.609  1.00  0.00     0.011 A 
ENDBRANCH   9  21
BRANCH  10  28
HETATM   28  C   UNL     1      32.062  51.399  42.021  1.00  0.00     0.293 C 
HETATM   29  O   UNL     1      32.513  52.368  41.434  1.00  0.00    -0.259 OA
BRANCH  28  30
HETATM   30  O   UNL     1      31.821  51.300  43.350  1.00  0.00    -0.323 OA
HETATM   31  C   UNL     1      32.895  51.753  44.174  1.00  0.00     0.213 C 
ENDBRANCH  28  30
ENDBRANCH  10  28
TORSDOF 6
ENDMDL
MODEL 4
REMARK VINA RESULT:      -8.1      9.309     12.896
REMARK  6 active torsions:
REMARK  status: ('A' for Active; 'I' for Inactive)
REMARK    1  A    between atoms: C_7  and  S_8 
REMARK    2  A    between atoms: S_8  and  C_9 
REMARK    3  A    between atoms: C_9  and  C_10 
REMARK    4  A    between atoms: C_18  and  C_19 
REMARK    5  A    between atoms: C_26  and  C_27 
REMARK    6  A    between atoms: C_27  and  O_28 
ROOT
HETATM    1  C   UNL     1      21.313  45.413  45.282  1.00  0.00     0.070 C 
HETATM    2  C   UNL     1      20.353  46.264  46.075  1.00  0.00     0.037 A 
HETATM    3  N   UNL     1      19.238  46.735  45.388  1.00  0.00    -0.192 N 
HETATM    4  C   UNL     1      18.216  47.369  45.994  1.00  0.00     0.726 A 
HETATM    5  N   UNL     1      18.322  47.699  47.319  1.00  0.00    -0.082 N 
HETATM    6  N   UNL     1      17.192  48.272  47.772  1.00  0.00    -0.128 NA
HETATM    7  C   UNL     1      16.452  48.286  46.658  1.00  0.00     0.226 A 
HETATM    8  N   UNL     1      17.047  47.743  45.545  1.00  0.00    -0.035 NA
HETATM    9  C   UNL     1      19.501  47.413  48.150  1.00  0.00     0.204 A 
HETATM   10  C   UNL     1      20.497  46.547  47.392  1.00  0.00     0.070 A 
HETATM   11  H   UNL     1      19.128  46.447  44.419  1.00  0.00     0.184 HD
ENDROOT
BRANCH   7  12
HETATM   12  S   UNL     1      14.848  48.963  46.653  1.00  0.00    -0.083 SA
BRANCH  12  13
HETATM   13  C   UNL     1      15.238  50.672  46.188  1.00  0.00     0.123 C 
BRANCH  13  14
HETATM   14  C   UNL     1      16.164  51.327  47.185  1.00  0.00    -0.027 A 
HETATM   15  C   UNL     1      17.506  51.625  46.898  1.00  0.00     0.041 A 
HETATM   16 CL   UNL     1      18.224  51.246  45.373  1.00  0.00    -0.084 Cl
HETATM   17  C   UNL     1      18.316  52.245  47.856  1.00  0.00     0.024 A 
HETATM   18  C   UNL     1      17.799  52.578  49.107  1.00  0.00     0.002 A 
HETATM   19  C   UNL     1      16.469  52.295  49.404  1.00  0.00     0.001 A 
HETATM   20  C   UNL     1      15.657  51.678  48.450  1.00  0.00     0.009 A 
ENDBRANCH  13  14
ENDBRANCH  12  13
ENDBRANCH   7  12
BRANCH   9  21
HETATM   21  C   UNL     1      20.126  48.723  48.630  1.00  0.00    -0.006 A 
HETATM   22  C   UNL     1      19.836  49.283  49.886  1.00  0.00     0.042 A 
HETATM   23 CL   UNL     1      18.755  48.536  51.008  1.00  0.00    -0.084 Cl
HETATM   24  C   UNL     1      20.434  50.483  50.289  1.00  0.00     0.024 A 
HETATM   25  C   UNL     1      21.331  51.142  49.452  1.00  0.00     0.002 A 
HETATM   26  C   UNL     1      21.639  50.603  48.208  1.00  0.00     0.001 A 
HETATM   27  C   UNL     1      21.046  49.405  47.802  1.00  0.00     0.011 A 
ENDBRANCH   9  21
BRANCH  10  28
HETATM   28  C   UNL     1      21.642  46.034  48.165  1.00  0.00     0.293 C 
HETATM   29  O   UNL     1      22.746  46.550  48.192  1.00  0.00    -0.259 OA
BRANCH  28  30
HETATM   30  O   UNL     1      21.268  44.890  48.788  1.00  0.00    -0.323 OA
HETATM   31  C   UNL     1      22.342  44.192  49.418  1.00  0.00     0.213 C 
ENDBRANCH  28  30
ENDBRANCH  10  28
TORSDOF 6
ENDMDL
MODEL 5
REMARK VINA RESULT:      -8.1      6.970     10.106
REMARK  6 active torsions:
REMARK  status: ('A' for Active; 'I' for Inactive)
REMARK    1  A    between atoms: C_7  and  S_8 
REMARK    2  A    between atoms: S_8  and  C_9 
REMARK    3  A    between atoms: C_9  and  C_10 
REMARK    4  A    between atoms: C_18  and  C_19 
REMARK    5  A    between atoms: C_26  and  C_27 
REMARK    6  A    between atoms: C_27  and  O_28 
ROOT
HETATM    1  C   UNL     1      24.109  43.481  49.408  1.00  0.00     0.070 C 
HETATM    2  C   UNL     1      23.443  44.702  48.822  1.00  0.00     0.037 A 
HETATM    3  N   UNL     1      23.538  45.871  49.570  1.00  0.00    -0.192 N 
HETATM    4  C   UNL     1      23.135  47.071  49.109  1.00  0.00     0.726 A 
HETATM    5  N   UNL     1      22.474  47.143  47.913  1.00  0.00    -0.082 N 
HETATM    6  N   UNL     1      22.199  48.419  47.581  1.00  0.00    -0.128 NA
HETATM    7  C   UNL     1      22.697  49.067  48.640  1.00  0.00     0.226 A 
HETATM    8  N   UNL     1      23.277  48.274  49.601  1.00  0.00    -0.035 NA
HETATM    9  C   UNL     1      22.154  45.979  47.073  1.00  0.00     0.204 A 
HETATM   10  C   UNL     1      22.814  44.722  47.623  1.00  0.00     0.070 A 
HETATM   11  H   UNL     1      24.074  45.834  50.433  1.00  0.00     0.184 HD
ENDROOT
BRANCH   7  12
HETATM   12  S   UNL     1      22.592  50.800  48.764  1.00  0.00    -0.083 SA
BRANCH  12  13
HETATM   13  C   UNL     1      21.244  50.940  49.969  1.00  0.00     0.123 C 
BRANCH  13  14
HETATM   14  C   UNL     1      19.895  51.027  49.294  1.00  0.00    -0.027 A 
HETATM   15  C   UNL     1      18.938  50.002  49.366  1.00  0.00     0.041 A 
HETATM   16 CL   UNL     1      19.234  48.531  50.224  1.00  0.00    -0.084 Cl
HETATM   17  C   UNL     1      17.699  50.141  48.731  1.00  0.00     0.024 A 
HETATM   18  C   UNL     1      17.397  51.303  48.023  1.00  0.00     0.002 A 
HETATM   19  C   UNL     1      18.332  52.331  47.949  1.00  0.00     0.001 A 
HETATM   20  C   UNL     1      19.569  52.197  48.582  1.00  0.00     0.009 A 
ENDBRANCH  13  14
ENDBRANCH  12  13
ENDBRANCH   7  12
BRANCH   9  21
HETATM   21  C   UNL     1      20.638  45.827  46.955  1.00  0.00    -0.006 A 
HETATM   22  C   UNL     1      19.976  45.800  45.715  1.00  0.00     0.042 A 
HETATM   23 CL   UNL     1      20.818  45.924  44.211  1.00  0.00    -0.084 Cl
HETATM   24  C   UNL     1      18.585  45.654  45.650  1.00  0.00     0.024 A 
HETATM   25  C   UNL     1      17.831  45.530  46.815  1.00  0.00     0.002 A 
HETATM   26  C   UNL     1      18.466  45.547  48.052  1.00  0.00     0.001 A 
HETATM   27  C   UNL     1      19.853  45.691  48.123  1.00  0.00     0.011 A 
ENDBRANCH   9  21
BRANCH  10  28
HETATM   28  C   UNL     1      22.728  43.515  46.782  1.00  0.00     0.293 C 
HETATM   29  O   UNL     1      23.484  43.258  45.861  1.00  0.00    -0.259 OA
BRANCH  28  30
HETATM   30  O   UNL     1      21.659  42.784  47.179  1.00  0.00    -0.323 OA
HETATM   31  C   UNL     1      20.913  42.211  46.105  1.00  0.00     0.213 C 
ENDBRANCH  28  30
ENDBRANCH  10  28
TORSDOF 6
ENDMDL
MODEL 6
REMARK VINA RESULT:      -7.7     16.890     18.990
REMARK  6 active torsions:
REMARK  status: ('A' for Active; 'I' for Inactive)
REMARK    1  A    between atoms: C_7  and  S_8 
REMARK    2  A    between atoms: S_8  and  C_9 
REMARK    3  A    between atoms: C_9  and  C_10 
REMARK    4  A    between atoms: C_18  and  C_19 
REMARK    5  A    between atoms: C_26  and  C_27 
REMARK    6  A    between atoms: C_27  and  O_28 
ROOT
HETATM    1  C   UNL     1      39.643  39.260  62.360  1.00  0.00     0.070 C 
HETATM    2  C   UNL     1      39.397  40.435  63.273  1.00  0.00     0.037 A 
HETATM    3  N   UNL     1      38.537  41.417  62.792  1.00  0.00    -0.192 N 
HETATM    4  C   UNL     1      38.096  42.441  63.548  1.00  0.00     0.726 A 
HETATM    5  N   UNL     1      38.613  42.620  64.803  1.00  0.00    -0.082 N 
HETATM    6  N   UNL     1      38.020  43.651  65.434  1.00  0.00    -0.128 NA
HETATM    7  C   UNL     1      37.171  44.071  64.489  1.00  0.00     0.226 A 
HETATM    8  N   UNL     1      37.191  43.355  63.316  1.00  0.00    -0.035 NA
HETATM    9  C   UNL     1      39.647  41.762  65.401  1.00  0.00     0.204 A 
HETATM   10  C   UNL     1      39.923  40.555  64.515  1.00  0.00     0.070 A 
HETATM   11  H   UNL     1      38.108  41.262  61.883  1.00  0.00     0.184 HD
ENDROOT
BRANCH   7  12
HETATM   12  S   UNL     1      36.132  45.441  64.759  1.00  0.00    -0.083 SA
BRANCH  12  13
HETATM   13  C   UNL     1      36.975  46.190  66.179  1.00  0.00     0.123 C 
BRANCH  13  14
HETATM   14  C   UNL     1      37.935  47.276  65.752  1.00  0.00    -0.027 A 
HETATM   15  C   UNL     1      39.307  47.243  66.049  1.00  0.00     0.041 A 
HETATM   16 CL   UNL     1      40.018  45.954  66.954  1.00  0.00    -0.084 Cl
HETATM   17  C   UNL     1      40.152  48.271  65.617  1.00  0.00     0.024 A 
HETATM   18  C   UNL     1      39.643  49.340  64.883  1.00  0.00     0.002 A 
HETATM   19  C   UNL     1      38.286  49.384  64.574  1.00  0.00     0.001 A 
HETATM   20  C   UNL     1      37.439  48.360  65.002  1.00  0.00     0.009 A 
ENDBRANCH  13  14
ENDBRANCH  12  13
ENDBRANCH   7  12
BRANCH   9  21
HETATM   21  C   UNL     1      40.910  42.581  65.667  1.00  0.00    -0.006 A 
HETATM   22  C   UNL     1      41.623  42.498  66.875  1.00  0.00     0.042 A 
HETATM   23 CL   UNL     1      41.144  41.454  68.166  1.00  0.00    -0.084 Cl
HETATM   24  C   UNL     1      42.779  43.262  67.077  1.00  0.00     0.024 A 
HETATM   25  C   UNL     1      43.245  44.117  66.081  1.00  0.00     0.002 A 
HETATM   26  C   UNL     1      42.559  44.209  64.874  1.00  0.00     0.001 A 
HETATM   27  C   UNL     1      41.406  43.449  64.668  1.00  0.00     0.011 A 
ENDBRANCH   9  21
BRANCH  10  28
HETATM   28  C   UNL     1      40.805  39.517  65.077  1.00  0.00     0.293 C 
HETATM   29  O   UNL     1      41.994  39.412  64.831  1.00  0.00    -0.259 OA
BRANCH  28  30
HETATM   30  O   UNL     1      40.066  38.696  65.861  1.00  0.00    -0.323 OA
HETATM   31  C   UNL     1      40.398  37.313  65.733  1.00  0.00     0.213 C 
ENDBRANCH  28  30
ENDBRANCH  10  28
TORSDOF 6
ENDMDL
MODEL 7
REMARK VINA RESULT:      -7.5     17.553     20.151
REMARK  6 active torsions:
REMARK  status: ('A' for Active; 'I' for Inactive)
REMARK    1  A    between atoms: C_7  and  S_8 
REMARK    2  A    between atoms: S_8  and  C_9 
REMARK    3  A    between atoms: C_9  and  C_10 
REMARK    4  A    between atoms: C_18  and  C_19 
REMARK    5  A    between atoms: C_26  and  C_27 
REMARK    6  A    between atoms: C_27  and  O_28 
ROOT
HETATM    1  C   UNL     1      44.338  46.527  64.312  1.00  0.00     0.070 C 
HETATM    2  C   UNL     1      43.409  45.471  64.859  1.00  0.00     0.037 A 
HETATM    3  N   UNL     1      43.940  44.191  64.980  1.00  0.00    -0.192 N 
HETATM    4  C   UNL     1      43.291  43.184  65.596  1.00  0.00     0.726 A 
HETATM    5  N   UNL     1      41.997  43.368  66.003  1.00  0.00    -0.082 N 
HETATM    6  N   UNL     1      41.528  42.283  66.649  1.00  0.00    -0.128 NA
HETATM    7  C   UNL     1      42.583  41.466  66.568  1.00  0.00     0.226 A 
HETATM    8  N   UNL     1      43.684  41.982  65.927  1.00  0.00    -0.035 NA
HETATM    9  C   UNL     1      41.238  44.612  65.808  1.00  0.00     0.204 A 
HETATM   10  C   UNL     1      42.139  45.712  65.264  1.00  0.00     0.070 A 
HETATM   11  H   UNL     1      44.916  44.061  64.729  1.00  0.00     0.184 HD
ENDROOT
BRANCH   7  12
HETATM   12  S   UNL     1      42.529  39.859  67.235  1.00  0.00    -0.083 SA
BRANCH  12  13
HETATM   13  C   UNL     1      40.768  39.492  67.006  1.00  0.00     0.123 C 
BRANCH  13  14
HETATM   14  C   UNL     1      40.404  39.381  65.544  1.00  0.00    -0.027 A 
HETATM   15  C   UNL     1      40.828  38.318  64.730  1.00  0.00     0.041 A 
HETATM   16 CL   UNL     1      41.830  37.046  65.333  1.00  0.00    -0.084 Cl
HETATM   17  C   UNL     1      40.450  38.259  63.384  1.00  0.00     0.024 A 
HETATM   18  C   UNL     1      39.643  39.254  62.835  1.00  0.00     0.002 A 
HETATM   19  C   UNL     1      39.208  40.310  63.631  1.00  0.00     0.001 A 
HETATM   20  C   UNL     1      39.581  40.372  64.975  1.00  0.00     0.009 A 
ENDBRANCH  13  14
ENDBRANCH  12  13
ENDBRANCH   7  12
BRANCH   9  21
HETATM   21  C   UNL     1      40.038  44.350  64.899  1.00  0.00    -0.006 A 
HETATM   22  C   UNL     1      38.711  44.461  65.348  1.00  0.00     0.042 A 
HETATM   23 CL   UNL     1      38.315  44.918  66.967  1.00  0.00    -0.084 Cl
HETATM   24  C   UNL     1      37.639  44.217  64.481  1.00  0.00     0.024 A 
HETATM   25  C   UNL     1      37.870  43.860  63.154  1.00  0.00     0.002 A 
HETATM   26  C   UNL     1      39.175  43.751  62.686  1.00  0.00     0.001 A 
HETATM   27  C   UNL     1      40.247  43.995  63.546  1.00  0.00     0.011 A 
ENDBRANCH   9  21
BRANCH  10  28
HETATM   28  C   UNL     1      41.555  47.063  65.190  1.00  0.00     0.293 C 
HETATM   29  O   UNL     1      41.026  47.534  64.198  1.00  0.00    -0.259 OA
BRANCH  28  30
HETATM   30  O   UNL     1      41.746  47.685  66.378  1.00  0.00    -0.323 OA
HETATM   31  C   UNL     1      40.638  48.476  66.807  1.00  0.00     0.213 C 
ENDBRANCH  28  30
ENDBRANCH  10  28
TORSDOF 6
ENDMDL
MODEL 8
REMARK VINA RESULT:      -7.4     12.499     14.751
REMARK  6 active torsions:
REMARK  status: ('A' for Active; 'I' for Inactive)
REMARK    1  A    between atoms: C_7  and  S_8 
REMARK    2  A    between atoms: S_8  and  C_9 
REMARK    3  A    between atoms: C_9  and  C_10 
REMARK    4  A    between atoms: C_18  and  C_19 
REMARK    5  A    between atoms: C_26  and  C_27 
REMARK    6  A    between atoms: C_27  and  O_28 
ROOT
HETATM    1  C   UNL     1      32.873  47.798  41.319  1.00  0.00     0.070 C 
HETATM    2  C   UNL     1      31.461  48.194  40.964  1.00  0.00     0.037 A 
HETATM    3  N   UNL     1      30.677  47.208  40.374  1.00  0.00    -0.192 N 
HETATM    4  C   UNL     1      29.358  47.358  40.147  1.00  0.00     0.726 A 
HETATM    5  N   UNL     1      28.772  48.576  40.369  1.00  0.00    -0.082 N 
HETATM    6  N   UNL     1      27.445  48.529  40.147  1.00  0.00    -0.128 NA
HETATM    7  C   UNL     1      27.299  47.257  39.762  1.00  0.00     0.226 A 
HETATM    8  N   UNL     1      28.451  46.507  39.747  1.00  0.00    -0.035 NA
HETATM    9  C   UNL     1      29.495  49.766  40.843  1.00  0.00     0.204 A 
HETATM   10  C   UNL     1      30.926  49.411  41.221  1.00  0.00     0.070 A 
HETATM   11  H   UNL     1      31.091  46.287  40.256  1.00  0.00     0.184 HD
ENDROOT
BRANCH   7  12
HETATM   12  S   UNL     1      25.740  46.628  39.310  1.00  0.00    -0.083 SA
BRANCH  12  13
HETATM   13  C   UNL     1      24.697  48.040  39.767  1.00  0.00     0.123 C 
BRANCH  13  14
HETATM   14  C   UNL     1      23.423  47.598  40.449  1.00  0.00    -0.027 A 
HETATM   15  C   UNL     1      22.206  48.286  40.314  1.00  0.00     0.041 A 
HETATM   16 CL   UNL     1      22.066  49.722  39.363  1.00  0.00    -0.084 Cl
HETATM   17  C   UNL     1      21.054  47.825  40.959  1.00  0.00     0.024 A 
HETATM   18  C   UNL     1      21.098  46.672  41.742  1.00  0.00     0.002 A 
HETATM   19  C   UNL     1      22.295  45.975  41.880  1.00  0.00     0.001 A 
HETATM   20  C   UNL     1      23.447  46.431  41.236  1.00  0.00     0.009 A 
ENDBRANCH  13  14
ENDBRANCH  12  13
ENDBRANCH   7  12
BRANCH   9  21
HETATM   21  C   UNL     1      29.437  50.864  39.780  1.00  0.00    -0.006 A 
HETATM   22  C   UNL     1      28.720  52.058  39.967  1.00  0.00     0.042 A 
HETATM   23 CL   UNL     1      27.850  52.401  41.420  1.00  0.00    -0.084 Cl
HETATM   24  C   UNL     1      28.696  53.041  38.970  1.00  0.00     0.024 A 
HETATM   25  C   UNL     1      29.386  52.853  37.774  1.00  0.00     0.002 A 
HETATM   26  C   UNL     1      30.108  51.682  37.571  1.00  0.00     0.001 A 
HETATM   27  C   UNL     1      30.136  50.699  38.563  1.00  0.00     0.011 A 
ENDBRANCH   9  21
BRANCH  10  28
HETATM   28  C   UNL     1      31.711  50.469  41.882  1.00  0.00     0.293 C 
HETATM   29  O   UNL     1      31.630  50.755  43.064  1.00  0.00    -0.259 OA
BRANCH  28  30
HETATM   30  O   UNL     1      32.486  51.080  40.954  1.00  0.00    -0.323 OA
HETATM   31  C   UNL     1      33.800  51.400  41.410  1.00  0.00     0.213 C 
ENDBRANCH  28  30
ENDBRANCH  10  28
TORSDOF 6
ENDMDL
MODEL 9
REMARK VINA RESULT:      -7.3     16.945     18.958
REMARK  6 active torsions:
REMARK  status: ('A' for Active; 'I' for Inactive)
REMARK    1  A    between atoms: C_7  and  S_8 
REMARK    2  A    between atoms: S_8  and  C_9 
REMARK    3  A    between atoms: C_9  and  C_10 
REMARK    4  A    between atoms: C_18  and  C_19 
REMARK    5  A    between atoms: C_26  and  C_27 
REMARK    6  A    between atoms: C_27  and  O_28 
ROOT
HETATM    1  C   UNL     1      41.101  39.944  67.070  1.00  0.00     0.070 C 
HETATM    2  C   UNL     1      40.936  41.328  66.492  1.00  0.00     0.037 A 
HETATM    3  N   UNL     1      41.613  42.351  67.147  1.00  0.00    -0.192 N 
HETATM    4  C   UNL     1      41.693  43.605  66.662  1.00  0.00     0.726 A 
HETATM    5  N   UNL     1      40.968  43.943  65.551  1.00  0.00    -0.082 N 
HETATM    6  N   UNL     1      41.212  45.213  65.175  1.00  0.00    -0.128 NA
HETATM    7  C   UNL     1      42.074  45.596  66.123  1.00  0.00     0.226 A 
HETATM    8  N   UNL     1      42.392  44.637  67.055  1.00  0.00    -0.035 NA
HETATM    9  C   UNL     1      40.078  43.019  64.832  1.00  0.00     0.204 A 
HETATM   10  C   UNL     1      40.218  41.605  65.378  1.00  0.00     0.070 A 
HETATM   11  H   UNL     1      42.196  42.096  67.940  1.00  0.00     0.184 HD
ENDROOT
BRANCH   7  12
HETATM   12  S   UNL     1      42.725  47.210  66.148  1.00  0.00    -0.083 SA
BRANCH  12  13
HETATM   13  C   UNL     1      41.442  48.042  67.124  1.00  0.00     0.123 C 
BRANCH  13  14
HETATM   14  C   UNL     1      40.130  48.116  66.379  1.00  0.00    -0.027 A 
HETATM   15  C   UNL     1      39.003  47.359  66.739  1.00  0.00     0.041 A 
HETATM   16 CL   UNL     1      39.029  46.253  68.067  1.00  0.00    -0.084 Cl
HETATM   17  C   UNL     1      37.808  47.477  66.021  1.00  0.00     0.024 A 
HETATM   18  C   UNL     1      37.721  48.352  64.939  1.00  0.00     0.002 A 
HETATM   19  C   UNL     1      38.827  49.114  64.573  1.00  0.00     0.001 A 
HETATM   20  C   UNL     1      40.020  49.000  65.289  1.00  0.00     0.009 A 
ENDBRANCH  13  14
ENDBRANCH  12  13
ENDBRANCH   7  12
BRANCH   9  21
HETATM   21  C   UNL     1      38.638  43.524  64.906  1.00  0.00    -0.006 A 
HETATM   22  C   UNL     1      37.976  44.085  63.800  1.00  0.00     0.042 A 
HETATM   23 CL   UNL     1      38.727  44.244  62.252  1.00  0.00    -0.084 Cl
HETATM   24  C   UNL     1      36.654  44.532  63.908  1.00  0.00     0.024 A 
HETATM   25  C   UNL     1      35.968  44.426  65.116  1.00  0.00     0.002 A 
HETATM   26  C   UNL     1      36.600  43.867  66.222  1.00  0.00     0.001 A 
HETATM   27  C   UNL     1      37.919  43.419  66.119  1.00  0.00     0.011 A 
ENDBRANCH   9  21
BRANCH  10  28
HETATM   28  C   UNL     1      39.520  40.542  64.632  1.00  0.00     0.293 C 
HETATM   29  O   UNL     1      38.561  39.918  65.052  1.00  0.00    -0.259 OA
BRANCH  28  30
HETATM   30  O   UNL     1      40.147  40.360  63.445  1.00  0.00    -0.323 OA
HETATM   31  C   UNL     1      39.643  39.264  62.682  1.00  0.00     0.213 C 
ENDBRANCH  28  30
ENDBRANCH  10  28
TORSDOF 6
ENDMDL
MODEL 10
REMARK VINA RESULT:      -7.3     10.465     13.896
REMARK  6 active torsions:
REMARK  status: ('A' for Active; 'I' for Inactive)
REMARK    1  A    between atoms: C_7  and  S_8 
REMARK    2  A    between atoms: S_8  and  C_9 
REMARK    3  A    between atoms: C_9  and  C_10 
REMARK    4  A    between atoms: C_18  and  C_19 
REMARK    5  A    between atoms: C_26  and  C_27 
REMARK    6  A    between atoms: C_27  and  O_28 
ROOT
HETATM    1  C   UNL     1      20.333  45.700  45.057  1.00  0.00     0.070 C 
HETATM    2  C   UNL     1      19.639  46.798  45.823  1.00  0.00     0.037 A 
HETATM    3  N   UNL     1      18.779  47.610  45.089  1.00  0.00    -0.192 N 
HETATM    4  C   UNL     1      17.972  48.525  45.658  1.00  0.00     0.726 A 
HETATM    5  N   UNL     1      18.087  48.783  46.998  1.00  0.00    -0.082 N 
HETATM    6  N   UNL     1      17.167  49.678  47.405  1.00  0.00    -0.128 NA
HETATM    7  C   UNL     1      16.546  49.945  46.250  1.00  0.00     0.226 A 
HETATM    8  N   UNL     1      17.014  49.258  45.155  1.00  0.00    -0.035 NA
HETATM    9  C   UNL     1      19.056  48.124  47.886  1.00  0.00     0.204 A 
HETATM   10  C   UNL     1      19.776  46.999  47.155  1.00  0.00     0.070 A 
HETATM   11  H   UNL     1      18.650  47.388  44.106  1.00  0.00     0.184 HD
ENDROOT
BRANCH   7  12
HETATM   12  S   UNL     1      15.242  51.095  46.176  1.00  0.00    -0.083 SA
BRANCH  12  13
HETATM   13  C   UNL     1      16.044  52.518  46.964  1.00  0.00     0.123 C 
BRANCH  13  14
HETATM   14  C   UNL     1      15.221  53.063  48.108  1.00  0.00    -0.027 A 
HETATM   15  C   UNL     1      15.528  52.815  49.455  1.00  0.00     0.041 A 
HETATM   16 CL   UNL     1      16.876  51.839  49.923  1.00  0.00    -0.084 Cl
HETATM   17  C   UNL     1      14.738  53.356  50.475  1.00  0.00     0.024 A 
HETATM   18  C   UNL     1      13.637  54.152  50.166  1.00  0.00     0.002 A 
HETATM   19  C   UNL     1      13.324  54.414  48.835  1.00  0.00     0.001 A 
HETATM   20  C   UNL     1      14.111  53.877  47.814  1.00  0.00     0.009 A 
ENDBRANCH  13  14
ENDBRANCH  12  13
ENDBRANCH   7  12
BRANCH   9  21
HETATM   21  C   UNL     1      20.029  49.159  48.450  1.00  0.00    -0.006 A 
HETATM   22  C   UNL     1      19.968  49.606  49.781  1.00  0.00     0.042 A 
HETATM   23 CL   UNL     1      18.796  49.016  50.905  1.00  0.00    -0.084 Cl
HETATM   24  C   UNL     1      20.882  50.552  50.260  1.00  0.00     0.024 A 
HETATM   25  C   UNL     1      21.870  51.067  49.424  1.00  0.00     0.002 A 
HETATM   26  C   UNL     1      21.953  50.634  48.105  1.00  0.00     0.001 A 
HETATM   27  C   UNL     1      21.046  49.689  47.623  1.00  0.00     0.011 A 
ENDBRANCH   9  21
BRANCH  10  28
HETATM   28  C   UNL     1      20.645  46.136  47.975  1.00  0.00     0.293 C 
HETATM   29  O   UNL     1      20.243  45.309  48.775  1.00  0.00    -0.259 OA
BRANCH  28  30
HETATM   30  O   UNL     1      21.938  46.450  47.718  1.00  0.00    -0.323 OA
HETATM   31  C   UNL     1      22.828  46.190  48.804  1.00  0.00     0.213 C 
ENDBRANCH  28  30
ENDBRANCH  10  28
TORSDOF 6
ENDMDL
