MODEL 1
REMARK VINA RESULT:      -9.1      0.000      0.000
REMARK  9 active torsions:
REMARK  status: ('A' for Active; 'I' for Inactive)
REMARK    1  A    between atoms: C_2  and  C_3 
REMARK    2  A    between atoms: C_5  and  O_6 
REMARK    3  A    between atoms: C_8  and  O_9 
REMARK    4  A    between atoms: O_9  and  C_10 
REMARK    5  A    between atoms: C_10  and  C_11 
REMARK       I    between atoms: C_11  and  N_12 
REMARK    6  A    between atoms: N_12  and  C_13 
REMARK    7  A    between atoms: C_13  and  C_14 
REMARK    8  A    between atoms: C_17  and  N_18 
REMARK       I    between atoms: N_18  and  C_19 
REMARK    9  A    between atoms: C_19  and  C_20 
ROOT
HETATM    1  C   UNL     1      27.729  41.329  52.562  1.00  0.00     0.242 C 
HETATM    2  N   UNL     1      26.666  41.017  51.767  1.00  0.00    -0.355 N 
HETATM    3  O   UNL     1      27.790  40.839  53.692  1.00  0.00    -0.271 OA
HETATM    4  H   UNL     1      26.019  40.372  52.202  1.00  0.00     0.162 HD
ENDROOT
BRANCH   2   5
HETATM    5  C   UNL     1      26.475  41.313  50.361  1.00  0.00     0.161 C 
BRANCH   5   6
HETATM    6  C   UNL     1      25.804  42.654  50.202  1.00  0.00    -0.040 A 
HETATM    7  C   UNL     1      24.473  42.829  50.603  1.00  0.00     0.011 A 
HETATM    8  C   UNL     1      23.814  44.045  50.392  1.00  0.00     0.030 A 
HETATM    9  C   UNL     1      24.471  45.108  49.773  1.00  0.00     0.035 A 
HETATM   10  C   UNL     1      25.808  44.944  49.393  1.00  0.00     0.030 A 
HETATM   11  C   UNL     1      26.470  43.728  49.601  1.00  0.00     0.011 A 
BRANCH   9  12
HETATM   12  N   UNL     1      23.864  46.343  49.477  1.00  0.00    -0.321 N 
HETATM   13  C   UNL     1      24.159  47.591  49.995  1.00  0.00     0.279 C 
HETATM   14  O   UNL     1      25.074  47.845  50.770  1.00  0.00    -0.265 OA
HETATM   15  H   UNL     1      23.076  46.328  48.838  1.00  0.00     0.169 HD
BRANCH  13  16
HETATM   16  C   UNL     1      23.243  48.618  49.527  1.00  0.00     0.142 A 
HETATM   17  O   UNL     1      23.600  49.941  49.628  1.00  0.00    -0.317 OA
HETATM   18  C   UNL     1      22.581  50.671  49.106  1.00  0.00     0.143 A 
HETATM   19  C   UNL     1      21.570  49.847  48.670  1.00  0.00     0.027 A 
HETATM   20  C   UNL     1      21.993  48.525  48.942  1.00  0.00     0.045 A 
ENDBRANCH  13  16
ENDBRANCH   9  12
ENDBRANCH   5   6
ENDBRANCH   2   5
BRANCH   1  21
HETATM   21  C   UNL     1      28.822  42.248  52.031  1.00  0.00     0.278 C 
BRANCH  21  22
HETATM   22  O   UNL     1      28.640  43.545  52.581  1.00  0.00    -0.339 OA
BRANCH  22  23
HETATM   23  C   UNL     1      29.221  43.800  53.796  1.00  0.00     0.102 A 
HETATM   24  C   UNL     1      28.654  44.849  54.546  1.00  0.00     0.102 A 
HETATM   25  C   UNL     1      29.205  45.209  55.782  1.00  0.00     0.054 A 
HETATM   26  C   UNL     1      30.312  44.516  56.285  1.00  0.00     0.012 A 
HETATM   27  C   UNL     1      30.861  43.461  55.545  1.00  0.00     0.018 A 
HETATM   28  C   UNL     1      30.322  43.109  54.303  1.00  0.00     0.040 A 
BRANCH  24  29
HETATM   29  O   UNL     1      27.585  45.498  53.978  1.00  0.00    -0.353 OA
HETATM   30  C   UNL     1      27.317  46.811  54.454  1.00  0.00     0.210 C 
ENDBRANCH  24  29
BRANCH  26  31
HETATM   31  C   UNL     1      30.944  44.867  57.592  1.00  0.00     0.155 C 
HETATM   32  C   UNL     1      30.489  46.106  58.317  1.00  0.00     0.096 C 
HETATM   33  O   UNL     1      31.823  44.144  58.058  1.00  0.00    -0.293 OA
ENDBRANCH  26  31
ENDBRANCH  22  23
ENDBRANCH  21  22
ENDBRANCH   1  21
TORSDOF 9
ENDMDL
MODEL 2
REMARK VINA RESULT:      -9.0      1.574      2.440
REMARK  9 active torsions:
REMARK  status: ('A' for Active; 'I' for Inactive)
REMARK    1  A    between atoms: C_2  and  C_3 
REMARK    2  A    between atoms: C_5  and  O_6 
REMARK    3  A    between atoms: C_8  and  O_9 
REMARK    4  A    between atoms: O_9  and  C_10 
REMARK    5  A    between atoms: C_10  and  C_11 
REMARK       I    between atoms: C_11  and  N_12 
REMARK    6  A    between atoms: N_12  and  C_13 
REMARK    7  A    between atoms: C_13  and  C_14 
REMARK    8  A    between atoms: C_17  and  N_18 
REMARK       I    between atoms: N_18  and  C_19 
REMARK    9  A    between atoms: C_19  and  C_20 
ROOT
HETATM    1  C   UNL     1      26.823  42.543  51.067  1.00  0.00     0.242 C 
HETATM    2  N   UNL     1      26.847  43.450  50.048  1.00  0.00    -0.355 N 
HETATM    3  O   UNL     1      26.541  41.370  50.811  1.00  0.00    -0.271 OA
HETATM    4  H   UNL     1      26.640  43.042  49.146  1.00  0.00     0.162 HD
ENDROOT
BRANCH   2   5
HETATM    5  C   UNL     1      27.327  44.818  50.071  1.00  0.00     0.161 C 
BRANCH   5   6
HETATM    6  C   UNL     1      26.174  45.772  49.887  1.00  0.00    -0.040 A 
HETATM    7  C   UNL     1      26.390  47.156  49.931  1.00  0.00     0.011 A 
HETATM    8  C   UNL     1      25.320  48.053  49.837  1.00  0.00     0.030 A 
HETATM    9  C   UNL     1      24.014  47.584  49.701  1.00  0.00     0.035 A 
HETATM   10  C   UNL     1      23.797  46.203  49.634  1.00  0.00     0.030 A 
HETATM   11  C   UNL     1      24.865  45.303  49.728  1.00  0.00     0.011 A 
BRANCH   9  12
HETATM   12  N   UNL     1      22.880  48.417  49.654  1.00  0.00    -0.321 N 
HETATM   13  C   UNL     1      22.387  49.136  48.580  1.00  0.00     0.279 C 
HETATM   14  O   UNL     1      22.831  49.110  47.438  1.00  0.00    -0.265 OA
HETATM   15  H   UNL     1      22.373  48.556  50.522  1.00  0.00     0.169 HD
BRANCH  13  16
HETATM   16  C   UNL     1      21.252  49.970  48.943  1.00  0.00     0.142 A 
HETATM   17  O   UNL     1      20.283  49.468  49.778  1.00  0.00    -0.317 OA
HETATM   18  C   UNL     1      19.366  50.453  49.961  1.00  0.00     0.143 A 
HETATM   19  C   UNL     1      19.721  51.582  49.261  1.00  0.00     0.027 A 
HETATM   20  C   UNL     1      20.935  51.272  48.603  1.00  0.00     0.045 A 
ENDBRANCH  13  16
ENDBRANCH   9  12
ENDBRANCH   5   6
ENDBRANCH   2   5
BRANCH   1  21
HETATM   21  C   UNL     1      27.168  42.991  52.481  1.00  0.00     0.278 C 
BRANCH  21  22
HETATM   22  O   UNL     1      28.432  43.641  52.463  1.00  0.00    -0.339 OA
BRANCH  22  23
HETATM   23  C   UNL     1      29.078  43.794  53.662  1.00  0.00     0.102 A 
HETATM   24  C   UNL     1      28.663  44.882  54.455  1.00  0.00     0.102 A 
HETATM   25  C   UNL     1      29.292  45.142  55.679  1.00  0.00     0.054 A 
HETATM   26  C   UNL     1      30.325  44.311  56.127  1.00  0.00     0.012 A 
HETATM   27  C   UNL     1      30.721  43.220  55.345  1.00  0.00     0.018 A 
HETATM   28  C   UNL     1      30.105  42.966  54.115  1.00  0.00     0.040 A 
BRANCH  24  29
HETATM   29  O   UNL     1      27.659  45.666  53.938  1.00  0.00    -0.353 OA
HETATM   30  C   UNL     1      27.139  46.673  54.798  1.00  0.00     0.210 C 
ENDBRANCH  24  29
BRANCH  26  31
HETATM   31  C   UNL     1      31.035  44.552  57.418  1.00  0.00     0.155 C 
HETATM   32  C   UNL     1      30.610  45.707  58.286  1.00  0.00     0.096 C 
HETATM   33  O   UNL     1      31.953  43.807  57.757  1.00  0.00    -0.293 OA
ENDBRANCH  26  31
ENDBRANCH  22  23
ENDBRANCH  21  22
ENDBRANCH   1  21
TORSDOF 9
ENDMDL
MODEL 3
REMARK VINA RESULT:      -8.7     12.664     15.407
REMARK  9 active torsions:
REMARK  status: ('A' for Active; 'I' for Inactive)
REMARK    1  A    between atoms: C_2  and  C_3 
REMARK    2  A    between atoms: C_5  and  O_6 
REMARK    3  A    between atoms: C_8  and  O_9 
REMARK    4  A    between atoms: O_9  and  C_10 
REMARK    5  A    between atoms: C_10  and  C_11 
REMARK       I    between atoms: C_11  and  N_12 
REMARK    6  A    between atoms: N_12  and  C_13 
REMARK    7  A    between atoms: C_13  and  C_14 
REMARK    8  A    between atoms: C_17  and  N_18 
REMARK       I    between atoms: N_18  and  C_19 
REMARK    9  A    between atoms: C_19  and  C_20 
ROOT
HETATM    1  C   UNL     1      27.300  49.319  39.695  1.00  0.00     0.242 C 
HETATM    2  N   UNL     1      27.783  48.302  40.467  1.00  0.00    -0.355 N 
HETATM    3  O   UNL     1      26.409  50.039  40.151  1.00  0.00    -0.271 OA
HETATM    4  H   UNL     1      27.351  48.257  41.381  1.00  0.00     0.162 HD
ENDROOT
BRANCH   2   5
HETATM    5  C   UNL     1      28.937  47.459  40.228  1.00  0.00     0.161 C 
BRANCH   5   6
HETATM    6  C   UNL     1      30.164  48.074  40.852  1.00  0.00    -0.040 A 
HETATM    7  C   UNL     1      30.036  49.003  41.892  1.00  0.00     0.011 A 
HETATM    8  C   UNL     1      31.162  49.638  42.430  1.00  0.00     0.030 A 
HETATM    9  C   UNL     1      32.436  49.358  41.936  1.00  0.00     0.035 A 
HETATM   10  C   UNL     1      32.569  48.413  40.912  1.00  0.00     0.030 A 
HETATM   11  C   UNL     1      31.445  47.777  40.372  1.00  0.00     0.011 A 
BRANCH   9  12
HETATM   12  N   UNL     1      33.610  49.992  42.385  1.00  0.00    -0.321 N 
HETATM   13  C   UNL     1      33.760  51.278  42.870  1.00  0.00     0.279 C 
HETATM   14  O   UNL     1      32.853  52.081  43.060  1.00  0.00    -0.265 OA
HETATM   15  H   UNL     1      34.475  49.467  42.308  1.00  0.00     0.169 HD
BRANCH  13  16
HETATM   16  C   UNL     1      35.149  51.613  43.137  1.00  0.00     0.142 A 
HETATM   17  O   UNL     1      36.146  50.962  42.452  1.00  0.00    -0.317 OA
HETATM   18  C   UNL     1      37.327  51.479  42.880  1.00  0.00     0.143 A 
HETATM   19  C   UNL     1      37.114  52.450  43.830  1.00  0.00     0.027 A 
HETATM   20  C   UNL     1      35.713  52.537  43.998  1.00  0.00     0.045 A 
ENDBRANCH  13  16
ENDBRANCH   9  12
ENDBRANCH   5   6
ENDBRANCH   2   5
BRANCH   1  21
HETATM   21  C   UNL     1      27.887  49.555  38.310  1.00  0.00     0.278 C 
BRANCH  21  22
HETATM   22  O   UNL     1      28.290  50.914  38.205  1.00  0.00    -0.339 OA
BRANCH  22  23
HETATM   23  C   UNL     1      29.596  51.207  38.499  1.00  0.00     0.102 A 
HETATM   24  C   UNL     1      29.803  52.175  39.502  1.00  0.00     0.102 A 
HETATM   25  C   UNL     1      31.103  52.569  39.842  1.00  0.00     0.054 A 
HETATM   26  C   UNL     1      32.203  51.990  39.199  1.00  0.00     0.012 A 
HETATM   27  C   UNL     1      31.992  51.014  38.217  1.00  0.00     0.018 A 
HETATM   28  C   UNL     1      30.695  50.629  37.864  1.00  0.00     0.040 A 
BRANCH  24  29
HETATM   29  O   UNL     1      28.675  52.716  40.071  1.00  0.00    -0.353 OA
HETATM   30  C   UNL     1      28.510  52.504  41.468  1.00  0.00     0.210 C 
ENDBRANCH  24  29
BRANCH  26  31
HETATM   31  C   UNL     1      33.608  52.383  39.517  1.00  0.00     0.155 C 
HETATM   32  C   UNL     1      34.725  51.416  39.222  1.00  0.00     0.096 C 
HETATM   33  O   UNL     1      33.835  53.485  40.013  1.00  0.00    -0.293 OA
ENDBRANCH  26  31
ENDBRANCH  22  23
ENDBRANCH  21  22
ENDBRANCH   1  21
TORSDOF 9
ENDMDL
MODEL 4
REMARK VINA RESULT:      -8.6     11.760     14.335
REMARK  9 active torsions:
REMARK  status: ('A' for Active; 'I' for Inactive)
REMARK    1  A    between atoms: C_2  and  C_3 
REMARK    2  A    between atoms: C_5  and  O_6 
REMARK    3  A    between atoms: C_8  and  O_9 
REMARK    4  A    between atoms: O_9  and  C_10 
REMARK    5  A    between atoms: C_10  and  C_11 
REMARK       I    between atoms: C_11  and  N_12 
REMARK    6  A    between atoms: N_12  and  C_13 
REMARK    7  A    between atoms: C_13  and  C_14 
REMARK    8  A    between atoms: C_17  and  N_18 
REMARK       I    between atoms: N_18  and  C_19 
REMARK    9  A    between atoms: C_19  and  C_20 
ROOT
HETATM    1  C   UNL     1      34.227  51.175  42.119  1.00  0.00     0.242 C 
HETATM    2  N   UNL     1      33.637  49.964  42.335  1.00  0.00    -0.355 N 
HETATM    3  O   UNL     1      34.491  51.889  43.089  1.00  0.00    -0.271 OA
HETATM    4  H   UNL     1      33.489  49.763  43.316  1.00  0.00     0.162 HD
ENDROOT
BRANCH   2   5
HETATM    5  C   UNL     1      33.409  48.891  41.388  1.00  0.00     0.161 C 
BRANCH   5   6
HETATM    6  C   UNL     1      31.944  48.533  41.356  1.00  0.00    -0.040 A 
HETATM    7  C   UNL     1      31.425  47.784  40.292  1.00  0.00     0.011 A 
HETATM    8  C   UNL     1      30.055  47.508  40.210  1.00  0.00     0.030 A 
HETATM    9  C   UNL     1      29.179  47.979  41.187  1.00  0.00     0.035 A 
HETATM   10  C   UNL     1      29.698  48.708  42.263  1.00  0.00     0.030 A 
HETATM   11  C   UNL     1      31.067  48.986  42.348  1.00  0.00     0.011 A 
BRANCH   9  12
HETATM   12  N   UNL     1      27.784  47.791  41.149  1.00  0.00    -0.321 N 
HETATM   13  C   UNL     1      27.080  46.612  40.983  1.00  0.00     0.279 C 
HETATM   14  O   UNL     1      27.571  45.491  40.907  1.00  0.00    -0.265 OA
HETATM   15  H   UNL     1      27.205  48.623  41.205  1.00  0.00     0.169 HD
BRANCH  13  16
HETATM   16  C   UNL     1      25.646  46.829  40.890  1.00  0.00     0.142 A 
HETATM   17  O   UNL     1      24.788  45.956  41.513  1.00  0.00    -0.317 OA
HETATM   18  C   UNL     1      23.526  46.402  41.281  1.00  0.00     0.143 A 
HETATM   19  C   UNL     1      23.550  47.547  40.519  1.00  0.00     0.027 A 
HETATM   20  C   UNL     1      24.914  47.822  40.264  1.00  0.00     0.045 A 
ENDBRANCH  13  16
ENDBRANCH   9  12
ENDBRANCH   5   6
ENDBRANCH   2   5
BRANCH   1  21
HETATM   21  C   UNL     1      34.566  51.602  40.696  1.00  0.00     0.278 C 
BRANCH  21  22
HETATM   22  O   UNL     1      33.600  52.548  40.257  1.00  0.00    -0.339 OA
BRANCH  22  23
HETATM   23  C   UNL     1      32.400  52.058  39.810  1.00  0.00     0.102 A 
HETATM   24  C   UNL     1      31.276  52.352  40.606  1.00  0.00     0.102 A 
HETATM   25  C   UNL     1      30.014  51.861  40.251  1.00  0.00     0.054 A 
HETATM   26  C   UNL     1      29.861  51.090  39.092  1.00  0.00     0.012 A 
HETATM   27  C   UNL     1      30.979  50.817  38.294  1.00  0.00     0.018 A 
HETATM   28  C   UNL     1      32.243  51.293  38.654  1.00  0.00     0.040 A 
BRANCH  24  29
HETATM   29  O   UNL     1      31.508  53.094  41.740  1.00  0.00    -0.353 OA
HETATM   30  C   UNL     1      30.819  52.682  42.914  1.00  0.00     0.210 C 
ENDBRANCH  24  29
BRANCH  26  31
HETATM   31  C   UNL     1      28.540  50.534  38.675  1.00  0.00     0.155 C 
HETATM   32  C   UNL     1      27.314  50.872  39.482  1.00  0.00     0.096 C 
HETATM   33  O   UNL     1      28.469  49.811  37.683  1.00  0.00    -0.293 OA
ENDBRANCH  26  31
ENDBRANCH  22  23
ENDBRANCH  21  22
ENDBRANCH   1  21
TORSDOF 9
ENDMDL
MODEL 5
REMARK VINA RESULT:      -8.5      2.323      3.597
REMARK  9 active torsions:
REMARK  status: ('A' for Active; 'I' for Inactive)
REMARK    1  A    between atoms: C_2  and  C_3 
REMARK    2  A    between atoms: C_5  and  O_6 
REMARK    3  A    between atoms: C_8  and  O_9 
REMARK    4  A    between atoms: O_9  and  C_10 
REMARK    5  A    between atoms: C_10  and  C_11 
REMARK       I    between atoms: C_11  and  N_12 
REMARK    6  A    between atoms: N_12  and  C_13 
REMARK    7  A    between atoms: C_13  and  C_14 
REMARK    8  A    between atoms: C_17  and  N_18 
REMARK       I    between atoms: N_18  and  C_19 
REMARK    9  A    between atoms: C_19  and  C_20 
ROOT
HETATM    1  C   UNL     1      26.694  44.449  50.131  1.00  0.00     0.242 C 
HETATM    2  N   UNL     1      25.814  44.510  49.090  1.00  0.00    -0.355 N 
HETATM    3  O   UNL     1      27.839  44.878  49.966  1.00  0.00    -0.271 OA
HETATM    4  H   UNL     1      26.206  44.938  48.261  1.00  0.00     0.162 HD
ENDROOT
BRANCH   2   5
HETATM    5  C   UNL     1      24.388  44.249  49.100  1.00  0.00     0.161 C 
BRANCH   5   6
HETATM    6  C   UNL     1      23.625  45.547  49.014  1.00  0.00    -0.040 A 
HETATM    7  C   UNL     1      24.162  46.719  49.563  1.00  0.00     0.011 A 
HETATM    8  C   UNL     1      23.433  47.913  49.558  1.00  0.00     0.030 A 
HETATM    9  C   UNL     1      22.152  47.958  49.007  1.00  0.00     0.035 A 
HETATM   10  C   UNL     1      21.622  46.795  48.438  1.00  0.00     0.030 A 
HETATM   11  C   UNL     1      22.349  45.598  48.442  1.00  0.00     0.011 A 
BRANCH   9  12
HETATM   12  N   UNL     1      21.334  49.104  49.011  1.00  0.00    -0.321 N 
HETATM   13  C   UNL     1      20.035  49.230  49.468  1.00  0.00     0.279 C 
HETATM   14  O   UNL     1      19.385  48.353  50.027  1.00  0.00    -0.265 OA
HETATM   15  H   UNL     1      21.714  49.943  48.586  1.00  0.00     0.169 HD
BRANCH  13  16
HETATM   16  C   UNL     1      19.479  50.548  49.207  1.00  0.00     0.142 A 
HETATM   17  O   UNL     1      18.550  51.074  50.072  1.00  0.00    -0.317 OA
HETATM   18  C   UNL     1      18.221  52.305  49.603  1.00  0.00     0.143 A 
HETATM   19  C   UNL     1      18.916  52.586  48.451  1.00  0.00     0.027 A 
HETATM   20  C   UNL     1      19.725  51.455  48.193  1.00  0.00     0.045 A 
ENDBRANCH  13  16
ENDBRANCH   9  12
ENDBRANCH   5   6
ENDBRANCH   2   5
BRANCH   1  21
HETATM   21  C   UNL     1      26.239  43.881  51.469  1.00  0.00     0.278 C 
BRANCH  21  22
HETATM   22  O   UNL     1      26.261  44.918  52.440  1.00  0.00    -0.339 OA
BRANCH  22  23
HETATM   23  C   UNL     1      27.249  44.869  53.389  1.00  0.00     0.102 A 
HETATM   24  C   UNL     1      27.342  45.985  54.245  1.00  0.00     0.102 A 
HETATM   25  C   UNL     1      28.345  46.043  55.220  1.00  0.00     0.054 A 
HETATM   26  C   UNL     1      29.251  44.984  55.359  1.00  0.00     0.012 A 
HETATM   27  C   UNL     1      29.143  43.870  54.518  1.00  0.00     0.018 A 
HETATM   28  C   UNL     1      28.151  43.815  53.534  1.00  0.00     0.040 A 
BRANCH  24  29
HETATM   29  O   UNL     1      26.434  46.994  54.033  1.00  0.00    -0.353 OA
HETATM   30  C   UNL     1      26.334  47.978  55.055  1.00  0.00     0.210 C 
ENDBRANCH  24  29
BRANCH  26  31
HETATM   31  C   UNL     1      30.345  45.002  56.374  1.00  0.00     0.155 C 
HETATM   32  C   UNL     1      30.205  45.883  57.588  1.00  0.00     0.096 C 
HETATM   33  O   UNL     1      31.342  44.302  56.209  1.00  0.00    -0.293 OA
ENDBRANCH  26  31
ENDBRANCH  22  23
ENDBRANCH  21  22
ENDBRANCH   1  21
TORSDOF 9
ENDMDL
MODEL 6
REMARK VINA RESULT:      -8.4     13.235     16.130
REMARK  9 active torsions:
REMARK  status: ('A' for Active; 'I' for Inactive)
REMARK    1  A    between atoms: C_2  and  C_3 
REMARK    2  A    between atoms: C_5  and  O_6 
REMARK    3  A    between atoms: C_8  and  O_9 
REMARK    4  A    between atoms: O_9  and  C_10 
REMARK    5  A    between atoms: C_10  and  C_11 
REMARK       I    between atoms: C_11  and  N_12 
REMARK    6  A    between atoms: N_12  and  C_13 
REMARK    7  A    between atoms: C_13  and  C_14 
REMARK    8  A    between atoms: C_17  and  N_18 
REMARK       I    between atoms: N_18  and  C_19 
REMARK    9  A    between atoms: C_19  and  C_20 
ROOT
HETATM    1  C   UNL     1      26.976  50.388  38.500  1.00  0.00     0.242 C 
HETATM    2  N   UNL     1      27.625  51.587  38.560  1.00  0.00    -0.355 N 
HETATM    3  O   UNL     1      26.722  49.905  37.395  1.00  0.00    -0.271 OA
HETATM    4  H   UNL     1      27.855  51.961  37.648  1.00  0.00     0.162 HD
ENDROOT
BRANCH   2   5
HETATM    5  C   UNL     1      28.190  52.249  39.718  1.00  0.00     0.161 C 
BRANCH   5   6
HETATM    6  C   UNL     1      29.690  52.326  39.589  1.00  0.00    -0.040 A 
HETATM    7  C   UNL     1      30.338  51.708  38.512  1.00  0.00     0.011 A 
HETATM    8  C   UNL     1      31.734  51.707  38.419  1.00  0.00     0.030 A 
HETATM    9  C   UNL     1      32.510  52.319  39.403  1.00  0.00     0.035 A 
HETATM   10  C   UNL     1      31.864  52.958  40.469  1.00  0.00     0.030 A 
HETATM   11  C   UNL     1      30.468  52.960  40.565  1.00  0.00     0.011 A 
BRANCH   9  12
HETATM   12  N   UNL     1      33.917  52.316  39.411  1.00  0.00    -0.321 N 
HETATM   13  C   UNL     1      34.779  53.396  39.360  1.00  0.00     0.279 C 
HETATM   14  O   UNL     1      34.447  54.576  39.370  1.00  0.00    -0.265 OA
HETATM   15  H   UNL     1      34.376  51.411  39.408  1.00  0.00     0.169 HD
BRANCH  13  16
HETATM   16  C   UNL     1      36.173  52.992  39.280  1.00  0.00     0.142 A 
HETATM   17  O   UNL     1      36.567  52.110  38.304  1.00  0.00    -0.317 OA
HETATM   18  C   UNL     1      37.905  51.926  38.449  1.00  0.00     0.143 A 
HETATM   19  C   UNL     1      38.385  52.670  39.501  1.00  0.00     0.027 A 
HETATM   20  C   UNL     1      37.271  53.356  40.039  1.00  0.00     0.045 A 
ENDBRANCH  13  16
ENDBRANCH   9  12
ENDBRANCH   5   6
ENDBRANCH   2   5
BRANCH   1  21
HETATM   21  C   UNL     1      26.608  49.667  39.791  1.00  0.00     0.278 C 
BRANCH  21  22
HETATM   22  O   UNL     1      27.410  48.501  39.912  1.00  0.00    -0.339 OA
BRANCH  22  23
HETATM   23  C   UNL     1      28.703  48.668  40.336  1.00  0.00     0.102 A 
HETATM   24  C   UNL     1      29.705  48.168  39.481  1.00  0.00     0.102 A 
HETATM   25  C   UNL     1      31.053  48.257  39.849  1.00  0.00     0.054 A 
HETATM   26  C   UNL     1      31.411  48.859  41.061  1.00  0.00     0.012 A 
HETATM   27  C   UNL     1      30.413  49.371  41.899  1.00  0.00     0.018 A 
HETATM   28  C   UNL     1      29.064  49.271  41.542  1.00  0.00     0.040 A 
BRANCH  24  29
HETATM   29  O   UNL     1      29.275  47.571  38.321  1.00  0.00    -0.353 OA
HETATM   30  C   UNL     1      29.487  46.168  38.218  1.00  0.00     0.210 C 
ENDBRANCH  24  29
BRANCH  26  31
HETATM   31  C   UNL     1      32.833  48.969  41.505  1.00  0.00     0.155 C 
HETATM   32  C   UNL     1      33.258  50.165  42.315  1.00  0.00     0.096 C 
HETATM   33  O   UNL     1      33.635  48.086  41.206  1.00  0.00    -0.293 OA
ENDBRANCH  26  31
ENDBRANCH  22  23
ENDBRANCH  21  22
ENDBRANCH   1  21
TORSDOF 9
ENDMDL
MODEL 7
REMARK VINA RESULT:      -8.4      1.463      3.020
REMARK  9 active torsions:
REMARK  status: ('A' for Active; 'I' for Inactive)
REMARK    1  A    between atoms: C_2  and  C_3 
REMARK    2  A    between atoms: C_5  and  O_6 
REMARK    3  A    between atoms: C_8  and  O_9 
REMARK    4  A    between atoms: O_9  and  C_10 
REMARK    5  A    between atoms: C_10  and  C_11 
REMARK       I    between atoms: C_11  and  N_12 
REMARK    6  A    between atoms: N_12  and  C_13 
REMARK    7  A    between atoms: C_13  and  C_14 
REMARK    8  A    between atoms: C_17  and  N_18 
REMARK       I    between atoms: N_18  and  C_19 
REMARK    9  A    between atoms: C_19  and  C_20 
ROOT
HETATM    1  C   UNL     1      27.930  41.374  52.946  1.00  0.00     0.242 C 
HETATM    2  N   UNL     1      27.023  41.005  51.995  1.00  0.00    -0.355 N 
HETATM    3  O   UNL     1      27.857  40.862  54.065  1.00  0.00    -0.271 OA
HETATM    4  H   UNL     1      26.369  40.305  52.319  1.00  0.00     0.162 HD
ENDROOT
BRANCH   2   5
HETATM    5  C   UNL     1      27.023  41.320  50.581  1.00  0.00     0.161 C 
BRANCH   5   6
HETATM    6  C   UNL     1      26.233  42.580  50.332  1.00  0.00    -0.040 A 
HETATM    7  C   UNL     1      26.850  43.697  49.753  1.00  0.00     0.011 A 
HETATM    8  C   UNL     1      26.150  44.897  49.585  1.00  0.00     0.030 A 
HETATM    9  C   UNL     1      24.822  45.005  49.995  1.00  0.00     0.035 A 
HETATM   10  C   UNL     1      24.195  43.884  50.552  1.00  0.00     0.030 A 
HETATM   11  C   UNL     1      24.893  42.682  50.722  1.00  0.00     0.011 A 
BRANCH   9  12
HETATM   12  N   UNL     1      24.066  46.189  49.911  1.00  0.00    -0.321 N 
HETATM   13  C   UNL     1      23.140  46.550  48.949  1.00  0.00     0.279 C 
HETATM   14  O   UNL     1      22.762  45.845  48.020  1.00  0.00    -0.265 OA
HETATM   15  H   UNL     1      24.244  46.901  50.612  1.00  0.00     0.169 HD
BRANCH  13  16
HETATM   16  C   UNL     1      22.639  47.902  49.138  1.00  0.00     0.142 A 
HETATM   17  O   UNL     1      23.494  48.885  49.574  1.00  0.00    -0.317 OA
HETATM   18  C   UNL     1      22.776  50.036  49.644  1.00  0.00     0.143 A 
HETATM   19  C   UNL     1      21.473  49.817  49.263  1.00  0.00     0.027 A 
HETATM   20  C   UNL     1      21.383  48.443  48.940  1.00  0.00     0.045 A 
ENDBRANCH  13  16
ENDBRANCH   9  12
ENDBRANCH   5   6
ENDBRANCH   2   5
BRANCH   1  21
HETATM   21  C   UNL     1      29.018  42.382  52.597  1.00  0.00     0.278 C 
BRANCH  21  22
HETATM   22  O   UNL     1      29.284  43.185  53.739  1.00  0.00    -0.339 OA
BRANCH  22  23
HETATM   23  C   UNL     1      28.511  44.304  53.914  1.00  0.00     0.102 A 
HETATM   24  C   UNL     1      28.940  45.203  54.909  1.00  0.00     0.102 A 
HETATM   25  C   UNL     1      28.193  46.354  55.188  1.00  0.00     0.054 A 
HETATM   26  C   UNL     1      27.024  46.624  54.466  1.00  0.00     0.012 A 
HETATM   27  C   UNL     1      26.612  45.736  53.465  1.00  0.00     0.018 A 
HETATM   28  C   UNL     1      27.348  44.578  53.194  1.00  0.00     0.040 A 
BRANCH  24  29
HETATM   29  O   UNL     1      30.083  44.860  55.591  1.00  0.00    -0.353 OA
HETATM   30  C   UNL     1      30.216  45.388  56.905  1.00  0.00     0.210 C 
ENDBRANCH  24  29
BRANCH  26  31
HETATM   31  C   UNL     1      26.186  47.830  54.732  1.00  0.00     0.155 C 
HETATM   32  C   UNL     1      26.431  48.634  55.982  1.00  0.00     0.096 C 
HETATM   33  O   UNL     1      25.311  48.153  53.931  1.00  0.00    -0.293 OA
ENDBRANCH  26  31
ENDBRANCH  22  23
ENDBRANCH  21  22
ENDBRANCH   1  21
TORSDOF 9
ENDMDL
MODEL 8
REMARK VINA RESULT:      -8.4      1.518      1.964
REMARK  9 active torsions:
REMARK  status: ('A' for Active; 'I' for Inactive)
REMARK    1  A    between atoms: C_2  and  C_3 
REMARK    2  A    between atoms: C_5  and  O_6 
REMARK    3  A    between atoms: C_8  and  O_9 
REMARK    4  A    between atoms: O_9  and  C_10 
REMARK    5  A    between atoms: C_10  and  C_11 
REMARK       I    between atoms: C_11  and  N_12 
REMARK    6  A    between atoms: N_12  and  C_13 
REMARK    7  A    between atoms: C_13  and  C_14 
REMARK    8  A    between atoms: C_17  and  N_18 
REMARK       I    between atoms: N_18  and  C_19 
REMARK    9  A    between atoms: C_19  and  C_20 
ROOT
HETATM    1  C   UNL     1      27.577  41.116  49.823  1.00  0.00     0.242 C 
HETATM    2  N   UNL     1      26.238  41.181  49.568  1.00  0.00    -0.355 N 
HETATM    3  O   UNL     1      28.350  40.903  48.887  1.00  0.00    -0.271 OA
HETATM    4  H   UNL     1      26.013  41.062  48.589  1.00  0.00     0.162 HD
ENDROOT
BRANCH   2   5
HETATM    5  C   UNL     1      25.171  41.600  50.455  1.00  0.00     0.161 C 
BRANCH   5   6
HETATM    6  C   UNL     1      24.648  42.950  50.033  1.00  0.00    -0.040 A 
HETATM    7  C   UNL     1      25.538  43.966  49.661  1.00  0.00     0.011 A 
HETATM    8  C   UNL     1      25.073  45.246  49.340  1.00  0.00     0.030 A 
HETATM    9  C   UNL     1      23.710  45.536  49.388  1.00  0.00     0.035 A 
HETATM   10  C   UNL     1      22.816  44.517  49.737  1.00  0.00     0.030 A 
HETATM   11  C   UNL     1      23.279  43.236  50.059  1.00  0.00     0.011 A 
BRANCH   9  12
HETATM   12  N   UNL     1      23.167  46.809  49.133  1.00  0.00    -0.321 N 
HETATM   13  C   UNL     1      23.569  48.032  49.640  1.00  0.00     0.279 C 
HETATM   14  O   UNL     1      24.539  48.221  50.365  1.00  0.00    -0.265 OA
HETATM   15  H   UNL     1      22.346  46.850  48.538  1.00  0.00     0.169 HD
BRANCH  13  16
HETATM   16  C   UNL     1      22.695  49.119  49.229  1.00  0.00     0.142 A 
HETATM   17  O   UNL     1      21.333  48.959  49.308  1.00  0.00    -0.317 OA
HETATM   18  C   UNL     1      20.770  50.120  48.884  1.00  0.00     0.143 A 
HETATM   19  C   UNL     1      21.741  51.028  48.531  1.00  0.00     0.027 A 
HETATM   20  C   UNL     1      22.981  50.384  48.750  1.00  0.00     0.045 A 
ENDBRANCH  13  16
ENDBRANCH   9  12
ENDBRANCH   5   6
ENDBRANCH   2   5
BRANCH   1  21
HETATM   21  C   UNL     1      28.082  41.331  51.244  1.00  0.00     0.278 C 
BRANCH  21  22
HETATM   22  O   UNL     1      28.285  42.722  51.455  1.00  0.00    -0.339 OA
BRANCH  22  23
HETATM   23  C   UNL     1      28.842  43.102  52.649  1.00  0.00     0.102 A 
HETATM   24  C   UNL     1      28.165  44.119  53.351  1.00  0.00     0.102 A 
HETATM   25  C   UNL     1      28.680  44.601  54.561  1.00  0.00     0.054 A 
HETATM   26  C   UNL     1      29.861  44.063  55.085  1.00  0.00     0.012 A 
HETATM   27  C   UNL     1      30.519  43.039  54.392  1.00  0.00     0.018 A 
HETATM   28  C   UNL     1      30.016  42.565  53.177  1.00  0.00     0.040 A 
BRANCH  24  29
HETATM   29  O   UNL     1      27.026  44.614  52.763  1.00  0.00    -0.353 OA
HETATM   30  C   UNL     1      25.795  44.277  53.389  1.00  0.00     0.210 C 
ENDBRANCH  24  29
BRANCH  26  31
HETATM   31  C   UNL     1      30.458  44.549  56.364  1.00  0.00     0.155 C 
HETATM   32  C   UNL     1      29.949  45.831  56.970  1.00  0.00     0.096 C 
HETATM   33  O   UNL     1      31.352  43.902  56.905  1.00  0.00    -0.293 OA
ENDBRANCH  26  31
ENDBRANCH  22  23
ENDBRANCH  21  22
ENDBRANCH   1  21
TORSDOF 9
ENDMDL
MODEL 9
REMARK VINA RESULT:      -8.1     12.697     15.230
REMARK  9 active torsions:
REMARK  status: ('A' for Active; 'I' for Inactive)
REMARK    1  A    between atoms: C_2  and  C_3 
REMARK    2  A    between atoms: C_5  and  O_6 
REMARK    3  A    between atoms: C_8  and  O_9 
REMARK    4  A    between atoms: O_9  and  C_10 
REMARK    5  A    between atoms: C_10  and  C_11 
REMARK       I    between atoms: C_11  and  N_12 
REMARK    6  A    between atoms: N_12  and  C_13 
REMARK    7  A    between atoms: C_13  and  C_14 
REMARK    8  A    between atoms: C_17  and  N_18 
REMARK       I    between atoms: N_18  and  C_19 
REMARK    9  A    between atoms: C_19  and  C_20 
ROOT
HETATM    1  C   UNL     1      27.549  47.892  38.557  1.00  0.00     0.242 C 
HETATM    2  N   UNL     1      28.436  47.362  39.448  1.00  0.00    -0.355 N 
HETATM    3  O   UNL     1      27.507  47.429  37.415  1.00  0.00    -0.271 OA
HETATM    4  H   UNL     1      28.976  46.596  39.066  1.00  0.00     0.162 HD
ENDROOT
BRANCH   2   5
HETATM    5  C   UNL     1      28.536  47.607  40.873  1.00  0.00     0.161 C 
BRANCH   5   6
HETATM    6  C   UNL     1      29.836  48.304  41.187  1.00  0.00    -0.040 A 
HETATM    7  C   UNL     1      30.804  48.474  40.189  1.00  0.00     0.011 A 
HETATM    8  C   UNL     1      32.044  49.052  40.484  1.00  0.00     0.030 A 
HETATM    9  C   UNL     1      32.342  49.465  41.782  1.00  0.00     0.035 A 
HETATM   10  C   UNL     1      31.368  49.317  42.776  1.00  0.00     0.030 A 
HETATM   11  C   UNL     1      30.127  48.740  42.485  1.00  0.00     0.011 A 
BRANCH   9  12
HETATM   12  N   UNL     1      33.583  50.004  42.170  1.00  0.00    -0.321 N 
HETATM   13  C   UNL     1      34.165  51.194  41.772  1.00  0.00     0.279 C 
HETATM   14  O   UNL     1      33.647  52.035  41.046  1.00  0.00    -0.265 OA
HETATM   15  H   UNL     1      34.159  49.440  42.786  1.00  0.00     0.169 HD
BRANCH  13  16
HETATM   16  C   UNL     1      35.507  51.363  42.306  1.00  0.00     0.142 A 
HETATM   17  O   UNL     1      35.859  52.558  42.886  1.00  0.00    -0.317 OA
HETATM   18  C   UNL     1      37.143  52.433  43.308  1.00  0.00     0.143 A 
HETATM   19  C   UNL     1      37.630  51.181  43.013  1.00  0.00     0.027 A 
HETATM   20  C   UNL     1      36.578  50.492  42.365  1.00  0.00     0.045 A 
ENDBRANCH  13  16
ENDBRANCH   9  12
ENDBRANCH   5   6
ENDBRANCH   2   5
BRANCH   1  21
HETATM   21  C   UNL     1      26.623  49.018  38.997  1.00  0.00     0.278 C 
BRANCH  21  22
HETATM   22  O   UNL     1      27.143  50.253  38.523  1.00  0.00    -0.339 OA
BRANCH  22  23
HETATM   23  C   UNL     1      27.923  50.980  39.386  1.00  0.00     0.102 A 
HETATM   24  C   UNL     1      29.154  51.433  38.875  1.00  0.00     0.102 A 
HETATM   25  C   UNL     1      30.036  52.149  39.694  1.00  0.00     0.054 A 
HETATM   26  C   UNL     1      29.688  52.431  41.021  1.00  0.00     0.012 A 
HETATM   27  C   UNL     1      28.454  51.994  41.518  1.00  0.00     0.018 A 
HETATM   28  C   UNL     1      27.578  51.266  40.707  1.00  0.00     0.040 A 
BRANCH  24  29
HETATM   29  O   UNL     1      29.436  51.098  37.572  1.00  0.00    -0.353 OA
HETATM   30  C   UNL     1      30.789  51.248  37.161  1.00  0.00     0.210 C 
ENDBRANCH  24  29
BRANCH  26  31
HETATM   31  C   UNL     1      30.597  53.181  41.939  1.00  0.00     0.155 C 
HETATM   32  C   UNL     1      30.806  52.671  43.341  1.00  0.00     0.096 C 
HETATM   33  O   UNL     1      31.161  54.198  41.541  1.00  0.00    -0.293 OA
ENDBRANCH  26  31
ENDBRANCH  22  23
ENDBRANCH  21  22
ENDBRANCH   1  21
TORSDOF 9
ENDMDL
MODEL 10
REMARK VINA RESULT:      -8.0     11.288     14.111
REMARK  9 active torsions:
REMARK  status: ('A' for Active; 'I' for Inactive)
REMARK    1  A    between atoms: C_2  and  C_3 
REMARK    2  A    between atoms: C_5  and  O_6 
REMARK    3  A    between atoms: C_8  and  O_9 
REMARK    4  A    between atoms: O_9  and  C_10 
REMARK    5  A    between atoms: C_10  and  C_11 
REMARK       I    between atoms: C_11  and  N_12 
REMARK    6  A    between atoms: N_12  and  C_13 
REMARK    7  A    between atoms: C_13  and  C_14 
REMARK    8  A    between atoms: C_17  and  N_18 
REMARK       I    between atoms: N_18  and  C_19 
REMARK    9  A    between atoms: C_19  and  C_20 
ROOT
HETATM    1  C   UNL     1      30.794  53.325  40.288  1.00  0.00     0.242 C 
HETATM    2  N   UNL     1      29.537  53.501  39.789  1.00  0.00    -0.355 N 
HETATM    3  O   UNL     1      31.110  53.915  41.324  1.00  0.00    -0.271 OA
HETATM    4  H   UNL     1      28.964  54.110  40.359  1.00  0.00     0.162 HD
ENDROOT
BRANCH   2   5
HETATM    5  C   UNL     1      28.886  52.781  38.713  1.00  0.00     0.161 C 
BRANCH   5   6
HETATM    6  C   UNL     1      28.082  51.634  39.270  1.00  0.00    -0.040 A 
HETATM    7  C   UNL     1      27.810  51.565  40.643  1.00  0.00     0.011 A 
HETATM    8  C   UNL     1      27.130  50.468  41.186  1.00  0.00     0.030 A 
HETATM    9  C   UNL     1      26.713  49.418  40.368  1.00  0.00     0.035 A 
HETATM   10  C   UNL     1      26.963  49.496  38.992  1.00  0.00     0.030 A 
HETATM   11  C   UNL     1      27.643  50.591  38.447  1.00  0.00     0.011 A 
BRANCH   9  12
HETATM   12  N   UNL     1      26.073  48.258  40.842  1.00  0.00    -0.321 N 
HETATM   13  C   UNL     1      24.796  47.806  40.562  1.00  0.00     0.279 C 
HETATM   14  O   UNL     1      24.011  48.324  39.775  1.00  0.00    -0.265 OA
HETATM   15  H   UNL     1      26.583  47.691  41.511  1.00  0.00     0.169 HD
BRANCH  13  16
HETATM   16  C   UNL     1      24.446  46.619  41.324  1.00  0.00     0.142 A 
HETATM   17  O   UNL     1      23.132  46.385  41.648  1.00  0.00    -0.317 OA
HETATM   18  C   UNL     1      23.093  45.214  42.335  1.00  0.00     0.143 A 
HETATM   19  C   UNL     1      24.356  44.686  42.463  1.00  0.00     0.027 A 
HETATM   20  C   UNL     1      25.229  45.590  41.815  1.00  0.00     0.045 A 
ENDBRANCH  13  16
ENDBRANCH   9  12
ENDBRANCH   5   6
ENDBRANCH   2   5
BRANCH   1  21
HETATM   21  C   UNL     1      31.763  52.392  39.573  1.00  0.00     0.278 C 
BRANCH  21  22
HETATM   22  O   UNL     1      32.057  51.293  40.425  1.00  0.00    -0.339 OA
BRANCH  22  23
HETATM   23  C   UNL     1      31.363  50.130  40.213  1.00  0.00     0.102 A 
HETATM   24  C   UNL     1      30.733  49.570  41.341  1.00  0.00     0.102 A 
HETATM   25  C   UNL     1      30.034  48.361  41.230  1.00  0.00     0.054 A 
HETATM   26  C   UNL     1      29.944  47.714  39.993  1.00  0.00     0.012 A 
HETATM   27  C   UNL     1      30.555  48.285  38.870  1.00  0.00     0.018 A 
HETATM   28  C   UNL     1      31.267  49.484  38.980  1.00  0.00     0.040 A 
BRANCH  24  29
HETATM   29  O   UNL     1      30.885  50.249  42.526  1.00  0.00    -0.353 OA
HETATM   30  C   UNL     1      32.143  50.111  43.176  1.00  0.00     0.210 C 
ENDBRANCH  24  29
BRANCH  26  31
HETATM   31  C   UNL     1      29.221  46.419  39.823  1.00  0.00     0.155 C 
HETATM   32  C   UNL     1      29.651  45.476  38.730  1.00  0.00     0.096 C 
HETATM   33  O   UNL     1      28.289  46.138  40.574  1.00  0.00    -0.293 OA
ENDBRANCH  26  31
ENDBRANCH  22  23
ENDBRANCH  21  22
ENDBRANCH   1  21
TORSDOF 9
ENDMDL
