MODEL 1
REMARK VINA RESULT:      -8.4      0.000      0.000
REMARK  5 active torsions:
REMARK  status: ('A' for Active; 'I' for Inactive)
REMARK    1  A    between atoms: C_3  and  N_4 
REMARK    2  A    between atoms: N_4  and  C_5 
REMARK    3  A    between atoms: C_5  and  C_6 
REMARK    4  A    between atoms: C_8  and  N_9 
REMARK    5  A    between atoms: C_18  and  C_19 
ROOT
HETATM    1  C   UNL     1      25.367  46.839  52.276  1.00  0.00     0.053 C 
HETATM    2  C   UNL     1      26.448  46.215  53.116  1.00  0.00    -0.005 A 
HETATM    3  C   UNL     1      27.055  44.921  52.590  1.00  0.00     0.151 A 
HETATM    4  N   UNL     1      28.038  44.302  53.191  1.00  0.00    -0.146 NA
HETATM    5  N   UNL     1      28.465  44.888  54.331  1.00  0.00    -0.187 N 
HETATM    6  C   UNL     1      27.988  46.040  54.910  1.00  0.00     0.181 A 
HETATM    7  C   UNL     1      26.929  46.740  54.268  1.00  0.00    -0.003 A 
HETATM    8  C   UNL     1      26.367  48.014  54.856  1.00  0.00     0.053 C 
HETATM    9  C   UNL     1      29.456  44.446  55.163  1.00  0.00     0.258 A 
HETATM   10  N   UNL     1      29.581  45.279  56.182  1.00  0.00    -0.123 NA
HETATM   11  N   UNL     1      28.655  46.282  56.020  1.00  0.00    -0.128 NA
ENDROOT
BRANCH   3  12
HETATM   12  N   UNL     1      26.573  44.357  51.435  1.00  0.00    -0.366 N 
HETATM   13  H   UNL     1      26.208  44.958  50.699  1.00  0.00     0.161 HD
BRANCH  12  14
HETATM   14  C   UNL     1      25.969  43.027  51.393  1.00  0.00     0.201 C 
BRANCH  14  15
HETATM   15  C   UNL     1      26.829  42.056  50.598  1.00  0.00     0.144 A 
HETATM   16  N   UNL     1      27.586  41.176  51.286  1.00  0.00    -0.220 NA
HETATM   17  C   UNL     1      28.315  40.314  50.570  1.00  0.00     0.104 A 
HETATM   18  C   UNL     1      28.318  40.301  49.194  1.00  0.00     0.063 A 
HETATM   19  C   UNL     1      27.510  41.226  48.578  1.00  0.00     0.122 A 
HETATM   20  N   UNL     1      26.752  42.112  49.247  1.00  0.00    -0.244 NA
BRANCH  17  21
HETATM   21  N   UNL     1      29.123  39.437  51.287  1.00  0.00    -0.287 NA
HETATM   22  H   UNL     1      28.891  39.538  52.273  1.00  0.00     0.125 HD
HETATM   23  H   UNL     1      29.018  38.478  50.975  1.00  0.00     0.125 HD
ENDBRANCH  17  21
ENDBRANCH  14  15
ENDBRANCH  12  14
ENDBRANCH   3  12
BRANCH   9  24
HETATM   24  C   UNL     1      30.203  43.217  54.870  1.00  0.00     0.454 C 
HETATM   25  F   UNL     1      29.410  42.111  54.853  1.00  0.00    -0.163 F 
HETATM   26  F   UNL     1      30.834  43.264  53.665  1.00  0.00    -0.163 F 
HETATM   27  F   UNL     1      31.172  42.965  55.793  1.00  0.00    -0.163 F 
ENDBRANCH   9  24
TORSDOF 5
ENDMDL
MODEL 2
REMARK VINA RESULT:      -8.3      1.877      2.512
REMARK  5 active torsions:
REMARK  status: ('A' for Active; 'I' for Inactive)
REMARK    1  A    between atoms: C_3  and  N_4 
REMARK    2  A    between atoms: N_4  and  C_5 
REMARK    3  A    between atoms: C_5  and  C_6 
REMARK    4  A    between atoms: C_8  and  N_9 
REMARK    5  A    between atoms: C_18  and  C_19 
ROOT
HETATM    1  C   UNL     1      27.440  44.172  51.995  1.00  0.00     0.053 C 
HETATM    2  C   UNL     1      28.179  44.338  53.294  1.00  0.00    -0.005 A 
HETATM    3  C   UNL     1      29.272  43.319  53.589  1.00  0.00     0.151 A 
HETATM    4  N   UNL     1      30.029  43.376  54.655  1.00  0.00    -0.146 NA
HETATM    5  N   UNL     1      29.753  44.401  55.492  1.00  0.00    -0.187 N 
HETATM    6  C   UNL     1      28.787  45.367  55.342  1.00  0.00     0.181 A 
HETATM    7  C   UNL     1      27.962  45.336  54.184  1.00  0.00    -0.003 A 
HETATM    8  C   UNL     1      26.886  46.374  53.964  1.00  0.00     0.053 C 
HETATM    9  C   UNL     1      30.369  44.683  56.679  1.00  0.00     0.258 A 
HETATM   10  N   UNL     1      29.819  45.758  57.217  1.00  0.00    -0.123 NA
HETATM   11  N   UNL     1      28.823  46.186  56.373  1.00  0.00    -0.128 NA
ENDROOT
BRANCH   3  12
HETATM   12  N   UNL     1      29.501  42.286  52.714  1.00  0.00    -0.366 N 
HETATM   13  H   UNL     1      29.762  42.493  51.753  1.00  0.00     0.161 HD
BRANCH  12  14
HETATM   14  C   UNL     1      28.834  40.990  52.824  1.00  0.00     0.201 C 
BRANCH  14  15
HETATM   15  C   UNL     1      28.822  40.262  51.489  1.00  0.00     0.144 A 
HETATM   16  N   UNL     1      29.384  39.036  51.435  1.00  0.00    -0.220 NA
HETATM   17  C   UNL     1      29.341  38.400  50.260  1.00  0.00     0.104 A 
HETATM   18  C   UNL     1      28.761  38.945  49.137  1.00  0.00     0.063 A 
HETATM   19  C   UNL     1      28.204  40.192  49.287  1.00  0.00     0.122 A 
HETATM   20  N   UNL     1      28.214  40.875  50.445  1.00  0.00    -0.244 NA
BRANCH  17  21
HETATM   21  N   UNL     1      29.958  37.155  50.203  1.00  0.00    -0.287 NA
HETATM   22  H   UNL     1      29.872  36.725  51.121  1.00  0.00     0.125 HD
HETATM   23  H   UNL     1      29.567  36.566  49.476  1.00  0.00     0.125 HD
ENDBRANCH  17  21
ENDBRANCH  14  15
ENDBRANCH  12  14
ENDBRANCH   3  12
BRANCH   9  24
HETATM   24  C   UNL     1      31.466  43.848  57.184  1.00  0.00     0.454 C 
HETATM   25  F   UNL     1      31.070  42.580  57.477  1.00  0.00    -0.163 F 
HETATM   26  F   UNL     1      32.492  43.742  56.295  1.00  0.00    -0.163 F 
HETATM   27  F   UNL     1      32.011  44.342  58.329  1.00  0.00    -0.163 F 
ENDBRANCH   9  24
TORSDOF 5
ENDMDL
MODEL 3
REMARK VINA RESULT:      -8.2      2.644      3.993
REMARK  5 active torsions:
REMARK  status: ('A' for Active; 'I' for Inactive)
REMARK    1  A    between atoms: C_3  and  N_4 
REMARK    2  A    between atoms: N_4  and  C_5 
REMARK    3  A    between atoms: C_5  and  C_6 
REMARK    4  A    between atoms: C_8  and  N_9 
REMARK    5  A    between atoms: C_18  and  C_19 
ROOT
HETATM    1  C   UNL     1      29.115  41.330  53.580  1.00  0.00     0.053 C 
HETATM    2  C   UNL     1      28.708  42.758  53.818  1.00  0.00    -0.005 A 
HETATM    3  C   UNL     1      27.445  43.232  53.111  1.00  0.00     0.151 A 
HETATM    4  N   UNL     1      26.948  44.432  53.271  1.00  0.00    -0.146 NA
HETATM    5  N   UNL     1      27.653  45.232  54.100  1.00  0.00    -0.187 N 
HETATM    6  C   UNL     1      28.808  44.924  54.779  1.00  0.00     0.181 A 
HETATM    7  C   UNL     1      29.361  43.621  54.634  1.00  0.00    -0.003 A 
HETATM    8  C   UNL     1      30.627  43.225  55.357  1.00  0.00     0.053 C 
HETATM    9  C   UNL     1      27.374  46.529  54.428  1.00  0.00     0.258 A 
HETATM   10  N   UNL     1      28.297  46.984  55.259  1.00  0.00    -0.123 NA
HETATM   11  N   UNL     1      29.199  45.970  55.478  1.00  0.00    -0.128 NA
ENDROOT
BRANCH   3  12
HETATM   12  N   UNL     1      26.774  42.384  52.264  1.00  0.00    -0.366 N 
HETATM   13  H   UNL     1      26.816  41.381  52.425  1.00  0.00     0.161 HD
BRANCH  12  14
HETATM   14  C   UNL     1      26.534  42.695  50.856  1.00  0.00     0.201 C 
BRANCH  14  15
HETATM   15  C   UNL     1      27.213  41.683  49.945  1.00  0.00     0.144 A 
HETATM   16  N   UNL     1      27.303  41.979  48.632  1.00  0.00    -0.220 NA
HETATM   17  C   UNL     1      27.926  41.091  47.852  1.00  0.00     0.104 A 
HETATM   18  C   UNL     1      28.459  39.917  48.335  1.00  0.00     0.063 A 
HETATM   19  C   UNL     1      28.330  39.703  49.686  1.00  0.00     0.122 A 
HETATM   20  N   UNL     1      27.719  40.565  50.518  1.00  0.00    -0.244 NA
BRANCH  17  21
HETATM   21  N   UNL     1      27.979  41.384  46.493  1.00  0.00    -0.287 NA
HETATM   22  H   UNL     1      28.049  40.503  45.989  1.00  0.00     0.125 HD
HETATM   23  H   UNL     1      27.180  41.927  46.187  1.00  0.00     0.125 HD
ENDBRANCH  17  21
ENDBRANCH  14  15
ENDBRANCH  12  14
ENDBRANCH   3  12
BRANCH   9  24
HETATM   24  C   UNL     1      26.199  47.216  53.878  1.00  0.00     0.454 C 
HETATM   25  F   UNL     1      26.374  47.606  52.586  1.00  0.00    -0.163 F 
HETATM   26  F   UNL     1      25.081  46.440  53.904  1.00  0.00    -0.163 F 
HETATM   27  F   UNL     1      25.887  48.347  54.569  1.00  0.00    -0.163 F 
ENDBRANCH   9  24
TORSDOF 5
ENDMDL
MODEL 4
REMARK VINA RESULT:      -8.2      1.469      2.314
REMARK  5 active torsions:
REMARK  status: ('A' for Active; 'I' for Inactive)
REMARK    1  A    between atoms: C_3  and  N_4 
REMARK    2  A    between atoms: N_4  and  C_5 
REMARK    3  A    between atoms: C_5  and  C_6 
REMARK    4  A    between atoms: C_8  and  N_9 
REMARK    5  A    between atoms: C_18  and  C_19 
ROOT
HETATM    1  C   UNL     1      25.720  44.555  52.988  1.00  0.00     0.053 C 
HETATM    2  C   UNL     1      26.943  44.600  53.862  1.00  0.00    -0.005 A 
HETATM    3  C   UNL     1      27.723  43.300  54.008  1.00  0.00     0.151 A 
HETATM    4  N   UNL     1      28.834  43.209  54.692  1.00  0.00    -0.146 NA
HETATM    5  N   UNL     1      29.231  44.358  55.282  1.00  0.00    -0.187 N 
HETATM    6  C   UNL     1      28.608  45.582  55.236  1.00  0.00     0.181 A 
HETATM    7  C   UNL     1      27.406  45.710  54.485  1.00  0.00    -0.003 A 
HETATM    8  C   UNL     1      26.679  47.032  54.396  1.00  0.00     0.053 C 
HETATM    9  C   UNL     1      30.335  44.541  56.067  1.00  0.00     0.258 A 
HETATM   10  N   UNL     1      30.386  45.800  56.470  1.00  0.00    -0.123 NA
HETATM   11  N   UNL     1      29.297  46.452  55.945  1.00  0.00    -0.128 NA
ENDROOT
BRANCH   3  12
HETATM   12  N   UNL     1      27.266  42.155  53.401  1.00  0.00    -0.366 N 
HETATM   13  H   UNL     1      26.395  41.735  53.717  1.00  0.00     0.161 HD
BRANCH  12  14
HETATM   14  C   UNL     1      28.158  41.162  52.806  1.00  0.00     0.201 C 
BRANCH  14  15
HETATM   15  C   UNL     1      27.957  41.073  51.301  1.00  0.00     0.144 A 
HETATM   16  N   UNL     1      27.342  42.104  50.686  1.00  0.00    -0.220 NA
HETATM   17  C   UNL     1      27.198  42.020  49.359  1.00  0.00     0.104 A 
HETATM   18  C   UNL     1      27.642  40.942  48.627  1.00  0.00     0.063 A 
HETATM   19  C   UNL     1      28.264  39.943  49.335  1.00  0.00     0.122 A 
HETATM   20  N   UNL     1      28.442  39.978  50.668  1.00  0.00    -0.244 NA
BRANCH  17  21
HETATM   21  N   UNL     1      26.528  43.069  48.737  1.00  0.00    -0.287 NA
HETATM   22  H   UNL     1      27.229  43.720  48.390  1.00  0.00     0.125 HD
HETATM   23  H   UNL     1      25.917  42.747  47.996  1.00  0.00     0.125 HD
ENDBRANCH  17  21
ENDBRANCH  14  15
ENDBRANCH  12  14
ENDBRANCH   3  12
BRANCH   9  24
HETATM   24  C   UNL     1      31.257  43.435  56.354  1.00  0.00     0.454 C 
HETATM   25  F   UNL     1      32.385  43.843  56.997  1.00  0.00    -0.163 F 
HETATM   26  F   UNL     1      30.690  42.472  57.131  1.00  0.00    -0.163 F 
HETATM   27  F   UNL     1      31.680  42.804  55.224  1.00  0.00    -0.163 F 
ENDBRANCH   9  24
TORSDOF 5
ENDMDL
MODEL 5
REMARK VINA RESULT:      -8.2      3.439      5.774
REMARK  5 active torsions:
REMARK  status: ('A' for Active; 'I' for Inactive)
REMARK    1  A    between atoms: C_3  and  N_4 
REMARK    2  A    between atoms: N_4  and  C_5 
REMARK    3  A    between atoms: C_5  and  C_6 
REMARK    4  A    between atoms: C_8  and  N_9 
REMARK    5  A    between atoms: C_18  and  C_19 
ROOT
HETATM    1  C   UNL     1      27.028  47.783  54.640  1.00  0.00     0.053 C 
HETATM    2  C   UNL     1      27.112  46.381  54.103  1.00  0.00    -0.005 A 
HETATM    3  C   UNL     1      26.338  46.096  52.822  1.00  0.00     0.151 A 
HETATM    4  N   UNL     1      26.367  44.937  52.217  1.00  0.00    -0.146 NA
HETATM    5  N   UNL     1      27.122  43.997  52.827  1.00  0.00    -0.187 N 
HETATM    6  C   UNL     1      27.849  44.130  53.986  1.00  0.00     0.181 A 
HETATM    7  C   UNL     1      27.847  45.386  54.656  1.00  0.00    -0.003 A 
HETATM    8  C   UNL     1      28.629  45.591  55.932  1.00  0.00     0.053 C 
HETATM    9  C   UNL     1      27.310  42.704  52.426  1.00  0.00     0.258 A 
HETATM   10  N   UNL     1      28.107  42.088  53.283  1.00  0.00    -0.123 NA
HETATM   11  N   UNL     1      28.444  42.988  54.265  1.00  0.00    -0.128 NA
ENDROOT
BRANCH   3  12
HETATM   12  N   UNL     1      25.571  47.082  52.251  1.00  0.00    -0.366 N 
HETATM   13  H   UNL     1      25.038  47.710  52.848  1.00  0.00     0.161 HD
BRANCH  12  14
HETATM   14  C   UNL     1      24.961  46.947  50.930  1.00  0.00     0.201 C 
BRANCH  14  15
HETATM   15  C   UNL     1      25.526  47.969  49.956  1.00  0.00     0.144 A 
HETATM   16  N   UNL     1      24.655  48.653  49.185  1.00  0.00    -0.220 NA
HETATM   17  C   UNL     1      25.168  49.566  48.354  1.00  0.00     0.104 A 
HETATM   18  C   UNL     1      26.518  49.817  48.261  1.00  0.00     0.063 A 
HETATM   19  C   UNL     1      27.329  49.080  49.091  1.00  0.00     0.122 A 
HETATM   20  N   UNL     1      26.867  48.155  49.950  1.00  0.00    -0.244 NA
BRANCH  17  21
HETATM   21  N   UNL     1      24.267  50.238  47.534  1.00  0.00    -0.287 NA
HETATM   22  H   UNL     1      24.187  51.192  47.880  1.00  0.00     0.125 HD
HETATM   23  H   UNL     1      24.545  50.216  46.560  1.00  0.00     0.125 HD
ENDBRANCH  17  21
ENDBRANCH  14  15
ENDBRANCH  12  14
ENDBRANCH   3  12
BRANCH   9  24
HETATM   24  C   UNL     1      26.673  42.185  51.210  1.00  0.00     0.454 C 
HETATM   25  F   UNL     1      25.325  42.371  51.203  1.00  0.00    -0.163 F 
HETATM   26  F   UNL     1      27.154  42.769  50.079  1.00  0.00    -0.163 F 
HETATM   27  F   UNL     1      26.865  40.846  51.054  1.00  0.00    -0.163 F 
ENDBRANCH   9  24
TORSDOF 5
ENDMDL
MODEL 6
REMARK VINA RESULT:      -8.1      3.617      5.978
REMARK  5 active torsions:
REMARK  status: ('A' for Active; 'I' for Inactive)
REMARK    1  A    between atoms: C_3  and  N_4 
REMARK    2  A    between atoms: N_4  and  C_5 
REMARK    3  A    between atoms: C_5  and  C_6 
REMARK    4  A    between atoms: C_8  and  N_9 
REMARK    5  A    between atoms: C_18  and  C_19 
ROOT
HETATM    1  C   UNL     1      26.609  43.055  49.901  1.00  0.00     0.053 C 
HETATM    2  C   UNL     1      27.003  43.729  51.186  1.00  0.00    -0.005 A 
HETATM    3  C   UNL     1      26.418  45.113  51.435  1.00  0.00     0.151 A 
HETATM    4  N   UNL     1      26.633  45.789  52.534  1.00  0.00    -0.146 NA
HETATM    5  N   UNL     1      27.437  45.173  53.430  1.00  0.00    -0.187 N 
HETATM    6  C   UNL     1      28.033  43.941  53.312  1.00  0.00     0.181 A 
HETATM    7  C   UNL     1      27.801  43.179  52.133  1.00  0.00    -0.003 A 
HETATM    8  C   UNL     1      28.428  41.816  51.948  1.00  0.00     0.053 C 
HETATM    9  C   UNL     1      27.840  45.658  54.643  1.00  0.00     0.258 A 
HETATM   10  N   UNL     1      28.629  44.775  55.231  1.00  0.00    -0.123 NA
HETATM   11  N   UNL     1      28.748  43.694  54.390  1.00  0.00    -0.128 NA
ENDROOT
BRANCH   3  12
HETATM   12  N   UNL     1      25.621  45.701  50.484  1.00  0.00    -0.366 N 
HETATM   13  H   UNL     1      25.827  45.556  49.499  1.00  0.00     0.161 HD
BRANCH  12  14
HETATM   14  C   UNL     1      24.920  46.964  50.708  1.00  0.00     0.201 C 
BRANCH  14  15
HETATM   15  C   UNL     1      25.423  48.048  49.766  1.00  0.00     0.144 A 
HETATM   16  N   UNL     1      24.515  48.692  49.005  1.00  0.00    -0.220 NA
HETATM   17  C   UNL     1      24.972  49.659  48.203  1.00  0.00     0.104 A 
HETATM   18  C   UNL     1      26.303  50.003  48.132  1.00  0.00     0.063 A 
HETATM   19  C   UNL     1      27.155  49.300  48.950  1.00  0.00     0.122 A 
HETATM   20  N   UNL     1      26.749  48.323  49.779  1.00  0.00    -0.244 NA
BRANCH  17  21
HETATM   21  N   UNL     1      24.035  50.292  47.392  1.00  0.00    -0.287 NA
HETATM   22  H   UNL     1      23.248  49.657  47.277  1.00  0.00     0.125 HD
HETATM   23  H   UNL     1      23.742  51.185  47.770  1.00  0.00     0.125 HD
ENDBRANCH  17  21
ENDBRANCH  14  15
ENDBRANCH  12  14
ENDBRANCH   3  12
BRANCH   9  24
HETATM   24  C   UNL     1      27.404  46.976  55.119  1.00  0.00     0.454 C 
HETATM   25  F   UNL     1      26.060  47.160  54.999  1.00  0.00    -0.163 F 
HETATM   26  F   UNL     1      27.712  47.187  56.427  1.00  0.00    -0.163 F 
HETATM   27  F   UNL     1      27.982  47.996  54.427  1.00  0.00    -0.163 F 
ENDBRANCH   9  24
TORSDOF 5
ENDMDL
MODEL 7
REMARK VINA RESULT:      -8.1      2.926      4.605
REMARK  5 active torsions:
REMARK  status: ('A' for Active; 'I' for Inactive)
REMARK    1  A    between atoms: C_3  and  N_4 
REMARK    2  A    between atoms: N_4  and  C_5 
REMARK    3  A    between atoms: C_5  and  C_6 
REMARK    4  A    between atoms: C_8  and  N_9 
REMARK    5  A    between atoms: C_18  and  C_19 
ROOT
HETATM    1  C   UNL     1      30.235  42.096  53.260  1.00  0.00     0.053 C 
HETATM    2  C   UNL     1      29.559  43.322  53.810  1.00  0.00    -0.005 A 
HETATM    3  C   UNL     1      28.390  43.873  53.003  1.00  0.00     0.151 A 
HETATM    4  N   UNL     1      27.680  44.900  53.392  1.00  0.00    -0.146 NA
HETATM    5  N   UNL     1      28.075  45.454  54.560  1.00  0.00    -0.187 N 
HETATM    6  C   UNL     1      29.117  45.057  55.363  1.00  0.00     0.181 A 
HETATM    7  C   UNL     1      29.895  43.933  54.971  1.00  0.00    -0.003 A 
HETATM    8  C   UNL     1      31.051  43.451  55.816  1.00  0.00     0.053 C 
HETATM    9  C   UNL     1      27.527  46.540  55.182  1.00  0.00     0.258 A 
HETATM   10  N   UNL     1      28.190  46.789  56.299  1.00  0.00    -0.123 NA
HETATM   11  N   UNL     1      29.190  45.854  56.411  1.00  0.00    -0.128 NA
ENDROOT
BRANCH   3  12
HETATM   12  N   UNL     1      28.040  43.284  51.813  1.00  0.00    -0.366 N 
HETATM   13  H   UNL     1      28.409  43.657  50.942  1.00  0.00     0.161 HD
BRANCH  12  14
HETATM   14  C   UNL     1      26.761  42.606  51.609  1.00  0.00     0.201 C 
BRANCH  14  15
HETATM   15  C   UNL     1      25.791  43.483  50.833  1.00  0.00     0.144 A 
HETATM   16  N   UNL     1      24.473  43.335  51.081  1.00  0.00    -0.220 NA
HETATM   17  C   UNL     1      23.636  44.133  50.409  1.00  0.00     0.104 A 
HETATM   18  C   UNL     1      24.068  45.069  49.497  1.00  0.00     0.063 A 
HETATM   19  C   UNL     1      25.428  45.156  49.316  1.00  0.00     0.122 A 
HETATM   20  N   UNL     1      26.314  44.384  49.968  1.00  0.00    -0.244 NA
BRANCH  17  21
HETATM   21  N   UNL     1      22.277  43.947  50.641  1.00  0.00    -0.287 NA
HETATM   22  H   UNL     1      22.083  44.243  51.595  1.00  0.00     0.125 HD
HETATM   23  H   UNL     1      21.703  44.445  49.971  1.00  0.00     0.125 HD
ENDBRANCH  17  21
ENDBRANCH  14  15
ENDBRANCH  12  14
ENDBRANCH   3  12
BRANCH   9  24
HETATM   24  C   UNL     1      26.379  47.249  54.605  1.00  0.00     0.454 C 
HETATM   25  F   UNL     1      26.653  47.790  53.386  1.00  0.00    -0.163 F 
HETATM   26  F   UNL     1      25.296  46.441  54.440  1.00  0.00    -0.163 F 
HETATM   27  F   UNL     1      25.960  48.283  55.386  1.00  0.00    -0.163 F 
ENDBRANCH   9  24
TORSDOF 5
ENDMDL
MODEL 8
REMARK VINA RESULT:      -7.9      2.850      4.024
REMARK  5 active torsions:
REMARK  status: ('A' for Active; 'I' for Inactive)
REMARK    1  A    between atoms: C_3  and  N_4 
REMARK    2  A    between atoms: N_4  and  C_5 
REMARK    3  A    between atoms: C_5  and  C_6 
REMARK    4  A    between atoms: C_8  and  N_9 
REMARK    5  A    between atoms: C_18  and  C_19 
ROOT
HETATM    1  C   UNL     1      30.306  43.201  55.091  1.00  0.00     0.053 C 
HETATM    2  C   UNL     1      29.204  44.054  54.526  1.00  0.00    -0.005 A 
HETATM    3  C   UNL     1      28.581  43.581  53.219  1.00  0.00     0.151 A 
HETATM    4  N   UNL     1      27.579  44.196  52.645  1.00  0.00    -0.146 NA
HETATM    5  N   UNL     1      27.149  45.303  53.290  1.00  0.00    -0.187 N 
HETATM    6  C   UNL     1      27.639  45.834  54.459  1.00  0.00     0.181 A 
HETATM    7  C   UNL     1      28.717  45.174  55.112  1.00  0.00    -0.003 A 
HETATM    8  C   UNL     1      29.295  45.711  56.401  1.00  0.00     0.053 C 
HETATM    9  C   UNL     1      26.140  46.141  52.904  1.00  0.00     0.258 A 
HETATM   10  N   UNL     1      26.017  47.119  53.785  1.00  0.00    -0.123 NA
HETATM   11  N   UNL     1      26.962  46.923  54.764  1.00  0.00    -0.128 NA
ENDROOT
BRANCH   3  12
HETATM   12  N   UNL     1      29.067  42.459  52.594  1.00  0.00    -0.366 N 
HETATM   13  H   UNL     1      29.630  42.559  51.752  1.00  0.00     0.161 HD
BRANCH  12  14
HETATM   14  C   UNL     1      28.382  41.168  52.633  1.00  0.00     0.201 C 
BRANCH  14  15
HETATM   15  C   UNL     1      28.597  40.391  51.344  1.00  0.00     0.144 A 
HETATM   16  N   UNL     1      29.219  39.196  51.426  1.00  0.00    -0.220 NA
HETATM   17  C   UNL     1      29.376  38.515  50.286  1.00  0.00     0.104 A 
HETATM   18  C   UNL     1      28.937  38.985  49.069  1.00  0.00     0.063 A 
HETATM   19  C   UNL     1      28.306  40.206  49.083  1.00  0.00     0.122 A 
HETATM   20  N   UNL     1      28.116  40.930  50.199  1.00  0.00    -0.244 NA
BRANCH  17  21
HETATM   21  N   UNL     1      30.054  37.303  50.372  1.00  0.00    -0.287 NA
HETATM   22  H   UNL     1      30.608  37.320  51.226  1.00  0.00     0.125 HD
HETATM   23  H   UNL     1      29.425  36.510  50.350  1.00  0.00     0.125 HD
ENDBRANCH  17  21
ENDBRANCH  14  15
ENDBRANCH  12  14
ENDBRANCH   3  12
BRANCH   9  24
HETATM   24  C   UNL     1      25.375  45.895  51.675  1.00  0.00     0.454 C 
HETATM   25  F   UNL     1      24.559  44.810  51.772  1.00  0.00    -0.163 F 
HETATM   26  F   UNL     1      24.585  46.949  51.333  1.00  0.00    -0.163 F 
HETATM   27  F   UNL     1      26.178  45.662  50.601  1.00  0.00    -0.163 F 
ENDBRANCH   9  24
TORSDOF 5
ENDMDL
MODEL 9
REMARK VINA RESULT:      -7.9      3.286      6.913
REMARK  5 active torsions:
REMARK  status: ('A' for Active; 'I' for Inactive)
REMARK    1  A    between atoms: C_3  and  N_4 
REMARK    2  A    between atoms: N_4  and  C_5 
REMARK    3  A    between atoms: C_5  and  C_6 
REMARK    4  A    between atoms: C_8  and  N_9 
REMARK    5  A    between atoms: C_18  and  C_19 
ROOT
HETATM    1  C   UNL     1      28.698  41.453  53.039  1.00  0.00     0.053 C 
HETATM    2  C   UNL     1      27.751  42.490  52.500  1.00  0.00    -0.005 A 
HETATM    3  C   UNL     1      27.897  43.899  53.059  1.00  0.00     0.151 A 
HETATM    4  N   UNL     1      27.177  44.908  52.641  1.00  0.00    -0.146 NA
HETATM    5  N   UNL     1      26.273  44.602  51.685  1.00  0.00    -0.187 N 
HETATM    6  C   UNL     1      26.040  43.372  51.117  1.00  0.00     0.181 A 
HETATM    7  C   UNL     1      26.820  42.262  51.543  1.00  0.00    -0.003 A 
HETATM    8  C   UNL     1      26.610  40.887  50.952  1.00  0.00     0.053 C 
HETATM    9  C   UNL     1      25.384  45.453  51.089  1.00  0.00     0.258 A 
HETATM   10  N   UNL     1      24.657  44.786  50.208  1.00  0.00    -0.123 NA
HETATM   11  N   UNL     1      25.072  43.476  50.228  1.00  0.00    -0.128 NA
ENDROOT
BRANCH   3  12
HETATM   12  N   UNL     1      28.820  44.154  54.044  1.00  0.00    -0.366 N 
HETATM   13  H   UNL     1      29.218  43.380  54.569  1.00  0.00     0.161 HD
BRANCH  12  14
HETATM   14  C   UNL     1      28.832  45.394  54.818  1.00  0.00     0.201 C 
BRANCH  14  15
HETATM   15  C   UNL     1      29.629  45.232  56.104  1.00  0.00     0.144 A 
HETATM   16  N   UNL     1      30.536  44.235  56.161  1.00  0.00    -0.220 NA
HETATM   17  C   UNL     1      31.245  44.125  57.290  1.00  0.00     0.104 A 
HETATM   18  C   UNL     1      31.078  44.971  58.362  1.00  0.00     0.063 A 
HETATM   19  C   UNL     1      30.139  45.963  58.211  1.00  0.00     0.122 A 
HETATM   20  N   UNL     1      29.403  46.124  57.097  1.00  0.00    -0.244 NA
BRANCH  17  21
HETATM   21  N   UNL     1      32.149  43.070  57.356  1.00  0.00    -0.287 NA
HETATM   22  H   UNL     1      32.729  43.107  56.521  1.00  0.00     0.125 HD
HETATM   23  H   UNL     1      32.709  43.098  58.201  1.00  0.00     0.125 HD
ENDBRANCH  17  21
ENDBRANCH  14  15
ENDBRANCH  12  14
ENDBRANCH   3  12
BRANCH   9  24
HETATM   24  C   UNL     1      25.331  46.874  51.453  1.00  0.00     0.454 C 
HETATM   25  F   UNL     1      25.112  47.069  52.782  1.00  0.00    -0.163 F 
HETATM   26  F   UNL     1      26.481  47.534  51.145  1.00  0.00    -0.163 F 
HETATM   27  F   UNL     1      24.332  47.538  50.809  1.00  0.00    -0.163 F 
ENDBRANCH   9  24
TORSDOF 5
ENDMDL
MODEL 10
REMARK VINA RESULT:      -7.7      2.930      5.623
REMARK  5 active torsions:
REMARK  status: ('A' for Active; 'I' for Inactive)
REMARK    1  A    between atoms: C_3  and  N_4 
REMARK    2  A    between atoms: N_4  and  C_5 
REMARK    3  A    between atoms: C_5  and  C_6 
REMARK    4  A    between atoms: C_8  and  N_9 
REMARK    5  A    between atoms: C_18  and  C_19 
ROOT
HETATM    1  C   UNL     1      26.179  42.877  49.302  1.00  0.00     0.053 C 
HETATM    2  C   UNL     1      26.911  43.092  50.598  1.00  0.00    -0.005 A 
HETATM    3  C   UNL     1      26.626  44.396  51.332  1.00  0.00     0.151 A 
HETATM    4  N   UNL     1      27.151  44.687  52.494  1.00  0.00    -0.146 NA
HETATM    5  N   UNL     1      27.988  43.749  52.989  1.00  0.00    -0.187 N 
HETATM    6  C   UNL     1      28.333  42.548  52.416  1.00  0.00     0.181 A 
HETATM    7  C   UNL     1      27.763  42.201  51.159  1.00  0.00    -0.003 A 
HETATM    8  C   UNL     1      28.103  40.893  50.483  1.00  0.00     0.053 C 
HETATM    9  C   UNL     1      28.684  43.804  54.164  1.00  0.00     0.258 A 
HETATM   10  N   UNL     1      29.404  42.704  54.303  1.00  0.00    -0.123 NA
HETATM   11  N   UNL     1      29.181  41.915  53.200  1.00  0.00    -0.128 NA
ENDROOT
BRANCH   3  12
HETATM   12  N   UNL     1      25.780  45.324  50.776  1.00  0.00    -0.366 N 
HETATM   13  H   UNL     1      25.648  45.341  49.768  1.00  0.00     0.161 HD
BRANCH  12  14
HETATM   14  C   UNL     1      25.543  46.638  51.372  1.00  0.00     0.201 C 
BRANCH  14  15
HETATM   15  C   UNL     1      25.657  47.743  50.333  1.00  0.00     0.144 A 
HETATM   16  N   UNL     1      26.892  48.184  50.016  1.00  0.00    -0.220 NA
HETATM   17  C   UNL     1      26.974  49.137  49.082  1.00  0.00     0.104 A 
HETATM   18  C   UNL     1      25.868  49.667  48.456  1.00  0.00     0.063 A 
HETATM   19  C   UNL     1      24.652  49.150  48.834  1.00  0.00     0.122 A 
HETATM   20  N   UNL     1      24.512  48.188  49.763  1.00  0.00    -0.244 NA
BRANCH  17  21
HETATM   21  N   UNL     1      28.247  49.616  48.790  1.00  0.00    -0.287 NA
HETATM   22  H   UNL     1      28.177  50.190  47.953  1.00  0.00     0.125 HD
HETATM   23  H   UNL     1      28.649  50.132  49.564  1.00  0.00     0.125 HD
ENDBRANCH  17  21
ENDBRANCH  14  15
ENDBRANCH  12  14
ENDBRANCH   3  12
BRANCH   9  24
HETATM   24  C   UNL     1      28.573  44.962  55.060  1.00  0.00     0.454 C 
HETATM   25  F   UNL     1      28.876  46.136  54.442  1.00  0.00    -0.163 F 
HETATM   26  F   UNL     1      27.322  45.104  55.577  1.00  0.00    -0.163 F 
HETATM   27  F   UNL     1      29.413  44.876  56.128  1.00  0.00    -0.163 F 
ENDBRANCH   9  24
TORSDOF 5
ENDMDL
