MODEL 1
REMARK VINA RESULT:      -9.6      0.000      0.000
REMARK  8 active torsions:
REMARK  status: ('A' for Active; 'I' for Inactive)
REMARK    1  A    between atoms: O_2  and  C_3 
REMARK    2  A    between atoms: C_11  and  C_12 
REMARK       I    between atoms: C_12  and  N_13 
REMARK    3  A    between atoms: N_13  and  C_14 
REMARK    4  A    between atoms: C_14  and  C_15 
REMARK    5  A    between atoms: C_15  and  C_16 
REMARK    6  A    between atoms: C_16  and  C_17 
REMARK    7  A    between atoms: C_17  and  O_18 
REMARK    8  A    between atoms: O_18  and  C_19 
ROOT
HETATM    1  C   UNL     1      24.847  49.143  48.803  1.00  0.00     0.268 C 
HETATM    2  N   UNL     1      25.290  48.095  49.567  1.00  0.00    -0.345 N 
HETATM    3  O   UNL     1      25.693  49.701  48.103  1.00  0.00    -0.266 OA
HETATM    4  H   UNL     1      26.285  47.961  49.445  1.00  0.00     0.163 HD
ENDROOT
BRANCH   2   5
HETATM    5  C   UNL     1      24.624  47.207  50.487  1.00  0.00     0.217 C 
BRANCH   5   6
HETATM    6  C   UNL     1      25.277  47.206  51.860  1.00  0.00    -0.085 C 
BRANCH   6   7
HETATM    7  C   UNL     1      25.838  47.204  53.037  1.00  0.00    -0.078 C 
BRANCH   7   8
HETATM    8  C   UNL     1      26.491  47.202  54.409  1.00  0.00     0.269 C 
BRANCH   8   9
HETATM    9  O   UNL     1      26.676  45.857  54.827  1.00  0.00    -0.337 OA
BRANCH   9  10
HETATM   10  C   UNL     1      27.935  45.480  55.249  1.00  0.00     0.099 A 
HETATM   11  C   UNL     1      28.562  44.487  54.471  1.00  0.00     0.100 A 
HETATM   12  C   UNL     1      29.849  44.053  54.866  1.00  0.00    -0.005 A 
HETATM   13  N   UNL     1      27.962  43.958  53.378  1.00  0.00    -0.257 NA
HETATM   14  C   UNL     1      30.489  43.067  54.103  1.00  0.00     0.015 A 
HETATM   15  C   UNL     1      30.473  44.596  55.999  1.00  0.00     0.014 A 
HETATM   16  C   UNL     1      29.864  42.539  52.982  1.00  0.00     0.020 A 
HETATM   17  C   UNL     1      28.610  43.015  52.663  1.00  0.00     0.117 A 
HETATM   18  C   UNL     1      29.834  45.574  56.752  1.00  0.00     0.004 A 
HETATM   19  C   UNL     1      28.569  46.017  56.380  1.00  0.00     0.039 A 
ENDBRANCH   9  10
ENDBRANCH   8   9
ENDBRANCH   7   8
ENDBRANCH   6   7
ENDBRANCH   5   6
ENDBRANCH   2   5
BRANCH   1  20
HETATM   20  C   UNL     1      23.476  49.598  48.860  1.00  0.00     0.102 A 
HETATM   21  N   UNL     1      22.410  49.013  49.504  1.00  0.00    -0.351 N 
HETATM   22  C   UNL     1      21.289  49.810  49.445  1.00  0.00     0.045 A 
HETATM   23  H   UNL     1      22.445  48.144  50.011  1.00  0.00     0.166 HD
HETATM   24  C   UNL     1      20.033  49.654  50.052  1.00  0.00     0.067 A 
HETATM   25  C   UNL     1      21.606  50.890  48.628  1.00  0.00    -0.007 A 
HETATM   26  C   UNL     1      19.075  50.649  49.822  1.00  0.00     0.070 A 
HETATM   27  C   UNL     1      19.366  51.728  48.986  1.00  0.00     0.038 A 
HETATM   28  C   UNL     1      20.623  51.864  48.382  1.00  0.00     0.016 A 
HETATM   29  C   UNL     1      22.960  50.727  48.238  1.00  0.00     0.049 A 
BRANCH  26  30
HETATM   30  O   UNL     1      17.813  50.669  50.355  1.00  0.00    -0.356 OA
HETATM   31  C   UNL     1      16.905  51.613  49.804  1.00  0.00     0.210 C 
ENDBRANCH  26  30
ENDBRANCH   1  20
TORSDOF 8
ENDMDL
MODEL 2
REMARK VINA RESULT:      -9.4      1.477      2.494
REMARK  8 active torsions:
REMARK  status: ('A' for Active; 'I' for Inactive)
REMARK    1  A    between atoms: O_2  and  C_3 
REMARK    2  A    between atoms: C_11  and  C_12 
REMARK       I    between atoms: C_12  and  N_13 
REMARK    3  A    between atoms: N_13  and  C_14 
REMARK    4  A    between atoms: C_14  and  C_15 
REMARK    5  A    between atoms: C_15  and  C_16 
REMARK    6  A    between atoms: C_16  and  C_17 
REMARK    7  A    between atoms: C_17  and  O_18 
REMARK    8  A    between atoms: O_18  and  C_19 
ROOT
HETATM    1  C   UNL     1      24.366  49.596  48.098  1.00  0.00     0.268 C 
HETATM    2  N   UNL     1      24.850  48.669  48.983  1.00  0.00    -0.345 N 
HETATM    3  O   UNL     1      25.199  50.144  47.375  1.00  0.00    -0.266 OA
HETATM    4  H   UNL     1      25.856  48.600  48.912  1.00  0.00     0.163 HD
ENDROOT
BRANCH   2   5
HETATM    5  C   UNL     1      24.210  47.831  49.967  1.00  0.00     0.217 C 
BRANCH   5   6
HETATM    6  C   UNL     1      25.131  46.732  50.473  1.00  0.00    -0.085 C 
BRANCH   6   7
HETATM    7  C   UNL     1      25.920  45.790  50.907  1.00  0.00    -0.078 C 
BRANCH   7   8
HETATM    8  C   UNL     1      26.840  44.691  51.414  1.00  0.00     0.269 C 
BRANCH   8   9
HETATM    9  O   UNL     1      27.161  44.952  52.772  1.00  0.00    -0.337 OA
BRANCH   9  10
HETATM   10  C   UNL     1      28.265  44.322  53.307  1.00  0.00     0.099 A 
HETATM   11  C   UNL     1      28.715  44.831  54.541  1.00  0.00     0.100 A 
HETATM   12  C   UNL     1      29.852  44.231  55.129  1.00  0.00    -0.005 A 
HETATM   13  N   UNL     1      28.085  45.862  55.155  1.00  0.00    -0.257 NA
HETATM   14  C   UNL     1      30.313  44.724  56.358  1.00  0.00     0.015 A 
HETATM   15  C   UNL     1      30.509  43.165  54.497  1.00  0.00     0.014 A 
HETATM   16  C   UNL     1      29.653  45.776  56.977  1.00  0.00     0.020 A 
HETATM   17  C   UNL     1      28.551  46.307  56.339  1.00  0.00     0.117 A 
HETATM   18  C   UNL     1      30.048  42.679  53.279  1.00  0.00     0.004 A 
HETATM   19  C   UNL     1      28.929  43.254  52.684  1.00  0.00     0.039 A 
ENDBRANCH   9  10
ENDBRANCH   8   9
ENDBRANCH   7   8
ENDBRANCH   6   7
ENDBRANCH   5   6
ENDBRANCH   2   5
BRANCH   1  20
HETATM   20  C   UNL     1      22.964  49.948  48.058  1.00  0.00     0.102 A 
HETATM   21  N   UNL     1      21.905  49.180  47.632  1.00  0.00    -0.351 N 
HETATM   22  C   UNL     1      20.703  49.808  47.869  1.00  0.00     0.045 A 
HETATM   23  H   UNL     1      21.978  48.251  47.252  1.00  0.00     0.166 HD
HETATM   24  C   UNL     1      19.389  49.345  47.695  1.00  0.00     0.067 A 
HETATM   25  C   UNL     1      21.000  51.078  48.351  1.00  0.00    -0.007 A 
HETATM   26  C   UNL     1      18.346  50.213  48.042  1.00  0.00     0.070 A 
HETATM   27  C   UNL     1      18.624  51.501  48.504  1.00  0.00     0.038 A 
HETATM   28  C   UNL     1      19.941  51.949  48.663  1.00  0.00     0.016 A 
HETATM   29  C   UNL     1      22.414  51.168  48.427  1.00  0.00     0.049 A 
BRANCH  26  30
HETATM   30  O   UNL     1      17.011  49.916  47.962  1.00  0.00    -0.356 OA
HETATM   31  C   UNL     1      16.106  50.955  48.308  1.00  0.00     0.210 C 
ENDBRANCH  26  30
ENDBRANCH   1  20
TORSDOF 8
ENDMDL
MODEL 3
REMARK VINA RESULT:      -9.2      4.495      7.881
REMARK  8 active torsions:
REMARK  status: ('A' for Active; 'I' for Inactive)
REMARK    1  A    between atoms: O_2  and  C_3 
REMARK    2  A    between atoms: C_11  and  C_12 
REMARK       I    between atoms: C_12  and  N_13 
REMARK    3  A    between atoms: N_13  and  C_14 
REMARK    4  A    between atoms: C_14  and  C_15 
REMARK    5  A    between atoms: C_15  and  C_16 
REMARK    6  A    between atoms: C_16  and  C_17 
REMARK    7  A    between atoms: C_17  and  O_18 
REMARK    8  A    between atoms: O_18  and  C_19 
ROOT
HETATM    1  C   UNL     1      24.094  44.880  49.485  1.00  0.00     0.268 C 
HETATM    2  N   UNL     1      24.497  46.153  49.789  1.00  0.00    -0.345 N 
HETATM    3  O   UNL     1      22.915  44.748  49.153  1.00  0.00    -0.266 OA
HETATM    4  H   UNL     1      23.724  46.800  49.712  1.00  0.00     0.163 HD
ENDROOT
BRANCH   2   5
HETATM    5  C   UNL     1      25.765  46.704  50.202  1.00  0.00     0.217 C 
BRANCH   5   6
HETATM    6  C   UNL     1      26.042  46.465  51.677  1.00  0.00    -0.085 C 
BRANCH   6   7
HETATM    7  C   UNL     1      26.280  46.259  52.942  1.00  0.00    -0.078 C 
BRANCH   7   8
HETATM    8  C   UNL     1      26.557  46.020  54.418  1.00  0.00     0.269 C 
BRANCH   8   9
HETATM    9  O   UNL     1      27.952  46.150  54.649  1.00  0.00    -0.337 OA
BRANCH   9  10
HETATM   10  C   UNL     1      28.731  45.016  54.548  1.00  0.00     0.099 A 
HETATM   11  C   UNL     1      29.615  44.791  55.622  1.00  0.00     0.100 A 
HETATM   12  C   UNL     1      30.448  43.650  55.564  1.00  0.00    -0.005 A 
HETATM   13  N   UNL     1      29.672  45.633  56.681  1.00  0.00    -0.257 NA
HETATM   14  C   UNL     1      31.331  43.408  56.625  1.00  0.00     0.015 A 
HETATM   15  C   UNL     1      30.393  42.776  54.468  1.00  0.00     0.014 A 
HETATM   16  C   UNL     1      31.375  44.277  57.706  1.00  0.00     0.020 A 
HETATM   17  C   UNL     1      30.530  45.367  57.687  1.00  0.00     0.117 A 
HETATM   18  C   UNL     1      29.514  43.019  53.419  1.00  0.00     0.004 A 
HETATM   19  C   UNL     1      28.684  44.135  53.457  1.00  0.00     0.039 A 
ENDBRANCH   9  10
ENDBRANCH   8   9
ENDBRANCH   7   8
ENDBRANCH   6   7
ENDBRANCH   5   6
ENDBRANCH   2   5
BRANCH   1  20
HETATM   20  C   UNL     1      24.990  43.751  49.602  1.00  0.00     0.102 A 
HETATM   21  N   UNL     1      25.662  43.090  48.600  1.00  0.00    -0.351 N 
HETATM   22  C   UNL     1      26.527  42.149  49.112  1.00  0.00     0.045 A 
HETATM   23  H   UNL     1      25.590  43.299  47.617  1.00  0.00     0.166 HD
HETATM   24  C   UNL     1      27.472  41.339  48.464  1.00  0.00     0.067 A 
HETATM   25  C   UNL     1      26.315  42.114  50.486  1.00  0.00    -0.007 A 
HETATM   26  C   UNL     1      28.235  40.474  49.257  1.00  0.00     0.070 A 
HETATM   27  C   UNL     1      28.020  40.405  50.634  1.00  0.00     0.038 A 
HETATM   28  C   UNL     1      27.066  41.216  51.264  1.00  0.00     0.016 A 
HETATM   29  C   UNL     1      25.326  43.089  50.775  1.00  0.00     0.049 A 
BRANCH  26  30
HETATM   30  O   UNL     1      29.216  39.636  48.794  1.00  0.00    -0.356 OA
HETATM   31  C   UNL     1      29.403  38.421  49.507  1.00  0.00     0.210 C 
ENDBRANCH  26  30
ENDBRANCH   1  20
TORSDOF 8
ENDMDL
MODEL 4
REMARK VINA RESULT:      -9.1      2.160     10.711
REMARK  8 active torsions:
REMARK  status: ('A' for Active; 'I' for Inactive)
REMARK    1  A    between atoms: O_2  and  C_3 
REMARK    2  A    between atoms: C_11  and  C_12 
REMARK       I    between atoms: C_12  and  N_13 
REMARK    3  A    between atoms: N_13  and  C_14 
REMARK    4  A    between atoms: C_14  and  C_15 
REMARK    5  A    between atoms: C_15  and  C_16 
REMARK    6  A    between atoms: C_16  and  C_17 
REMARK    7  A    between atoms: C_17  and  O_18 
REMARK    8  A    between atoms: O_18  and  C_19 
ROOT
HETATM    1  C   UNL     1      25.500  45.076  52.393  1.00  0.00     0.268 C 
HETATM    2  N   UNL     1      25.435  45.764  51.210  1.00  0.00    -0.345 N 
HETATM    3  O   UNL     1      24.425  44.713  52.871  1.00  0.00    -0.266 OA
HETATM    4  H   UNL     1      24.473  45.888  50.923  1.00  0.00     0.163 HD
ENDROOT
BRANCH   2   5
HETATM    5  C   UNL     1      26.447  46.335  50.355  1.00  0.00     0.217 C 
BRANCH   5   6
HETATM    6  C   UNL     1      25.980  47.621  49.693  1.00  0.00    -0.085 C 
BRANCH   6   7
HETATM    7  C   UNL     1      25.580  48.724  49.124  1.00  0.00    -0.078 C 
BRANCH   7   8
HETATM    8  C   UNL     1      25.113  50.010  48.462  1.00  0.00     0.269 C 
BRANCH   8   9
HETATM    9  O   UNL     1      24.094  49.699  47.524  1.00  0.00    -0.337 OA
BRANCH   9  10
HETATM   10  C   UNL     1      22.784  49.915  47.899  1.00  0.00     0.099 A 
HETATM   11  C   UNL     1      21.955  48.776  47.889  1.00  0.00     0.100 A 
HETATM   12  C   UNL     1      20.598  48.943  48.253  1.00  0.00    -0.005 A 
HETATM   13  N   UNL     1      22.431  47.556  47.547  1.00  0.00    -0.257 NA
HETATM   14  C   UNL     1      19.759  47.820  48.252  1.00  0.00     0.015 A 
HETATM   15  C   UNL     1      20.100  50.206  48.606  1.00  0.00     0.014 A 
HETATM   16  C   UNL     1      20.264  46.575  47.904  1.00  0.00     0.020 A 
HETATM   17  C   UNL     1      21.597  46.495  47.563  1.00  0.00     0.117 A 
HETATM   18  C   UNL     1      20.936  51.316  48.607  1.00  0.00     0.004 A 
HETATM   19  C   UNL     1      22.275  51.174  48.255  1.00  0.00     0.039 A 
ENDBRANCH   9  10
ENDBRANCH   8   9
ENDBRANCH   7   8
ENDBRANCH   6   7
ENDBRANCH   5   6
ENDBRANCH   2   5
BRANCH   1  20
HETATM   20  C   UNL     1      26.759  44.841  53.067  1.00  0.00     0.102 A 
HETATM   21  N   UNL     1      27.297  45.528  54.129  1.00  0.00    -0.351 N 
HETATM   22  C   UNL     1      28.450  44.928  54.582  1.00  0.00     0.045 A 
HETATM   23  H   UNL     1      26.882  46.332  54.571  1.00  0.00     0.166 HD
HETATM   24  C   UNL     1      29.250  45.226  55.696  1.00  0.00     0.067 A 
HETATM   25  C   UNL     1      28.735  43.887  53.704  1.00  0.00    -0.007 A 
HETATM   26  C   UNL     1      30.372  44.420  55.922  1.00  0.00     0.070 A 
HETATM   27  C   UNL     1      30.688  43.387  55.038  1.00  0.00     0.038 A 
HETATM   28  C   UNL     1      29.883  43.108  53.926  1.00  0.00     0.016 A 
HETATM   29  C   UNL     1      27.694  43.867  52.740  1.00  0.00     0.049 A 
BRANCH  26  30
HETATM   30  O   UNL     1      31.243  44.553  56.972  1.00  0.00    -0.356 OA
HETATM   31  C   UNL     1      30.696  45.027  58.195  1.00  0.00     0.210 C 
ENDBRANCH  26  30
ENDBRANCH   1  20
TORSDOF 8
ENDMDL
MODEL 5
REMARK VINA RESULT:      -8.7      1.519      2.042
REMARK  8 active torsions:
REMARK  status: ('A' for Active; 'I' for Inactive)
REMARK    1  A    between atoms: O_2  and  C_3 
REMARK    2  A    between atoms: C_11  and  C_12 
REMARK       I    between atoms: C_12  and  N_13 
REMARK    3  A    between atoms: N_13  and  C_14 
REMARK    4  A    between atoms: C_14  and  C_15 
REMARK    5  A    between atoms: C_15  and  C_16 
REMARK    6  A    between atoms: C_16  and  C_17 
REMARK    7  A    between atoms: C_17  and  O_18 
REMARK    8  A    between atoms: O_18  and  C_19 
ROOT
HETATM    1  C   UNL     1      24.583  49.274  48.806  1.00  0.00     0.268 C 
HETATM    2  N   UNL     1      24.794  47.991  49.236  1.00  0.00    -0.345 N 
HETATM    3  O   UNL     1      25.591  49.956  48.615  1.00  0.00    -0.266 OA
HETATM    4  H   UNL     1      25.782  47.813  49.355  1.00  0.00     0.163 HD
ENDROOT
BRANCH   2   5
HETATM    5  C   UNL     1      23.896  46.908  49.555  1.00  0.00     0.217 C 
BRANCH   5   6
HETATM    6  C   UNL     1      24.440  46.017  50.659  1.00  0.00    -0.085 C 
BRANCH   6   7
HETATM    7  C   UNL     1      24.907  45.252  51.606  1.00  0.00    -0.078 C 
BRANCH   7   8
HETATM    8  C   UNL     1      25.451  44.360  52.711  1.00  0.00     0.269 C 
BRANCH   8   9
HETATM    9  O   UNL     1      26.867  44.465  52.729  1.00  0.00    -0.337 OA
BRANCH   9  10
HETATM   10  C   UNL     1      27.449  45.153  53.773  1.00  0.00     0.099 A 
HETATM   11  C   UNL     1      28.587  44.545  54.339  1.00  0.00     0.100 A 
HETATM   12  C   UNL     1      29.217  45.201  55.422  1.00  0.00    -0.005 A 
HETATM   13  N   UNL     1      29.071  43.371  53.869  1.00  0.00    -0.257 NA
HETATM   14  C   UNL     1      30.352  44.612  55.996  1.00  0.00     0.015 A 
HETATM   15  C   UNL     1      28.718  46.416  55.914  1.00  0.00     0.014 A 
HETATM   16  C   UNL     1      30.839  43.411  55.499  1.00  0.00     0.020 A 
HETATM   17  C   UNL     1      30.169  42.835  54.441  1.00  0.00     0.117 A 
HETATM   18  C   UNL     1      27.593  46.997  55.340  1.00  0.00     0.004 A 
HETATM   19  C   UNL     1      26.959  46.369  54.272  1.00  0.00     0.039 A 
ENDBRANCH   9  10
ENDBRANCH   8   9
ENDBRANCH   7   8
ENDBRANCH   6   7
ENDBRANCH   5   6
ENDBRANCH   2   5
BRANCH   1  20
HETATM   20  C   UNL     1      23.250  49.811  48.639  1.00  0.00     0.102 A 
HETATM   21  N   UNL     1      22.388  49.636  47.581  1.00  0.00    -0.351 N 
HETATM   22  C   UNL     1      21.156  50.192  47.842  1.00  0.00     0.045 A 
HETATM   23  H   UNL     1      22.596  49.118  46.744  1.00  0.00     0.166 HD
HETATM   24  C   UNL     1      19.967  50.151  47.097  1.00  0.00     0.067 A 
HETATM   25  C   UNL     1      21.263  50.857  49.059  1.00  0.00    -0.007 A 
HETATM   26  C   UNL     1      18.848  50.804  47.627  1.00  0.00     0.070 A 
HETATM   27  C   UNL     1      18.942  51.497  48.835  1.00  0.00     0.038 A 
HETATM   28  C   UNL     1      20.139  51.535  49.562  1.00  0.00     0.016 A 
HETATM   29  C   UNL     1      22.586  50.645  49.528  1.00  0.00     0.049 A 
BRANCH  26  30
HETATM   30  O   UNL     1      17.607  50.841  47.048  1.00  0.00    -0.356 OA
HETATM   31  C   UNL     1      16.714  51.841  47.521  1.00  0.00     0.210 C 
ENDBRANCH  26  30
ENDBRANCH   1  20
TORSDOF 8
ENDMDL
MODEL 6
REMARK VINA RESULT:      -8.6      2.232     11.334
REMARK  8 active torsions:
REMARK  status: ('A' for Active; 'I' for Inactive)
REMARK    1  A    between atoms: O_2  and  C_3 
REMARK    2  A    between atoms: C_11  and  C_12 
REMARK       I    between atoms: C_12  and  N_13 
REMARK    3  A    between atoms: N_13  and  C_14 
REMARK    4  A    between atoms: C_14  and  C_15 
REMARK    5  A    between atoms: C_15  and  C_16 
REMARK    6  A    between atoms: C_16  and  C_17 
REMARK    7  A    between atoms: C_17  and  O_18 
REMARK    8  A    between atoms: O_18  and  C_19 
ROOT
HETATM    1  C   UNL     1      25.459  44.450  52.150  1.00  0.00     0.268 C 
HETATM    2  N   UNL     1      25.117  45.410  51.234  1.00  0.00    -0.345 N 
HETATM    3  O   UNL     1      24.714  43.472  52.217  1.00  0.00    -0.266 OA
HETATM    4  H   UNL     1      24.260  45.160  50.759  1.00  0.00     0.163 HD
ENDROOT
BRANCH   2   5
HETATM    5  C   UNL     1      25.723  46.664  50.861  1.00  0.00     0.217 C 
BRANCH   5   6
HETATM    6  C   UNL     1      24.745  47.588  50.154  1.00  0.00    -0.085 C 
BRANCH   6   7
HETATM    7  C   UNL     1      23.906  48.380  49.547  1.00  0.00    -0.078 C 
BRANCH   7   8
HETATM    8  C   UNL     1      22.927  49.304  48.841  1.00  0.00     0.269 C 
BRANCH   8   9
HETATM    9  O   UNL     1      21.605  48.944  49.215  1.00  0.00    -0.337 OA
BRANCH   9  10
HETATM   10  C   UNL     1      20.593  49.842  48.949  1.00  0.00     0.099 A 
HETATM   11  C   UNL     1      19.309  49.281  48.803  1.00  0.00     0.100 A 
HETATM   12  C   UNL     1      18.234  50.155  48.517  1.00  0.00    -0.005 A 
HETATM   13  N   UNL     1      19.098  47.950  48.933  1.00  0.00    -0.257 NA
HETATM   14  C   UNL     1      16.949  49.615  48.371  1.00  0.00     0.015 A 
HETATM   15  C   UNL     1      18.448  51.535  48.380  1.00  0.00     0.014 A 
HETATM   16  C   UNL     1      16.748  48.249  48.512  1.00  0.00     0.020 A 
HETATM   17  C   UNL     1      17.847  47.464  48.792  1.00  0.00     0.117 A 
HETATM   18  C   UNL     1      19.724  52.066  48.527  1.00  0.00     0.004 A 
HETATM   19  C   UNL     1      20.795  51.224  48.811  1.00  0.00     0.039 A 
ENDBRANCH   9  10
ENDBRANCH   8   9
ENDBRANCH   7   8
ENDBRANCH   6   7
ENDBRANCH   5   6
ENDBRANCH   2   5
BRANCH   1  20
HETATM   20  C   UNL     1      26.600  44.608  53.025  1.00  0.00     0.102 A 
HETATM   21  N   UNL     1      26.819  45.582  53.971  1.00  0.00    -0.351 N 
HETATM   22  C   UNL     1      27.958  45.325  54.701  1.00  0.00     0.045 A 
HETATM   23  H   UNL     1      26.204  46.355  54.161  1.00  0.00     0.166 HD
HETATM   24  C   UNL     1      28.488  45.988  55.819  1.00  0.00     0.067 A 
HETATM   25  C   UNL     1      28.564  44.213  54.124  1.00  0.00    -0.007 A 
HETATM   26  C   UNL     1      29.671  45.483  56.371  1.00  0.00     0.070 A 
HETATM   27  C   UNL     1      30.307  44.384  55.792  1.00  0.00     0.038 A 
HETATM   28  C   UNL     1      29.769  43.739  54.670  1.00  0.00     0.016 A 
HETATM   29  C   UNL     1      27.728  43.799  53.055  1.00  0.00     0.049 A 
BRANCH  26  30
HETATM   30  O   UNL     1      30.308  45.990  57.474  1.00  0.00    -0.356 OA
HETATM   31  C   UNL     1      31.119  45.085  58.211  1.00  0.00     0.210 C 
ENDBRANCH  26  30
ENDBRANCH   1  20
TORSDOF 8
ENDMDL
MODEL 7
REMARK VINA RESULT:      -8.5      1.705      2.620
REMARK  8 active torsions:
REMARK  status: ('A' for Active; 'I' for Inactive)
REMARK    1  A    between atoms: O_2  and  C_3 
REMARK    2  A    between atoms: C_11  and  C_12 
REMARK       I    between atoms: C_12  and  N_13 
REMARK    3  A    between atoms: N_13  and  C_14 
REMARK    4  A    between atoms: C_14  and  C_15 
REMARK    5  A    between atoms: C_15  and  C_16 
REMARK    6  A    between atoms: C_16  and  C_17 
REMARK    7  A    between atoms: C_17  and  O_18 
REMARK    8  A    between atoms: O_18  and  C_19 
ROOT
HETATM    1  C   UNL     1      23.519  46.194  49.103  1.00  0.00     0.268 C 
HETATM    2  N   UNL     1      24.767  46.373  49.637  1.00  0.00    -0.345 N 
HETATM    3  O   UNL     1      23.228  45.044  48.772  1.00  0.00    -0.266 OA
HETATM    4  H   UNL     1      25.277  45.499  49.651  1.00  0.00     0.163 HD
ENDROOT
BRANCH   2   5
HETATM    5  C   UNL     1      25.458  47.535  50.138  1.00  0.00     0.217 C 
BRANCH   5   6
HETATM    6  C   UNL     1      25.994  47.324  51.545  1.00  0.00    -0.085 C 
BRANCH   6   7
HETATM    7  C   UNL     1      26.453  47.144  52.751  1.00  0.00    -0.078 C 
BRANCH   7   8
HETATM    8  C   UNL     1      26.990  46.933  54.158  1.00  0.00     0.269 C 
BRANCH   8   9
HETATM    9  O   UNL     1      26.887  45.555  54.486  1.00  0.00    -0.337 OA
BRANCH   9  10
HETATM   10  C   UNL     1      28.041  44.799  54.463  1.00  0.00     0.099 A 
HETATM   11  C   UNL     1      28.903  44.975  55.563  1.00  0.00     0.100 A 
HETATM   12  C   UNL     1      30.107  44.233  55.585  1.00  0.00    -0.005 A 
HETATM   13  N   UNL     1      28.597  45.822  56.575  1.00  0.00    -0.257 NA
HETATM   14  C   UNL     1      30.975  44.393  56.673  1.00  0.00     0.015 A 
HETATM   15  C   UNL     1      30.428  43.356  54.538  1.00  0.00     0.014 A 
HETATM   16  C   UNL     1      30.646  45.261  57.704  1.00  0.00     0.020 A 
HETATM   17  C   UNL     1      29.454  45.947  57.610  1.00  0.00     0.117 A 
HETATM   18  C   UNL     1      29.563  43.199  53.462  1.00  0.00     0.004 A 
HETATM   19  C   UNL     1      28.372  43.918  53.422  1.00  0.00     0.039 A 
ENDBRANCH   9  10
ENDBRANCH   8   9
ENDBRANCH   7   8
ENDBRANCH   6   7
ENDBRANCH   5   6
ENDBRANCH   2   5
BRANCH   1  20
HETATM   20  C   UNL     1      22.617  47.305  48.890  1.00  0.00     0.102 A 
HETATM   21  N   UNL     1      21.271  47.373  49.163  1.00  0.00    -0.351 N 
HETATM   22  C   UNL     1      20.779  48.641  48.949  1.00  0.00     0.045 A 
HETATM   23  H   UNL     1      20.715  46.619  49.532  1.00  0.00     0.166 HD
HETATM   24  C   UNL     1      19.506  49.175  49.203  1.00  0.00     0.067 A 
HETATM   25  C   UNL     1      21.817  49.388  48.401  1.00  0.00    -0.007 A 
HETATM   26  C   UNL     1      19.296  50.524  48.895  1.00  0.00     0.070 A 
HETATM   27  C   UNL     1      20.317  51.284  48.321  1.00  0.00     0.038 A 
HETATM   28  C   UNL     1      21.580  50.733  48.067  1.00  0.00     0.016 A 
HETATM   29  C   UNL     1      22.947  48.533  48.333  1.00  0.00     0.049 A 
BRANCH  26  30
HETATM   30  O   UNL     1      18.128  51.210  49.102  1.00  0.00    -0.356 OA
HETATM   31  C   UNL     1      17.679  52.037  48.037  1.00  0.00     0.210 C 
ENDBRANCH  26  30
ENDBRANCH   1  20
TORSDOF 8
ENDMDL
MODEL 8
REMARK VINA RESULT:      -8.2     11.897     14.747
REMARK  8 active torsions:
REMARK  status: ('A' for Active; 'I' for Inactive)
REMARK    1  A    between atoms: O_2  and  C_3 
REMARK    2  A    between atoms: C_11  and  C_12 
REMARK       I    between atoms: C_12  and  N_13 
REMARK    3  A    between atoms: N_13  and  C_14 
REMARK    4  A    between atoms: C_14  and  C_15 
REMARK    5  A    between atoms: C_15  and  C_16 
REMARK    6  A    between atoms: C_16  and  C_17 
REMARK    7  A    between atoms: C_17  and  O_18 
REMARK    8  A    between atoms: O_18  and  C_19 
ROOT
HETATM    1  C   UNL     1      34.736  51.143  42.162  1.00  0.00     0.268 C 
HETATM    2  N   UNL     1      34.422  51.695  43.376  1.00  0.00    -0.345 N 
HETATM    3  O   UNL     1      35.845  51.425  41.707  1.00  0.00    -0.266 OA
HETATM    4  H   UNL     1      35.173  52.288  43.702  1.00  0.00     0.163 HD
ENDROOT
BRANCH   2   5
HETATM    5  C   UNL     1      33.256  51.601  44.219  1.00  0.00     0.217 C 
BRANCH   5   6
HETATM    6  C   UNL     1      31.982  51.978  43.482  1.00  0.00    -0.085 C 
BRANCH   6   7
HETATM    7  C   UNL     1      30.888  52.301  42.850  1.00  0.00    -0.078 C 
BRANCH   7   8
HETATM    8  C   UNL     1      29.613  52.678  42.112  1.00  0.00     0.269 C 
BRANCH   8   9
HETATM    9  O   UNL     1      28.847  51.503  41.892  1.00  0.00    -0.337 OA
BRANCH   9  10
HETATM   10  C   UNL     1      28.351  51.285  40.623  1.00  0.00     0.099 A 
HETATM   11  C   UNL     1      27.766  50.022  40.411  1.00  0.00     0.100 A 
HETATM   12  C   UNL     1      27.252  49.739  39.124  1.00  0.00    -0.005 A 
HETATM   13  N   UNL     1      27.690  49.100  41.400  1.00  0.00    -0.257 NA
HETATM   14  C   UNL     1      26.664  48.488  38.894  1.00  0.00     0.015 A 
HETATM   15  C   UNL     1      27.330  50.690  38.095  1.00  0.00     0.014 A 
HETATM   16  C   UNL     1      26.589  47.556  39.920  1.00  0.00     0.020 A 
HETATM   17  C   UNL     1      27.112  47.908  41.146  1.00  0.00     0.117 A 
HETATM   18  C   UNL     1      27.912  51.930  38.328  1.00  0.00     0.004 A 
HETATM   19  C   UNL     1      28.422  52.230  39.587  1.00  0.00     0.039 A 
ENDBRANCH   9  10
ENDBRANCH   8   9
ENDBRANCH   7   8
ENDBRANCH   6   7
ENDBRANCH   5   6
ENDBRANCH   2   5
BRANCH   1  20
HETATM   20  C   UNL     1      33.794  50.320  41.435  1.00  0.00     0.102 A 
HETATM   21  N   UNL     1      33.458  49.006  41.664  1.00  0.00    -0.351 N 
HETATM   22  C   UNL     1      32.424  48.604  40.848  1.00  0.00     0.045 A 
HETATM   23  H   UNL     1      33.863  48.419  42.374  1.00  0.00     0.166 HD
HETATM   24  C   UNL     1      31.706  47.398  40.823  1.00  0.00     0.067 A 
HETATM   25  C   UNL     1      32.166  49.656  39.976  1.00  0.00    -0.007 A 
HETATM   26  C   UNL     1      30.679  47.276  39.879  1.00  0.00     0.070 A 
HETATM   27  C   UNL     1      30.421  48.312  38.979  1.00  0.00     0.038 A 
HETATM   28  C   UNL     1      31.154  49.505  39.013  1.00  0.00     0.016 A 
HETATM   29  C   UNL     1      33.053  50.707  40.326  1.00  0.00     0.049 A 
BRANCH  26  30
HETATM   30  O   UNL     1      29.864  46.184  39.734  1.00  0.00    -0.356 OA
HETATM   31  C   UNL     1      29.638  45.731  38.406  1.00  0.00     0.210 C 
ENDBRANCH  26  30
ENDBRANCH   1  20
TORSDOF 8
ENDMDL
MODEL 9
REMARK VINA RESULT:      -8.2     11.926     13.684
REMARK  8 active torsions:
REMARK  status: ('A' for Active; 'I' for Inactive)
REMARK    1  A    between atoms: O_2  and  C_3 
REMARK    2  A    between atoms: C_11  and  C_12 
REMARK       I    between atoms: C_12  and  N_13 
REMARK    3  A    between atoms: N_13  and  C_14 
REMARK    4  A    between atoms: C_14  and  C_15 
REMARK    5  A    between atoms: C_15  and  C_16 
REMARK    6  A    between atoms: C_16  and  C_17 
REMARK    7  A    between atoms: C_17  and  O_18 
REMARK    8  A    between atoms: O_18  and  C_19 
ROOT
HETATM    1  C   UNL     1      25.595  48.393  39.458  1.00  0.00     0.268 C 
HETATM    2  N   UNL     1      26.204  47.171  39.348  1.00  0.00    -0.345 N 
HETATM    3  O   UNL     1      24.367  48.383  39.548  1.00  0.00    -0.266 OA
HETATM    4  H   UNL     1      25.515  46.430  39.334  1.00  0.00     0.163 HD
ENDROOT
BRANCH   2   5
HETATM    5  C   UNL     1      27.586  46.775  39.233  1.00  0.00     0.217 C 
BRANCH   5   6
HETATM    6  C   UNL     1      28.449  47.371  40.332  1.00  0.00    -0.085 C 
BRANCH   6   7
HETATM    7  C   UNL     1      29.189  47.883  41.276  1.00  0.00    -0.078 C 
BRANCH   7   8
HETATM    8  C   UNL     1      30.051  48.480  42.376  1.00  0.00     0.269 C 
BRANCH   8   9
HETATM    9  O   UNL     1      30.163  49.880  42.162  1.00  0.00    -0.337 OA
BRANCH   9  10
HETATM   10  C   UNL     1      31.429  50.422  42.086  1.00  0.00     0.099 A 
HETATM   11  C   UNL     1      31.892  50.698  40.784  1.00  0.00     0.100 A 
HETATM   12  C   UNL     1      33.189  51.243  40.646  1.00  0.00    -0.005 A 
HETATM   13  N   UNL     1      31.127  50.456  39.693  1.00  0.00    -0.257 NA
HETATM   14  C   UNL     1      33.666  51.527  39.359  1.00  0.00     0.015 A 
HETATM   15  C   UNL     1      33.986  51.495  41.773  1.00  0.00     0.014 A 
HETATM   16  C   UNL     1      32.868  51.278  38.251  1.00  0.00     0.020 A 
HETATM   17  C   UNL     1      31.615  50.746  38.469  1.00  0.00     0.117 A 
HETATM   18  C   UNL     1      33.509  51.213  43.048  1.00  0.00     0.004 A 
HETATM   19  C   UNL     1      32.234  50.678  43.206  1.00  0.00     0.039 A 
ENDBRANCH   9  10
ENDBRANCH   8   9
ENDBRANCH   7   8
ENDBRANCH   6   7
ENDBRANCH   5   6
ENDBRANCH   2   5
BRANCH   1  20
HETATM   20  C   UNL     1      26.352  49.625  39.415  1.00  0.00     0.102 A 
HETATM   21  N   UNL     1      26.707  50.443  40.463  1.00  0.00    -0.351 N 
HETATM   22  C   UNL     1      27.541  51.456  40.047  1.00  0.00     0.045 A 
HETATM   23  H   UNL     1      26.450  50.297  41.425  1.00  0.00     0.166 HD
HETATM   24  C   UNL     1      28.220  52.435  40.791  1.00  0.00     0.067 A 
HETATM   25  C   UNL     1      27.629  51.364  38.663  1.00  0.00    -0.007 A 
HETATM   26  C   UNL     1      29.025  53.339  40.089  1.00  0.00     0.070 A 
HETATM   27  C   UNL     1      29.106  53.278  38.697  1.00  0.00     0.038 A 
HETATM   28  C   UNL     1      28.415  52.300  37.969  1.00  0.00     0.016 A 
HETATM   29  C   UNL     1      26.851  50.242  38.276  1.00  0.00     0.049 A 
BRANCH  26  30
HETATM   30  O   UNL     1      29.774  54.336  40.657  1.00  0.00    -0.356 OA
HETATM   31  C   UNL     1      31.168  54.089  40.786  1.00  0.00     0.210 C 
ENDBRANCH  26  30
ENDBRANCH   1  20
TORSDOF 8
ENDMDL
MODEL 10
REMARK VINA RESULT:      -8.1      2.164      3.573
REMARK  8 active torsions:
REMARK  status: ('A' for Active; 'I' for Inactive)
REMARK    1  A    between atoms: O_2  and  C_3 
REMARK    2  A    between atoms: C_11  and  C_12 
REMARK       I    between atoms: C_12  and  N_13 
REMARK    3  A    between atoms: N_13  and  C_14 
REMARK    4  A    between atoms: C_14  and  C_15 
REMARK    5  A    between atoms: C_15  and  C_16 
REMARK    6  A    between atoms: C_16  and  C_17 
REMARK    7  A    between atoms: C_17  and  O_18 
REMARK    8  A    between atoms: O_18  and  C_19 
ROOT
HETATM    1  C   UNL     1      24.622  49.692  48.310  1.00  0.00     0.268 C 
HETATM    2  N   UNL     1      25.023  48.621  49.064  1.00  0.00    -0.345 N 
HETATM    3  O   UNL     1      25.505  50.275  47.680  1.00  0.00    -0.266 OA
HETATM    4  H   UNL     1      26.024  48.492  48.996  1.00  0.00     0.163 HD
ENDROOT
BRANCH   2   5
HETATM    5  C   UNL     1      24.307  47.702  49.914  1.00  0.00     0.217 C 
BRANCH   5   6
HETATM    6  C   UNL     1      24.787  46.270  49.746  1.00  0.00    -0.085 C 
BRANCH   6   7
HETATM    7  C   UNL     1      25.199  45.041  49.602  1.00  0.00    -0.078 C 
BRANCH   7   8
HETATM    8  C   UNL     1      25.678  43.608  49.435  1.00  0.00     0.269 C 
BRANCH   8   9
HETATM    9  O   UNL     1      27.081  43.566  49.651  1.00  0.00    -0.337 OA
BRANCH   9  10
HETATM   10  C   UNL     1      27.580  42.568  50.462  1.00  0.00     0.099 A 
HETATM   11  C   UNL     1      27.903  42.960  51.776  1.00  0.00     0.100 A 
HETATM   12  C   UNL     1      28.430  41.979  52.647  1.00  0.00    -0.005 A 
HETATM   13  N   UNL     1      27.717  44.232  52.202  1.00  0.00    -0.257 NA
HETATM   14  C   UNL     1      28.755  42.350  53.959  1.00  0.00     0.015 A 
HETATM   15  C   UNL     1      28.627  40.661  52.210  1.00  0.00     0.014 A 
HETATM   16  C   UNL     1      28.554  43.657  54.382  1.00  0.00     0.020 A 
HETATM   17  C   UNL     1      28.035  44.554  53.473  1.00  0.00     0.117 A 
HETATM   18  C   UNL     1      28.302  40.297  50.908  1.00  0.00     0.004 A 
HETATM   19  C   UNL     1      27.779  41.246  50.035  1.00  0.00     0.039 A 
ENDBRANCH   9  10
ENDBRANCH   8   9
ENDBRANCH   7   8
ENDBRANCH   6   7
ENDBRANCH   5   6
ENDBRANCH   2   5
BRANCH   1  20
HETATM   20  C   UNL     1      23.248  50.143  48.302  1.00  0.00     0.102 A 
HETATM   21  N   UNL     1      22.303  49.978  47.315  1.00  0.00    -0.351 N 
HETATM   22  C   UNL     1      21.068  50.428  47.724  1.00  0.00     0.045 A 
HETATM   23  H   UNL     1      22.464  49.532  46.428  1.00  0.00     0.166 HD
HETATM   24  C   UNL     1      19.819  50.352  47.086  1.00  0.00     0.067 A 
HETATM   25  C   UNL     1      21.246  51.018  48.971  1.00  0.00    -0.007 A 
HETATM   26  C   UNL     1      18.715  50.889  47.759  1.00  0.00     0.070 A 
HETATM   27  C   UNL     1      18.878  51.507  49.001  1.00  0.00     0.038 A 
HETATM   28  C   UNL     1      20.133  51.581  49.619  1.00  0.00     0.016 A 
HETATM   29  C   UNL     1      22.617  50.869  49.304  1.00  0.00     0.049 A 
BRANCH  26  30
HETATM   30  O   UNL     1      17.425  50.877  47.297  1.00  0.00    -0.356 OA
HETATM   31  C   UNL     1      16.997  52.025  46.578  1.00  0.00     0.210 C 
ENDBRANCH  26  30
ENDBRANCH   1  20
TORSDOF 8
ENDMDL
