MODEL 1
REMARK VINA RESULT:      -9.0      0.000      0.000
REMARK  5 active torsions:
REMARK  status: ('A' for Active; 'I' for Inactive)
REMARK    1  A    between atoms: C_4  and  C_5 
REMARK    2  A    between atoms: C_5  and  C_6 
REMARK    3  A    between atoms: C_6  and  C_7 
REMARK       I    between atoms: C_7  and  N_8 
REMARK    4  A    between atoms: N_8  and  C_9 
REMARK    5  A    between atoms: C_11  and  C_12 
ROOT
HETATM    1  C   UNL     1      28.197  44.593  53.486  1.00  0.00     0.035 A 
HETATM    2  C   UNL     1      28.785  44.903  54.717  1.00  0.00     0.042 A 
HETATM    3  C   UNL     1      29.874  44.164  55.213  1.00  0.00    -0.021 A 
HETATM    4  C   UNL     1      30.366  43.101  54.444  1.00  0.00     0.012 A 
HETATM    5  C   UNL     1      29.790  42.786  53.213  1.00  0.00     0.003 A 
HETATM    6  C   UNL     1      28.712  43.529  52.737  1.00  0.00     0.029 A 
ENDROOT
BRANCH   1   7
HETATM    7  N   UNL     1      27.095  45.282  52.941  1.00  0.00    -0.327 N 
HETATM    8  C   UNL     1      26.646  46.551  53.250  1.00  0.00     0.222 C 
HETATM    9  O   UNL     1      27.156  47.340  54.040  1.00  0.00    -0.273 OA
HETATM   10  H   UNL     1      26.588  44.802  52.203  1.00  0.00     0.169 HD
BRANCH   8  11
HETATM   11  C   UNL     1      25.388  46.934  52.493  1.00  0.00     0.110 C 
BRANCH  11  12
HETATM   12  C   UNL     1      25.467  46.555  51.020  1.00  0.00     0.074 C 
BRANCH  12  13
HETATM   13  C   UNL     1      25.719  47.688  50.085  1.00  0.00     0.053 A 
HETATM   14  O   UNL     1      24.645  48.401  49.635  1.00  0.00    -0.320 OA
HETATM   15  C   UNL     1      25.124  49.376  48.813  1.00  0.00     0.049 A 
HETATM   16  C   UNL     1      24.129  50.280  48.203  1.00  0.00     0.076 C 
HETATM   17  C   UNL     1      26.497  49.299  48.737  1.00  0.00     0.035 A 
HETATM   18  C   UNL     1      26.881  48.211  49.555  1.00  0.00     0.035 A 
ENDBRANCH  12  13
ENDBRANCH  11  12
ENDBRANCH   8  11
ENDBRANCH   1   7
BRANCH   3  19
HETATM   19  C   UNL     1      30.492  44.486  56.495  1.00  0.00     0.010 A 
HETATM   20  C   UNL     1      31.507  43.824  57.229  1.00  0.00     0.152 A 
HETATM   21  N   UNL     1      31.805  44.432  58.381  1.00  0.00    -0.187 NA
HETATM   22  N   UNL     1      30.983  45.494  58.390  1.00  0.00    -0.289 N 
HETATM   23  H   UNL     1      31.023  46.127  59.182  1.00  0.00     0.188 HD
HETATM   24  C   UNL     1      30.176  45.568  57.292  1.00  0.00     0.123 A 
ENDBRANCH   3  19
TORSDOF 5
ENDMDL
MODEL 2
REMARK VINA RESULT:      -8.8      2.959      8.754
REMARK  5 active torsions:
REMARK  status: ('A' for Active; 'I' for Inactive)
REMARK    1  A    between atoms: C_4  and  C_5 
REMARK    2  A    between atoms: C_5  and  C_6 
REMARK    3  A    between atoms: C_6  and  C_7 
REMARK       I    between atoms: C_7  and  N_8 
REMARK    4  A    between atoms: N_8  and  C_9 
REMARK    5  A    between atoms: C_11  and  C_12 
ROOT
HETATM    1  C   UNL     1      25.870  46.576  52.188  1.00  0.00     0.035 A 
HETATM    2  C   UNL     1      25.814  47.604  51.241  1.00  0.00     0.042 A 
HETATM    3  C   UNL     1      25.009  47.497  50.092  1.00  0.00    -0.021 A 
HETATM    4  C   UNL     1      24.255  46.329  49.912  1.00  0.00     0.012 A 
HETATM    5  C   UNL     1      24.300  45.300  50.853  1.00  0.00     0.003 A 
HETATM    6  C   UNL     1      25.103  45.424  51.985  1.00  0.00     0.029 A 
ENDROOT
BRANCH   1   7
HETATM    7  N   UNL     1      26.667  46.615  53.349  1.00  0.00    -0.327 N 
HETATM    8  C   UNL     1      26.534  47.442  54.447  1.00  0.00     0.222 C 
HETATM    9  O   UNL     1      25.659  48.282  54.635  1.00  0.00    -0.273 OA
HETATM   10  H   UNL     1      27.412  45.925  53.404  1.00  0.00     0.169 HD
BRANCH   8  11
HETATM   11  C   UNL     1      27.622  47.229  55.484  1.00  0.00     0.110 C 
BRANCH  11  12
HETATM   12  C   UNL     1      28.397  45.940  55.246  1.00  0.00     0.074 C 
BRANCH  12  13
HETATM   13  C   UNL     1      29.331  45.549  56.341  1.00  0.00     0.053 A 
HETATM   14  O   UNL     1      30.243  44.565  56.085  1.00  0.00    -0.320 OA
HETATM   15  C   UNL     1      30.979  44.395  57.219  1.00  0.00     0.049 A 
HETATM   16  C   UNL     1      32.040  43.369  57.175  1.00  0.00     0.076 C 
HETATM   17  C   UNL     1      30.550  45.263  58.198  1.00  0.00     0.035 A 
HETATM   18  C   UNL     1      29.487  46.007  57.633  1.00  0.00     0.035 A 
ENDBRANCH  12  13
ENDBRANCH  11  12
ENDBRANCH   8  11
ENDBRANCH   1   7
BRANCH   3  19
HETATM   19  C   UNL     1      24.947  48.567  49.103  1.00  0.00     0.010 A 
HETATM   20  C   UNL     1      23.853  49.092  48.372  1.00  0.00     0.152 A 
HETATM   21  N   UNL     1      24.201  50.082  47.545  1.00  0.00    -0.187 NA
HETATM   22  N   UNL     1      25.522  50.202  47.745  1.00  0.00    -0.289 N 
HETATM   23  H   UNL     1      26.028  50.907  47.219  1.00  0.00     0.188 HD
HETATM   24  C   UNL     1      26.016  49.318  48.659  1.00  0.00     0.123 A 
ENDBRANCH   3  19
TORSDOF 5
ENDMDL
MODEL 3
REMARK VINA RESULT:      -8.4      3.140      5.137
REMARK  5 active torsions:
REMARK  status: ('A' for Active; 'I' for Inactive)
REMARK    1  A    between atoms: C_4  and  C_5 
REMARK    2  A    between atoms: C_5  and  C_6 
REMARK    3  A    between atoms: C_6  and  C_7 
REMARK       I    between atoms: C_7  and  N_8 
REMARK    4  A    between atoms: N_8  and  C_9 
REMARK    5  A    between atoms: C_11  and  C_12 
ROOT
HETATM    1  C   UNL     1      26.725  46.079  53.568  1.00  0.00     0.035 A 
HETATM    2  C   UNL     1      27.716  45.612  54.438  1.00  0.00     0.042 A 
HETATM    3  C   UNL     1      28.097  46.347  55.575  1.00  0.00    -0.021 A 
HETATM    4  C   UNL     1      27.458  47.570  55.824  1.00  0.00     0.012 A 
HETATM    5  C   UNL     1      26.466  48.043  54.966  1.00  0.00     0.003 A 
HETATM    6  C   UNL     1      26.101  47.300  53.844  1.00  0.00     0.029 A 
ENDROOT
BRANCH   1   7
HETATM    7  N   UNL     1      26.310  45.399  52.406  1.00  0.00    -0.327 N 
HETATM    8  C   UNL     1      25.331  44.432  52.288  1.00  0.00     0.222 C 
HETATM    9  O   UNL     1      24.604  44.007  53.181  1.00  0.00    -0.273 OA
HETATM   10  H   UNL     1      26.760  45.680  51.539  1.00  0.00     0.169 HD
BRANCH   8  11
HETATM   11  C   UNL     1      25.205  43.886  50.877  1.00  0.00     0.110 C 
BRANCH  11  12
HETATM   12  C   UNL     1      26.555  43.488  50.293  1.00  0.00     0.074 C 
BRANCH  12  13
HETATM   13  C   UNL     1      27.415  42.663  51.188  1.00  0.00     0.053 A 
HETATM   14  O   UNL     1      28.479  43.270  51.793  1.00  0.00    -0.320 OA
HETATM   15  C   UNL     1      29.099  42.327  52.557  1.00  0.00     0.049 A 
HETATM   16  C   UNL     1      30.291  42.762  53.311  1.00  0.00     0.076 C 
HETATM   17  C   UNL     1      28.438  41.123  52.453  1.00  0.00     0.035 A 
HETATM   18  C   UNL     1      27.353  41.339  51.571  1.00  0.00     0.035 A 
ENDBRANCH  12  13
ENDBRANCH  11  12
ENDBRANCH   8  11
ENDBRANCH   1   7
BRANCH   3  19
HETATM   19  C   UNL     1      29.128  45.862  56.486  1.00  0.00     0.010 A 
HETATM   20  C   UNL     1      30.225  44.992  56.267  1.00  0.00     0.152 A 
HETATM   21  N   UNL     1      30.954  44.778  57.366  1.00  0.00    -0.187 NA
HETATM   22  N   UNL     1      30.330  45.516  58.298  1.00  0.00    -0.289 N 
HETATM   23  H   UNL     1      30.705  45.520  59.241  1.00  0.00     0.188 HD
HETATM   24  C   UNL     1      29.233  46.175  57.825  1.00  0.00     0.123 A 
ENDBRANCH   3  19
TORSDOF 5
ENDMDL
MODEL 4
REMARK VINA RESULT:      -8.3      1.773      2.246
REMARK  5 active torsions:
REMARK  status: ('A' for Active; 'I' for Inactive)
REMARK    1  A    between atoms: C_4  and  C_5 
REMARK    2  A    between atoms: C_5  and  C_6 
REMARK    3  A    between atoms: C_6  and  C_7 
REMARK       I    between atoms: C_7  and  N_8 
REMARK    4  A    between atoms: N_8  and  C_9 
REMARK    5  A    between atoms: C_11  and  C_12 
ROOT
HETATM    1  C   UNL     1      28.354  44.048  52.760  1.00  0.00     0.035 A 
HETATM    2  C   UNL     1      28.499  44.682  53.998  1.00  0.00     0.042 A 
HETATM    3  C   UNL     1      29.522  44.318  54.892  1.00  0.00    -0.021 A 
HETATM    4  C   UNL     1      30.406  43.298  54.514  1.00  0.00     0.012 A 
HETATM    5  C   UNL     1      30.275  42.662  53.280  1.00  0.00     0.003 A 
HETATM    6  C   UNL     1      29.254  43.037  52.407  1.00  0.00     0.029 A 
ENDROOT
BRANCH   1   7
HETATM    7  N   UNL     1      27.343  44.355  51.829  1.00  0.00    -0.327 N 
HETATM    8  C   UNL     1      26.355  43.523  51.338  1.00  0.00     0.222 C 
HETATM    9  O   UNL     1      26.149  42.356  51.658  1.00  0.00    -0.273 OA
HETATM   10  H   UNL     1      27.311  45.318  51.504  1.00  0.00     0.169 HD
BRANCH   8  11
HETATM   11  C   UNL     1      25.475  44.197  50.301  1.00  0.00     0.110 C 
BRANCH  11  12
HETATM   12  C   UNL     1      24.723  45.391  50.874  1.00  0.00     0.074 C 
BRANCH  12  13
HETATM   13  C   UNL     1      25.039  46.704  50.243  1.00  0.00     0.053 A 
HETATM   14  O   UNL     1      26.354  47.031  50.066  1.00  0.00    -0.320 OA
HETATM   15  C   UNL     1      26.387  48.256  49.470  1.00  0.00     0.049 A 
HETATM   16  C   UNL     1      27.721  48.818  49.180  1.00  0.00     0.076 C 
HETATM   17  C   UNL     1      25.106  48.714  49.258  1.00  0.00     0.035 A 
HETATM   18  C   UNL     1      24.237  47.715  49.756  1.00  0.00     0.035 A 
ENDBRANCH  12  13
ENDBRANCH  11  12
ENDBRANCH   8  11
ENDBRANCH   1   7
BRANCH   3  19
HETATM   19  C   UNL     1      29.677  44.979  56.183  1.00  0.00     0.010 A 
HETATM   20  C   UNL     1      30.685  44.859  57.172  1.00  0.00     0.152 A 
HETATM   21  N   UNL     1      30.471  45.637  58.237  1.00  0.00    -0.187 NA
HETATM   22  N   UNL     1      29.324  46.265  57.935  1.00  0.00    -0.289 N 
HETATM   23  H   UNL     1      28.946  46.928  58.604  1.00  0.00     0.188 HD
HETATM   24  C   UNL     1      28.807  45.903  56.725  1.00  0.00     0.123 A 
ENDBRANCH   3  19
TORSDOF 5
ENDMDL
MODEL 5
REMARK VINA RESULT:      -8.2      1.819      3.072
REMARK  5 active torsions:
REMARK  status: ('A' for Active; 'I' for Inactive)
REMARK    1  A    between atoms: C_4  and  C_5 
REMARK    2  A    between atoms: C_5  and  C_6 
REMARK    3  A    between atoms: C_6  and  C_7 
REMARK       I    between atoms: C_7  and  N_8 
REMARK    4  A    between atoms: N_8  and  C_9 
REMARK    5  A    between atoms: C_11  and  C_12 
ROOT
HETATM    1  C   UNL     1      26.483  46.452  53.096  1.00  0.00     0.035 A 
HETATM    2  C   UNL     1      27.533  45.639  53.535  1.00  0.00     0.042 A 
HETATM    3  C   UNL     1      28.119  45.821  54.801  1.00  0.00    -0.021 A 
HETATM    4  C   UNL     1      27.626  46.842  55.625  1.00  0.00     0.012 A 
HETATM    5  C   UNL     1      26.576  47.655  55.199  1.00  0.00     0.003 A 
HETATM    6  C   UNL     1      26.007  47.460  53.942  1.00  0.00     0.029 A 
ENDROOT
BRANCH   1   7
HETATM    7  N   UNL     1      25.865  46.332  51.836  1.00  0.00    -0.327 N 
HETATM    8  C   UNL     1      24.852  45.471  51.461  1.00  0.00     0.222 C 
HETATM    9  O   UNL     1      24.267  44.666  52.180  1.00  0.00    -0.273 OA
HETATM   10  H   UNL     1      26.177  46.984  51.121  1.00  0.00     0.169 HD
BRANCH   8  11
HETATM   11  C   UNL     1      24.483  45.594  49.994  1.00  0.00     0.110 C 
BRANCH  11  12
HETATM   12  C   UNL     1      23.691  46.863  49.706  1.00  0.00     0.074 C 
BRANCH  12  13
HETATM   13  C   UNL     1      24.501  48.023  49.238  1.00  0.00     0.053 A 
HETATM   14  O   UNL     1      25.850  47.992  49.449  1.00  0.00    -0.320 OA
HETATM   15  C   UNL     1      26.365  49.142  48.932  1.00  0.00     0.049 A 
HETATM   16  C   UNL     1      27.825  49.328  49.049  1.00  0.00     0.076 C 
HETATM   17  C   UNL     1      25.359  49.909  48.386  1.00  0.00     0.035 A 
HETATM   18  C   UNL     1      24.158  49.188  48.583  1.00  0.00     0.035 A 
ENDBRANCH  12  13
ENDBRANCH  11  12
ENDBRANCH   8  11
ENDBRANCH   1   7
BRANCH   3  19
HETATM   19  C   UNL     1      29.213  44.973  55.263  1.00  0.00     0.010 A 
HETATM   20  C   UNL     1      29.657  43.704  54.815  1.00  0.00     0.152 A 
HETATM   21  N   UNL     1      30.704  43.241  55.503  1.00  0.00    -0.187 NA
HETATM   22  N   UNL     1      30.942  44.214  56.396  1.00  0.00    -0.289 N 
HETATM   23  H   UNL     1      31.711  44.094  57.047  1.00  0.00     0.188 HD
HETATM   24  C   UNL     1      30.078  45.266  56.298  1.00  0.00     0.123 A 
ENDBRANCH   3  19
TORSDOF 5
ENDMDL
MODEL 6
REMARK VINA RESULT:      -8.1      2.015      3.102
REMARK  5 active torsions:
REMARK  status: ('A' for Active; 'I' for Inactive)
REMARK    1  A    between atoms: C_4  and  C_5 
REMARK    2  A    between atoms: C_5  and  C_6 
REMARK    3  A    between atoms: C_6  and  C_7 
REMARK       I    between atoms: C_7  and  N_8 
REMARK    4  A    between atoms: N_8  and  C_9 
REMARK    5  A    between atoms: C_11  and  C_12 
ROOT
HETATM    1  C   UNL     1      26.545  46.427  53.553  1.00  0.00     0.035 A 
HETATM    2  C   UNL     1      27.597  45.588  53.936  1.00  0.00     0.042 A 
HETATM    3  C   UNL     1      28.337  45.830  55.108  1.00  0.00    -0.021 A 
HETATM    4  C   UNL     1      27.996  46.938  55.895  1.00  0.00     0.012 A 
HETATM    5  C   UNL     1      26.945  47.779  55.526  1.00  0.00     0.003 A 
HETATM    6  C   UNL     1      26.223  47.522  54.361  1.00  0.00     0.029 A 
ENDROOT
BRANCH   1   7
HETATM    7  N   UNL     1      25.778  46.249  52.386  1.00  0.00    -0.327 N 
HETATM    8  C   UNL     1      24.905  45.221  52.087  1.00  0.00     0.222 C 
HETATM    9  O   UNL     1      24.602  44.278  52.813  1.00  0.00    -0.273 OA
HETATM   10  H   UNL     1      25.846  46.986  51.689  1.00  0.00     0.169 HD
BRANCH   8  11
HETATM   11  C   UNL     1      24.300  45.341  50.700  1.00  0.00     0.110 C 
BRANCH  11  12
HETATM   12  C   UNL     1      24.846  46.542  49.938  1.00  0.00     0.074 C 
BRANCH  12  13
HETATM   13  C   UNL     1      23.816  47.488  49.423  1.00  0.00     0.053 A 
HETATM   14  O   UNL     1      24.022  48.825  49.609  1.00  0.00    -0.320 OA
HETATM   15  C   UNL     1      22.963  49.477  49.051  1.00  0.00     0.049 A 
HETATM   16  C   UNL     1      22.972  50.951  49.134  1.00  0.00     0.076 C 
HETATM   17  C   UNL     1      22.083  48.570  48.504  1.00  0.00     0.035 A 
HETATM   18  C   UNL     1      22.631  47.288  48.744  1.00  0.00     0.035 A 
ENDBRANCH  12  13
ENDBRANCH  11  12
ENDBRANCH   8  11
ENDBRANCH   1   7
BRANCH   3  19
HETATM   19  C   UNL     1      29.433  44.956  55.511  1.00  0.00     0.010 A 
HETATM   20  C   UNL     1      29.865  43.710  54.993  1.00  0.00     0.152 A 
HETATM   21  N   UNL     1      30.920  43.209  55.642  1.00  0.00    -0.187 NA
HETATM   22  N   UNL     1      31.174  44.135  56.580  1.00  0.00    -0.289 N 
HETATM   23  H   UNL     1      31.951  43.979  57.214  1.00  0.00     0.188 HD
HETATM   24  C   UNL     1      30.313  45.193  56.547  1.00  0.00     0.123 A 
ENDBRANCH   3  19
TORSDOF 5
ENDMDL
MODEL 7
REMARK VINA RESULT:      -8.1      2.800      8.218
REMARK  5 active torsions:
REMARK  status: ('A' for Active; 'I' for Inactive)
REMARK    1  A    between atoms: C_4  and  C_5 
REMARK    2  A    between atoms: C_5  and  C_6 
REMARK    3  A    between atoms: C_6  and  C_7 
REMARK       I    between atoms: C_7  and  N_8 
REMARK    4  A    between atoms: N_8  and  C_9 
REMARK    5  A    between atoms: C_11  and  C_12 
ROOT
HETATM    1  C   UNL     1      25.946  45.871  52.276  1.00  0.00     0.035 A 
HETATM    2  C   UNL     1      25.385  46.755  51.348  1.00  0.00     0.042 A 
HETATM    3  C   UNL     1      24.425  46.324  50.415  1.00  0.00    -0.021 A 
HETATM    4  C   UNL     1      24.035  44.977  50.431  1.00  0.00     0.012 A 
HETATM    5  C   UNL     1      24.585  44.088  51.354  1.00  0.00     0.003 A 
HETATM    6  C   UNL     1      25.535  44.534  52.272  1.00  0.00     0.029 A 
ENDROOT
BRANCH   1   7
HETATM    7  N   UNL     1      26.922  46.236  53.224  1.00  0.00    -0.327 N 
HETATM    8  C   UNL     1      26.798  47.119  54.278  1.00  0.00     0.222 C 
HETATM    9  O   UNL     1      25.787  47.729  54.613  1.00  0.00    -0.273 OA
HETATM   10  H   UNL     1      27.819  45.764  53.146  1.00  0.00     0.169 HD
BRANCH   8  11
HETATM   11  C   UNL     1      28.090  47.301  55.054  1.00  0.00     0.110 C 
BRANCH  11  12
HETATM   12  C   UNL     1      28.302  46.197  56.082  1.00  0.00     0.074 C 
BRANCH  12  13
HETATM   13  C   UNL     1      29.239  45.114  55.667  1.00  0.00     0.053 A 
HETATM   14  O   UNL     1      28.977  44.451  54.502  1.00  0.00    -0.320 OA
HETATM   15  C   UNL     1      29.965  43.527  54.335  1.00  0.00     0.049 A 
HETATM   16  C   UNL     1      29.887  42.683  53.126  1.00  0.00     0.076 C 
HETATM   17  C   UNL     1      30.860  43.596  55.379  1.00  0.00     0.035 A 
HETATM   18  C   UNL     1      30.392  44.618  56.239  1.00  0.00     0.035 A 
ENDBRANCH  12  13
ENDBRANCH  11  12
ENDBRANCH   8  11
ENDBRANCH   1   7
BRANCH   3  19
HETATM   19  C   UNL     1      23.836  47.244  49.448  1.00  0.00     0.010 A 
HETATM   20  C   UNL     1      24.229  48.544  49.046  1.00  0.00     0.152 A 
HETATM   21  N   UNL     1      23.419  49.076  48.125  1.00  0.00    -0.187 NA
HETATM   22  N   UNL     1      22.503  48.116  47.927  1.00  0.00    -0.289 N 
HETATM   23  H   UNL     1      21.764  48.286  47.254  1.00  0.00     0.188 HD
HETATM   24  C   UNL     1      22.703  47.006  48.696  1.00  0.00     0.123 A 
ENDBRANCH   3  19
TORSDOF 5
ENDMDL
MODEL 8
REMARK VINA RESULT:      -8.1      2.034      2.749
REMARK  5 active torsions:
REMARK  status: ('A' for Active; 'I' for Inactive)
REMARK    1  A    between atoms: C_4  and  C_5 
REMARK    2  A    between atoms: C_5  and  C_6 
REMARK    3  A    between atoms: C_6  and  C_7 
REMARK       I    between atoms: C_7  and  N_8 
REMARK    4  A    between atoms: N_8  and  C_9 
REMARK    5  A    between atoms: C_11  and  C_12 
ROOT
HETATM    1  C   UNL     1      27.519  45.220  53.810  1.00  0.00     0.035 A 
HETATM    2  C   UNL     1      28.544  44.586  54.520  1.00  0.00     0.042 A 
HETATM    3  C   UNL     1      29.183  45.217  55.603  1.00  0.00    -0.021 A 
HETATM    4  C   UNL     1      28.768  46.506  55.964  1.00  0.00     0.012 A 
HETATM    5  C   UNL     1      27.743  47.146  55.267  1.00  0.00     0.003 A 
HETATM    6  C   UNL     1      27.121  46.505  54.196  1.00  0.00     0.029 A 
ENDROOT
BRANCH   1   7
HETATM    7  N   UNL     1      26.852  44.650  52.708  1.00  0.00    -0.327 N 
HETATM    8  C   UNL     1      25.556  44.179  52.647  1.00  0.00     0.222 C 
HETATM    9  O   UNL     1      24.719  44.206  53.544  1.00  0.00    -0.273 OA
HETATM   10  H   UNL     1      27.377  44.614  51.838  1.00  0.00     0.169 HD
BRANCH   8  11
HETATM   11  C   UNL     1      25.207  43.579  51.296  1.00  0.00     0.110 C 
BRANCH  11  12
HETATM   12  C   UNL     1      25.763  44.403  50.142  1.00  0.00     0.074 C 
BRANCH  12  13
HETATM   13  C   UNL     1      25.077  45.704  49.902  1.00  0.00     0.053 A 
HETATM   14  O   UNL     1      23.869  45.684  49.265  1.00  0.00    -0.320 OA
HETATM   15  C   UNL     1      23.443  46.975  49.170  1.00  0.00     0.049 A 
HETATM   16  C   UNL     1      22.142  47.199  48.508  1.00  0.00     0.076 C 
HETATM   17  C   UNL     1      24.364  47.822  49.747  1.00  0.00     0.035 A 
HETATM   18  C   UNL     1      25.418  47.003  50.218  1.00  0.00     0.035 A 
ENDBRANCH  12  13
ENDBRANCH  11  12
ENDBRANCH   8  11
ENDBRANCH   1   7
BRANCH   3  19
HETATM   19  C   UNL     1      30.251  44.558  56.346  1.00  0.00     0.010 A 
HETATM   20  C   UNL     1      30.850  44.877  57.590  1.00  0.00     0.152 A 
HETATM   21  N   UNL     1      31.816  44.023  57.942  1.00  0.00    -0.187 NA
HETATM   22  N   UNL     1      31.839  43.147  56.926  1.00  0.00    -0.289 N 
HETATM   23  H   UNL     1      32.505  42.382  56.964  1.00  0.00     0.188 HD
HETATM   24  C   UNL     1      30.930  43.424  55.947  1.00  0.00     0.123 A 
ENDBRANCH   3  19
TORSDOF 5
ENDMDL
MODEL 9
REMARK VINA RESULT:      -8.1      3.497      5.199
REMARK  5 active torsions:
REMARK  status: ('A' for Active; 'I' for Inactive)
REMARK    1  A    between atoms: C_4  and  C_5 
REMARK    2  A    between atoms: C_5  and  C_6 
REMARK    3  A    between atoms: C_6  and  C_7 
REMARK       I    between atoms: C_7  and  N_8 
REMARK    4  A    between atoms: N_8  and  C_9 
REMARK    5  A    between atoms: C_11  and  C_12 
ROOT
HETATM    1  C   UNL     1      29.036  43.460  53.418  1.00  0.00     0.035 A 
HETATM    2  C   UNL     1      28.152  44.535  53.552  1.00  0.00     0.042 A 
HETATM    3  C   UNL     1      28.256  45.439  54.625  1.00  0.00    -0.021 A 
HETATM    4  C   UNL     1      29.274  45.241  55.568  1.00  0.00     0.012 A 
HETATM    5  C   UNL     1      30.164  44.174  55.442  1.00  0.00     0.003 A 
HETATM    6  C   UNL     1      30.046  43.290  54.371  1.00  0.00     0.029 A 
ENDROOT
BRANCH   1   7
HETATM    7  N   UNL     1      28.975  42.513  52.377  1.00  0.00    -0.327 N 
HETATM    8  C   UNL     1      28.342  41.285  52.377  1.00  0.00     0.222 C 
HETATM    9  O   UNL     1      27.671  40.803  53.284  1.00  0.00    -0.273 OA
HETATM   10  H   UNL     1      29.422  42.779  51.503  1.00  0.00     0.169 HD
BRANCH   8  11
HETATM   11  C   UNL     1      28.545  40.514  51.085  1.00  0.00     0.110 C 
BRANCH  11  12
HETATM   12  C   UNL     1      27.392  40.716  50.110  1.00  0.00     0.074 C 
BRANCH  12  13
HETATM   13  C   UNL     1      26.668  42.012  50.243  1.00  0.00     0.053 A 
HETATM   14  O   UNL     1      27.313  43.151  49.854  1.00  0.00    -0.320 OA
HETATM   15  C   UNL     1      26.455  44.189  50.060  1.00  0.00     0.049 A 
HETATM   16  C   UNL     1      26.945  45.537  49.707  1.00  0.00     0.076 C 
HETATM   17  C   UNL     1      25.264  43.726  50.572  1.00  0.00     0.035 A 
HETATM   18  C   UNL     1      25.400  42.323  50.691  1.00  0.00     0.035 A 
ENDBRANCH  12  13
ENDBRANCH  11  12
ENDBRANCH   8  11
ENDBRANCH   1   7
BRANCH   3  19
HETATM   19  C   UNL     1      27.337  46.563  54.767  1.00  0.00     0.010 A 
HETATM   20  C   UNL     1      26.222  46.954  53.985  1.00  0.00     0.152 A 
HETATM   21  N   UNL     1      25.625  48.060  54.438  1.00  0.00    -0.187 NA
HETATM   22  N   UNL     1      26.353  48.383  55.518  1.00  0.00    -0.289 N 
HETATM   23  H   UNL     1      26.088  49.207  56.049  1.00  0.00     0.188 HD
HETATM   24  C   UNL     1      27.388  47.526  55.753  1.00  0.00     0.123 A 
ENDBRANCH   3  19
TORSDOF 5
ENDMDL
MODEL 10
REMARK VINA RESULT:      -8.0      3.155      9.186
REMARK  5 active torsions:
REMARK  status: ('A' for Active; 'I' for Inactive)
REMARK    1  A    between atoms: C_4  and  C_5 
REMARK    2  A    between atoms: C_5  and  C_6 
REMARK    3  A    between atoms: C_6  and  C_7 
REMARK       I    between atoms: C_7  and  N_8 
REMARK    4  A    between atoms: N_8  and  C_9 
REMARK    5  A    between atoms: C_11  and  C_12 
ROOT
HETATM    1  C   UNL     1      25.594  47.497  50.258  1.00  0.00     0.035 A 
HETATM    2  C   UNL     1      24.308  47.882  49.863  1.00  0.00     0.042 A 
HETATM    3  C   UNL     1      24.107  48.936  48.954  1.00  0.00    -0.021 A 
HETATM    4  C   UNL     1      25.231  49.601  48.444  1.00  0.00     0.012 A 
HETATM    5  C   UNL     1      26.518  49.223  48.828  1.00  0.00     0.003 A 
HETATM    6  C   UNL     1      26.697  48.175  49.729  1.00  0.00     0.029 A 
ENDROOT
BRANCH   1   7
HETATM    7  N   UNL     1      25.861  46.462  51.175  1.00  0.00    -0.327 N 
HETATM    8  C   UNL     1      25.915  46.536  52.553  1.00  0.00     0.222 C 
HETATM    9  O   UNL     1      25.697  47.525  53.246  1.00  0.00    -0.273 OA
HETATM   10  H   UNL     1      25.995  45.535  50.778  1.00  0.00     0.169 HD
BRANCH   8  11
HETATM   11  C   UNL     1      26.289  45.216  53.204  1.00  0.00     0.110 C 
BRANCH  11  12
HETATM   12  C   UNL     1      27.262  44.413  52.352  1.00  0.00     0.074 C 
BRANCH  12  13
HETATM   13  C   UNL     1      28.468  43.908  53.070  1.00  0.00     0.053 A 
HETATM   14  O   UNL     1      28.828  44.528  54.233  1.00  0.00    -0.320 OA
HETATM   15  C   UNL     1      29.938  43.891  54.700  1.00  0.00     0.049 A 
HETATM   16  C   UNL     1      30.512  44.397  55.963  1.00  0.00     0.076 C 
HETATM   17  C   UNL     1      30.290  42.866  53.850  1.00  0.00     0.035 A 
HETATM   18  C   UNL     1      29.343  42.877  52.799  1.00  0.00     0.035 A 
ENDBRANCH  12  13
ENDBRANCH  11  12
ENDBRANCH   8  11
ENDBRANCH   1   7
BRANCH   3  19
HETATM   19  C   UNL     1      22.768  49.339  48.538  1.00  0.00     0.010 A 
HETATM   20  C   UNL     1      22.329  50.440  47.761  1.00  0.00     0.152 A 
HETATM   21  N   UNL     1      21.004  50.471  47.598  1.00  0.00    -0.187 NA
HETATM   22  N   UNL     1      20.584  49.387  48.267  1.00  0.00    -0.289 N 
HETATM   23  H   UNL     1      19.589  49.188  48.288  1.00  0.00     0.188 HD
HETATM   24  C   UNL     1      21.596  48.682  48.850  1.00  0.00     0.123 A 
ENDBRANCH   3  19
TORSDOF 5
ENDMDL
