MODEL 1
REMARK VINA RESULT:     -10.4      0.000      0.000
REMARK  7 active torsions:
REMARK  status: ('A' for Active; 'I' for Inactive)
REMARK    1  A    between atoms: C_5  and  C_6 
REMARK    2  A    between atoms: C_10  and  C_11 
REMARK       I    between atoms: C_11  and  N_12 
REMARK    3  A    between atoms: N_12  and  N_13 
REMARK       I    between atoms: N_13  and  C_14 
REMARK       I    between atoms: C_14  and  N_15 
REMARK    4  A    between atoms: N_15  and  C_16 
REMARK    5  A    between atoms: C_16  and  C_17 
REMARK    6  A    between atoms: C_17  and  C_18 
REMARK    7  A    between atoms: C_21  and  O_22 
ROOT
HETATM    1  C   UNL     1      25.445  45.929  49.819  1.00  0.00     0.288 C 
HETATM    2  N   UNL     1      26.392  45.934  50.819  1.00  0.00    -0.261 N 
HETATM    3  O   UNL     1      25.198  44.923  49.156  1.00  0.00    -0.264 OA
HETATM    4  H   UNL     1      26.709  46.782  51.285  1.00  0.00     0.190 HD
ENDROOT
BRANCH   2   5
HETATM    5  N   UNL     1      27.183  44.794  51.012  1.00  0.00    -0.249 N 
HETATM    6  C   UNL     1      27.360  44.356  52.305  1.00  0.00     0.335 C 
HETATM    7  N   UNL     1      28.048  43.169  52.355  1.00  0.00    -0.337 N 
HETATM    8  O   UNL     1      26.962  44.981  53.281  1.00  0.00    -0.246 OA
HETATM    9  H   UNL     1      28.658  43.026  51.560  1.00  0.00     0.164 HD
HETATM   10  H   UNL     1      27.214  44.139  50.237  1.00  0.00     0.192 HD
BRANCH   7  11
HETATM   11  C   UNL     1      28.518  42.624  53.629  1.00  0.00     0.086 C 
HETATM   12  C   UNL     1      28.385  41.098  53.656  1.00  0.00     0.032 C 
BRANCH  11  13
HETATM   13  C   UNL     1      29.990  43.013  53.901  1.00  0.00     0.063 C 
BRANCH  13  14
HETATM   14  C   UNL     1      30.250  43.731  55.211  1.00  0.00    -0.056 A 
HETATM   15  C   UNL     1      29.596  44.926  55.547  1.00  0.00     0.010 A 
HETATM   16  C   UNL     1      29.872  45.575  56.755  1.00  0.00     0.037 A 
HETATM   17  C   UNL     1      30.786  45.015  57.641  1.00  0.00     0.065 A 
HETATM   18  C   UNL     1      31.421  43.818  57.342  1.00  0.00     0.037 A 
HETATM   19  C   UNL     1      31.152  43.175  56.133  1.00  0.00     0.010 A 
BRANCH  17  20
HETATM   20  O   UNL     1      31.088  45.616  58.825  1.00  0.00    -0.361 OA
HETATM   21  H   UNL     1      30.351  46.196  59.077  1.00  0.00     0.217 HD
ENDBRANCH  17  20
ENDBRANCH  13  14
ENDBRANCH  11  13
ENDBRANCH   7  11
ENDBRANCH   2   5
BRANCH   1  22
HETATM   22  C   UNL     1      24.765  47.176  49.606  1.00  0.00     0.121 A 
HETATM   23  N   UNL     1      25.449  48.339  49.388  1.00  0.00    -0.272 N 
HETATM   24  N   UNL     1      24.667  49.410  49.198  1.00  0.00    -0.174 NA
HETATM   25  H   UNL     1      26.457  48.456  49.361  1.00  0.00     0.189 HD
HETATM   26  C   UNL     1      23.413  48.934  49.259  1.00  0.00     0.089 A 
HETATM   27  C   UNL     1      23.434  47.536  49.538  1.00  0.00     0.071 A 
BRANCH  26  28
HETATM   28  C   UNL     1      22.248  49.800  49.048  1.00  0.00    -0.006 A 
HETATM   29  C   UNL     1      21.718  50.004  47.767  1.00  0.00     0.014 A 
HETATM   30  C   UNL     1      20.619  50.851  47.572  1.00  0.00     0.007 A 
HETATM   31  C   UNL     1      20.034  51.514  48.654  1.00  0.00    -0.062 A 
HETATM   32  C   UNL     1      18.851  52.415  48.459  1.00  0.00     0.048 C 
HETATM   33  C   UNL     1      20.550  51.304  49.937  1.00  0.00     0.007 A 
HETATM   34  C   UNL     1      21.649  50.460  50.129  1.00  0.00     0.014 A 
ENDBRANCH  26  28
ENDBRANCH   1  22
TORSDOF 7
ENDMDL
MODEL 2
REMARK VINA RESULT:     -10.3      1.281      1.637
REMARK  7 active torsions:
REMARK  status: ('A' for Active; 'I' for Inactive)
REMARK    1  A    between atoms: C_5  and  C_6 
REMARK    2  A    between atoms: C_10  and  C_11 
REMARK       I    between atoms: C_11  and  N_12 
REMARK    3  A    between atoms: N_12  and  N_13 
REMARK       I    between atoms: N_13  and  C_14 
REMARK       I    between atoms: C_14  and  N_15 
REMARK    4  A    between atoms: N_15  and  C_16 
REMARK    5  A    between atoms: C_16  and  C_17 
REMARK    6  A    between atoms: C_17  and  C_18 
REMARK    7  A    between atoms: C_21  and  O_22 
ROOT
HETATM    1  C   UNL     1      25.821  47.639  49.539  1.00  0.00     0.288 C 
HETATM    2  N   UNL     1      25.379  46.564  50.278  1.00  0.00    -0.261 N 
HETATM    3  O   UNL     1      26.992  47.752  49.181  1.00  0.00    -0.264 OA
HETATM    4  H   UNL     1      24.453  46.517  50.700  1.00  0.00     0.190 HD
ENDROOT
BRANCH   2   5
HETATM    5  N   UNL     1      26.313  45.628  50.740  1.00  0.00    -0.249 N 
HETATM    6  C   UNL     1      26.437  45.473  52.102  1.00  0.00     0.335 C 
HETATM    7  N   UNL     1      27.291  44.448  52.426  1.00  0.00    -0.337 N 
HETATM    8  O   UNL     1      25.863  46.194  52.910  1.00  0.00    -0.246 OA
HETATM    9  H   UNL     1      27.985  44.263  51.713  1.00  0.00     0.164 HD
HETATM   10  H   UNL     1      26.513  44.855  50.113  1.00  0.00     0.192 HD
BRANCH   7  11
HETATM   11  C   UNL     1      27.721  44.236  53.809  1.00  0.00     0.086 C 
HETATM   12  C   UNL     1      26.915  43.112  54.468  1.00  0.00     0.032 C 
BRANCH  11  13
HETATM   13  C   UNL     1      29.229  43.896  53.885  1.00  0.00     0.063 C 
BRANCH  13  14
HETATM   14  C   UNL     1      29.893  44.150  55.224  1.00  0.00    -0.056 A 
HETATM   15  C   UNL     1      30.806  43.245  55.785  1.00  0.00     0.010 A 
HETATM   16  C   UNL     1      31.388  43.499  57.031  1.00  0.00     0.037 A 
HETATM   17  C   UNL     1      31.074  44.672  57.708  1.00  0.00     0.065 A 
HETATM   18  C   UNL     1      30.196  45.595  57.157  1.00  0.00     0.037 A 
HETATM   19  C   UNL     1      29.610  45.338  55.917  1.00  0.00     0.010 A 
BRANCH  17  20
HETATM   20  O   UNL     1      31.613  44.957  58.927  1.00  0.00    -0.361 OA
HETATM   21  H   UNL     1      32.186  45.736  58.839  1.00  0.00     0.217 HD
ENDBRANCH  17  20
ENDBRANCH  13  14
ENDBRANCH  11  13
ENDBRANCH   7  11
ENDBRANCH   2   5
BRANCH   1  22
HETATM   22  C   UNL     1      24.820  48.617  49.212  1.00  0.00     0.121 A 
HETATM   23  N   UNL     1      25.059  49.616  48.311  1.00  0.00    -0.272 N 
HETATM   24  N   UNL     1      24.020  50.437  48.112  1.00  0.00    -0.174 NA
HETATM   25  H   UNL     1      25.922  49.783  47.802  1.00  0.00     0.189 HD
HETATM   26  C   UNL     1      23.040  49.945  48.887  1.00  0.00     0.089 A 
HETATM   27  C   UNL     1      23.513  48.812  49.613  1.00  0.00     0.071 A 
BRANCH  26  28
HETATM   28  C   UNL     1      21.702  50.545  48.912  1.00  0.00    -0.006 A 
HETATM   29  C   UNL     1      20.985  50.772  47.730  1.00  0.00     0.014 A 
HETATM   30  C   UNL     1      19.717  51.366  47.763  1.00  0.00     0.007 A 
HETATM   31  C   UNL     1      19.145  51.750  48.979  1.00  0.00    -0.062 A 
HETATM   32  C   UNL     1      17.783  52.377  49.028  1.00  0.00     0.048 C 
HETATM   33  C   UNL     1      19.850  51.514  50.164  1.00  0.00     0.007 A 
HETATM   34  C   UNL     1      21.117  50.923  50.129  1.00  0.00     0.014 A 
ENDBRANCH  26  28
ENDBRANCH   1  22
TORSDOF 7
ENDMDL
MODEL 3
REMARK VINA RESULT:      -9.9      2.589     11.359
REMARK  7 active torsions:
REMARK  status: ('A' for Active; 'I' for Inactive)
REMARK    1  A    between atoms: C_5  and  C_6 
REMARK    2  A    between atoms: C_10  and  C_11 
REMARK       I    between atoms: C_11  and  N_12 
REMARK    3  A    between atoms: N_12  and  N_13 
REMARK       I    between atoms: N_13  and  C_14 
REMARK       I    between atoms: C_14  and  N_15 
REMARK    4  A    between atoms: N_15  and  C_16 
REMARK    5  A    between atoms: C_16  and  C_17 
REMARK    6  A    between atoms: C_17  and  C_18 
REMARK    7  A    between atoms: C_21  and  O_22 
ROOT
HETATM    1  C   UNL     1      24.832  44.629  51.111  1.00  0.00     0.288 C 
HETATM    2  N   UNL     1      25.200  45.623  50.231  1.00  0.00    -0.261 N 
HETATM    3  O   UNL     1      23.693  44.165  51.137  1.00  0.00    -0.264 OA
HETATM    4  H   UNL     1      26.090  46.115  50.282  1.00  0.00     0.190 HD
ENDROOT
BRANCH   2   5
HETATM    5  N   UNL     1      24.220  46.208  49.419  1.00  0.00    -0.249 N 
HETATM    6  C   UNL     1      24.040  47.569  49.521  1.00  0.00     0.335 C 
HETATM    7  N   UNL     1      23.143  48.039  48.594  1.00  0.00    -0.337 N 
HETATM    8  O   UNL     1      24.608  48.255  50.363  1.00  0.00    -0.246 OA
HETATM    9  H   UNL     1      22.469  47.343  48.299  1.00  0.00     0.164 HD
HETATM   10  H   UNL     1      24.017  45.725  48.549  1.00  0.00     0.192 HD
BRANCH   7  11
HETATM   11  C   UNL     1      22.655  49.418  48.652  1.00  0.00     0.086 C 
HETATM   12  C   UNL     1      23.721  50.397  48.149  1.00  0.00     0.032 C 
BRANCH  11  13
HETATM   13  C   UNL     1      21.364  49.596  47.818  1.00  0.00     0.063 C 
BRANCH  13  14
HETATM   14  C   UNL     1      20.226  50.317  48.513  1.00  0.00    -0.056 A 
HETATM   15  C   UNL     1      19.347  49.655  49.383  1.00  0.00     0.010 A 
HETATM   16  C   UNL     1      18.295  50.344  49.994  1.00  0.00     0.037 A 
HETATM   17  C   UNL     1      18.135  51.704  49.754  1.00  0.00     0.065 A 
HETATM   18  C   UNL     1      19.011  52.385  48.920  1.00  0.00     0.037 A 
HETATM   19  C   UNL     1      20.056  51.695  48.305  1.00  0.00     0.010 A 
BRANCH  17  20
HETATM   20  O   UNL     1      17.120  52.412  50.324  1.00  0.00    -0.361 OA
HETATM   21  H   UNL     1      16.941  53.195  49.777  1.00  0.00     0.217 HD
ENDBRANCH  17  20
ENDBRANCH  13  14
ENDBRANCH  11  13
ENDBRANCH   7  11
ENDBRANCH   2   5
BRANCH   1  22
HETATM   22  C   UNL     1      25.869  44.170  51.992  1.00  0.00     0.121 A 
HETATM   23  N   UNL     1      26.257  42.861  52.025  1.00  0.00    -0.272 N 
HETATM   24  N   UNL     1      27.242  42.600  52.894  1.00  0.00    -0.174 NA
HETATM   25  H   UNL     1      25.877  42.099  51.471  1.00  0.00     0.189 HD
HETATM   26  C   UNL     1      27.544  43.791  53.438  1.00  0.00     0.089 A 
HETATM   27  C   UNL     1      26.685  44.800  52.912  1.00  0.00     0.071 A 
BRANCH  26  28
HETATM   28  C   UNL     1      28.625  43.939  54.417  1.00  0.00    -0.006 A 
HETATM   29  C   UNL     1      28.728  45.085  55.218  1.00  0.00     0.014 A 
HETATM   30  C   UNL     1      29.778  45.227  56.134  1.00  0.00     0.007 A 
HETATM   31  C   UNL     1      30.747  44.228  56.264  1.00  0.00    -0.062 A 
HETATM   32  C   UNL     1      31.869  44.365  57.250  1.00  0.00     0.048 C 
HETATM   33  C   UNL     1      30.642  43.077  55.478  1.00  0.00     0.007 A 
HETATM   34  C   UNL     1      29.596  42.937  54.561  1.00  0.00     0.014 A 
ENDBRANCH  26  28
ENDBRANCH   1  22
TORSDOF 7
ENDMDL
MODEL 4
REMARK VINA RESULT:      -9.2      5.118      8.859
REMARK  7 active torsions:
REMARK  status: ('A' for Active; 'I' for Inactive)
REMARK    1  A    between atoms: C_5  and  C_6 
REMARK    2  A    between atoms: C_10  and  C_11 
REMARK       I    between atoms: C_11  and  N_12 
REMARK    3  A    between atoms: N_12  and  N_13 
REMARK       I    between atoms: N_13  and  C_14 
REMARK       I    between atoms: C_14  and  N_15 
REMARK    4  A    between atoms: N_15  and  C_16 
REMARK    5  A    between atoms: C_16  and  C_17 
REMARK    6  A    between atoms: C_17  and  C_18 
REMARK    7  A    between atoms: C_21  and  O_22 
ROOT
HETATM    1  C   UNL     1      28.097  41.247  52.553  1.00  0.00     0.288 C 
HETATM    2  N   UNL     1      27.007  42.083  52.455  1.00  0.00    -0.261 N 
HETATM    3  O   UNL     1      28.790  41.189  53.567  1.00  0.00    -0.264 OA
HETATM    4  H   UNL     1      26.504  42.249  51.586  1.00  0.00     0.190 HD
ENDROOT
BRANCH   2   5
HETATM    5  N   UNL     1      26.745  42.982  53.498  1.00  0.00    -0.249 N 
HETATM    6  C   UNL     1      27.184  44.277  53.345  1.00  0.00     0.335 C 
HETATM    7  N   UNL     1      26.764  45.086  54.371  1.00  0.00    -0.337 N 
HETATM    8  O   UNL     1      27.885  44.637  52.405  1.00  0.00    -0.246 OA
HETATM    9  H   UNL     1      26.596  44.584  55.234  1.00  0.00     0.164 HD
HETATM   10  H   UNL     1      25.928  42.778  54.065  1.00  0.00     0.192 HD
BRANCH   7  11
HETATM   11  C   UNL     1      27.278  46.450  54.513  1.00  0.00     0.086 C 
HETATM   12  C   UNL     1      26.233  47.478  54.067  1.00  0.00     0.032 C 
BRANCH  11  13
HETATM   13  C   UNL     1      27.695  46.747  55.973  1.00  0.00     0.063 C 
BRANCH  13  14
HETATM   14  C   UNL     1      28.894  45.973  56.484  1.00  0.00    -0.056 A 
HETATM   15  C   UNL     1      29.705  45.208  55.632  1.00  0.00     0.010 A 
HETATM   16  C   UNL     1      30.793  44.490  56.138  1.00  0.00     0.037 A 
HETATM   17  C   UNL     1      31.086  44.555  57.496  1.00  0.00     0.065 A 
HETATM   18  C   UNL     1      30.315  45.329  58.351  1.00  0.00     0.037 A 
HETATM   19  C   UNL     1      29.225  46.040  57.848  1.00  0.00     0.010 A 
BRANCH  17  20
HETATM   20  O   UNL     1      32.132  43.866  58.031  1.00  0.00    -0.361 OA
HETATM   21  H   UNL     1      32.005  42.919  57.854  1.00  0.00     0.217 HD
ENDBRANCH  17  20
ENDBRANCH  13  14
ENDBRANCH  11  13
ENDBRANCH   7  11
ENDBRANCH   2   5
BRANCH   1  22
HETATM   22  C   UNL     1      28.367  40.447  51.390  1.00  0.00     0.121 A 
HETATM   23  N   UNL     1      29.116  39.307  51.461  1.00  0.00    -0.272 N 
HETATM   24  N   UNL     1      29.265  38.673  50.291  1.00  0.00    -0.174 NA
HETATM   25  H   UNL     1      29.553  38.916  52.291  1.00  0.00     0.189 HD
HETATM   26  C   UNL     1      28.560  39.404  49.413  1.00  0.00     0.089 A 
HETATM   27  C   UNL     1      27.999  40.542  50.063  1.00  0.00     0.071 A 
BRANCH  26  28
HETATM   28  C   UNL     1      28.431  39.006  48.007  1.00  0.00    -0.006 A 
HETATM   29  C   UNL     1      28.814  37.729  47.575  1.00  0.00     0.014 A 
HETATM   30  C   UNL     1      28.708  37.367  46.226  1.00  0.00     0.007 A 
HETATM   31  C   UNL     1      28.222  38.277  45.282  1.00  0.00    -0.062 A 
HETATM   32  C   UNL     1      28.094  37.897  43.837  1.00  0.00     0.048 C 
HETATM   33  C   UNL     1      27.826  39.548  45.710  1.00  0.00     0.007 A 
HETATM   34  C   UNL     1      27.935  39.910  47.056  1.00  0.00     0.014 A 
ENDBRANCH  26  28
ENDBRANCH   1  22
TORSDOF 7
ENDMDL
MODEL 5
REMARK VINA RESULT:      -9.1      3.156     11.728
REMARK  7 active torsions:
REMARK  status: ('A' for Active; 'I' for Inactive)
REMARK    1  A    between atoms: C_5  and  C_6 
REMARK    2  A    between atoms: C_10  and  C_11 
REMARK       I    between atoms: C_11  and  N_12 
REMARK    3  A    between atoms: N_12  and  N_13 
REMARK       I    between atoms: N_13  and  C_14 
REMARK       I    between atoms: C_14  and  N_15 
REMARK    4  A    between atoms: N_15  and  C_16 
REMARK    5  A    between atoms: C_16  and  C_17 
REMARK    6  A    between atoms: C_17  and  C_18 
REMARK    7  A    between atoms: C_21  and  O_22 
ROOT
HETATM    1  C   UNL     1      24.158  45.169  50.163  1.00  0.00     0.288 C 
HETATM    2  N   UNL     1      24.070  46.436  49.631  1.00  0.00    -0.261 N 
HETATM    3  O   UNL     1      23.202  44.396  50.180  1.00  0.00    -0.264 OA
HETATM    4  H   UNL     1      24.802  47.137  49.728  1.00  0.00     0.190 HD
ENDROOT
BRANCH   2   5
HETATM    5  N   UNL     1      22.822  46.906  49.201  1.00  0.00    -0.249 N 
HETATM    6  C   UNL     1      22.592  48.261  49.281  1.00  0.00     0.335 C 
HETATM    7  N   UNL     1      21.388  48.611  48.722  1.00  0.00    -0.337 N 
HETATM    8  O   UNL     1      23.374  49.039  49.816  1.00  0.00    -0.246 OA
HETATM    9  H   UNL     1      20.707  47.863  48.734  1.00  0.00     0.164 HD
HETATM   10  H   UNL     1      22.356  46.346  48.495  1.00  0.00     0.192 HD
BRANCH   7  11
HETATM   11  C   UNL     1      20.854  49.966  48.873  1.00  0.00     0.086 C 
HETATM   12  C   UNL     1      20.509  50.573  47.509  1.00  0.00     0.032 C 
BRANCH  11  13
HETATM   13  C   UNL     1      19.595  49.979  49.772  1.00  0.00     0.063 C 
BRANCH  13  14
HETATM   14  C   UNL     1      18.339  49.399  49.152  1.00  0.00    -0.056 A 
HETATM   15  C   UNL     1      18.158  48.017  48.995  1.00  0.00     0.010 A 
HETATM   16  C   UNL     1      16.996  47.513  48.402  1.00  0.00     0.037 A 
HETATM   17  C   UNL     1      16.001  48.392  47.987  1.00  0.00     0.065 A 
HETATM   18  C   UNL     1      16.147  49.761  48.161  1.00  0.00     0.037 A 
HETATM   19  C   UNL     1      17.310  50.264  48.745  1.00  0.00     0.010 A 
BRANCH  17  20
HETATM   20  O   UNL     1      14.856  47.944  47.399  1.00  0.00    -0.361 OA
HETATM   21  H   UNL     1      14.278  47.574  48.087  1.00  0.00     0.217 HD
ENDBRANCH  17  20
ENDBRANCH  13  14
ENDBRANCH  11  13
ENDBRANCH   7  11
ENDBRANCH   2   5
BRANCH   1  22
HETATM   22  C   UNL     1      25.445  44.811  50.693  1.00  0.00     0.121 A 
HETATM   23  N   UNL     1      26.526  44.611  49.882  1.00  0.00    -0.272 N 
HETATM   24  N   UNL     1      27.651  44.293  50.534  1.00  0.00    -0.174 NA
HETATM   25  H   UNL     1      26.547  44.679  48.869  1.00  0.00     0.189 HD
HETATM   26  C   UNL     1      27.313  44.313  51.833  1.00  0.00     0.089 A 
HETATM   27  C   UNL     1      25.926  44.613  51.972  1.00  0.00     0.071 A 
BRANCH  26  28
HETATM   28  C   UNL     1      28.297  44.062  52.891  1.00  0.00    -0.006 A 
HETATM   29  C   UNL     1      29.331  43.132  52.715  1.00  0.00     0.014 A 
HETATM   30  C   UNL     1      30.253  42.883  53.740  1.00  0.00     0.007 A 
HETATM   31  C   UNL     1      30.155  43.555  54.962  1.00  0.00    -0.062 A 
HETATM   32  C   UNL     1      31.144  43.304  56.062  1.00  0.00     0.048 C 
HETATM   33  C   UNL     1      29.134  44.494  55.138  1.00  0.00     0.007 A 
HETATM   34  C   UNL     1      28.213  44.739  54.116  1.00  0.00     0.014 A 
ENDBRANCH  26  28
ENDBRANCH   1  22
TORSDOF 7
ENDMDL
MODEL 6
REMARK VINA RESULT:      -8.4      3.750     11.468
REMARK  7 active torsions:
REMARK  status: ('A' for Active; 'I' for Inactive)
REMARK    1  A    between atoms: C_5  and  C_6 
REMARK    2  A    between atoms: C_10  and  C_11 
REMARK       I    between atoms: C_11  and  N_12 
REMARK    3  A    between atoms: N_12  and  N_13 
REMARK       I    between atoms: N_13  and  C_14 
REMARK       I    between atoms: C_14  and  N_15 
REMARK    4  A    between atoms: N_15  and  C_16 
REMARK    5  A    between atoms: C_16  and  C_17 
REMARK    6  A    between atoms: C_17  and  C_18 
REMARK    7  A    between atoms: C_21  and  O_22 
ROOT
HETATM    1  C   UNL     1      23.219  43.544  49.838  1.00  0.00     0.288 C 
HETATM    2  N   UNL     1      22.498  44.715  49.914  1.00  0.00    -0.261 N 
HETATM    3  O   UNL     1      22.733  42.501  49.405  1.00  0.00    -0.264 OA
HETATM    4  H   UNL     1      22.832  45.549  50.392  1.00  0.00     0.190 HD
ENDROOT
BRANCH   2   5
HETATM    5  N   UNL     1      21.133  44.693  49.598  1.00  0.00    -0.249 N 
HETATM    6  C   UNL     1      20.635  45.743  48.860  1.00  0.00     0.335 C 
HETATM    7  N   UNL     1      19.321  45.549  48.513  1.00  0.00    -0.337 N 
HETATM    8  O   UNL     1      21.299  46.734  48.579  1.00  0.00    -0.246 OA
HETATM    9  H   UNL     1      18.821  44.948  49.156  1.00  0.00     0.164 HD
HETATM   10  H   UNL     1      20.705  43.774  49.540  1.00  0.00     0.192 HD
BRANCH   7  11
HETATM   11  C   UNL     1      18.538  46.623  47.900  1.00  0.00     0.086 C 
HETATM   12  C   UNL     1      17.416  46.053  47.026  1.00  0.00     0.032 C 
BRANCH  11  13
HETATM   13  C   UNL     1      17.927  47.558  48.970  1.00  0.00     0.063 C 
BRANCH  13  14
HETATM   14  C   UNL     1      18.185  49.039  48.774  1.00  0.00    -0.056 A 
HETATM   15  C   UNL     1      18.135  49.950  49.840  1.00  0.00     0.010 A 
HETATM   16  C   UNL     1      18.359  51.313  49.623  1.00  0.00     0.037 A 
HETATM   17  C   UNL     1      18.657  51.764  48.343  1.00  0.00     0.065 A 
HETATM   18  C   UNL     1      18.740  50.876  47.279  1.00  0.00     0.037 A 
HETATM   19  C   UNL     1      18.510  49.516  47.494  1.00  0.00     0.010 A 
BRANCH  17  20
HETATM   20  O   UNL     1      18.876  53.084  48.086  1.00  0.00    -0.361 OA
HETATM   21  H   UNL     1      19.196  53.175  47.173  1.00  0.00     0.217 HD
ENDBRANCH  17  20
ENDBRANCH  13  14
ENDBRANCH  11  13
ENDBRANCH   7  11
ENDBRANCH   2   5
BRANCH   1  22
HETATM   22  C   UNL     1      24.578  43.626  50.298  1.00  0.00     0.121 A 
HETATM   23  N   UNL     1      25.585  44.068  49.487  1.00  0.00    -0.272 N 
HETATM   24  N   UNL     1      26.790  44.094  50.070  1.00  0.00    -0.174 NA
HETATM   25  H   UNL     1      25.501  44.366  48.519  1.00  0.00     0.189 HD
HETATM   26  C   UNL     1      26.571  43.682  51.329  1.00  0.00     0.089 A 
HETATM   27  C   UNL     1      25.194  43.356  51.504  1.00  0.00     0.071 A 
BRANCH  26  28
HETATM   28  C   UNL     1      27.651  43.618  52.319  1.00  0.00    -0.006 A 
HETATM   29  C   UNL     1      28.727  42.734  52.164  1.00  0.00     0.014 A 
HETATM   30  C   UNL     1      29.743  42.664  53.126  1.00  0.00     0.007 A 
HETATM   31  C   UNL     1      29.698  43.474  54.265  1.00  0.00    -0.062 A 
HETATM   32  C   UNL     1      30.786  43.416  55.296  1.00  0.00     0.048 C 
HETATM   33  C   UNL     1      28.634  44.369  54.418  1.00  0.00     0.007 A 
HETATM   34  C   UNL     1      27.619  44.435  53.458  1.00  0.00     0.014 A 
ENDBRANCH  26  28
ENDBRANCH   1  22
TORSDOF 7
ENDMDL
MODEL 7
REMARK VINA RESULT:      -8.4      7.004     11.018
REMARK  7 active torsions:
REMARK  status: ('A' for Active; 'I' for Inactive)
REMARK    1  A    between atoms: C_5  and  C_6 
REMARK    2  A    between atoms: C_10  and  C_11 
REMARK       I    between atoms: C_11  and  N_12 
REMARK    3  A    between atoms: N_12  and  N_13 
REMARK       I    between atoms: N_13  and  C_14 
REMARK       I    between atoms: C_14  and  N_15 
REMARK    4  A    between atoms: N_15  and  C_16 
REMARK    5  A    between atoms: C_16  and  C_17 
REMARK    6  A    between atoms: C_17  and  C_18 
REMARK    7  A    between atoms: C_21  and  O_22 
ROOT
HETATM    1  C   UNL     1      27.474  40.769  51.264  1.00  0.00     0.288 C 
HETATM    2  N   UNL     1      28.500  39.959  50.831  1.00  0.00    -0.261 N 
HETATM    3  O   UNL     1      26.297  40.538  50.994  1.00  0.00    -0.264 OA
HETATM    4  H   UNL     1      29.484  40.202  50.925  1.00  0.00     0.190 HD
ENDROOT
BRANCH   2   5
HETATM    5  N   UNL     1      28.208  38.903  49.958  1.00  0.00    -0.249 N 
HETATM    6  C   UNL     1      28.580  39.047  48.640  1.00  0.00     0.335 C 
HETATM    7  N   UNL     1      28.352  37.905  47.914  1.00  0.00    -0.337 N 
HETATM    8  O   UNL     1      29.038  40.091  48.188  1.00  0.00    -0.246 OA
HETATM    9  H   UNL     1      27.607  37.333  48.291  1.00  0.00     0.164 HD
HETATM   10  H   UNL     1      28.151  37.981  50.379  1.00  0.00     0.192 HD
BRANCH   7  11
HETATM   11  C   UNL     1      28.489  37.900  46.457  1.00  0.00     0.086 C 
HETATM   12  C   UNL     1      28.619  36.470  45.924  1.00  0.00     0.032 C 
BRANCH  11  13
HETATM   13  C   UNL     1      27.286  38.593  45.774  1.00  0.00     0.063 C 
BRANCH  13  14
HETATM   14  C   UNL     1      27.624  39.498  44.606  1.00  0.00    -0.056 A 
HETATM   15  C   UNL     1      26.706  39.762  43.578  1.00  0.00     0.010 A 
HETATM   16  C   UNL     1      27.056  40.586  42.505  1.00  0.00     0.037 A 
HETATM   17  C   UNL     1      28.318  41.169  42.469  1.00  0.00     0.065 A 
HETATM   18  C   UNL     1      29.231  40.945  43.490  1.00  0.00     0.037 A 
HETATM   19  C   UNL     1      28.884  40.116  44.558  1.00  0.00     0.010 A 
BRANCH  17  20
HETATM   20  O   UNL     1      28.701  41.973  41.439  1.00  0.00    -0.361 OA
HETATM   21  H   UNL     1      27.906  42.333  41.012  1.00  0.00     0.217 HD
ENDBRANCH  17  20
ENDBRANCH  13  14
ENDBRANCH  11  13
ENDBRANCH   7  11
ENDBRANCH   2   5
BRANCH   1  22
HETATM   22  C   UNL     1      27.873  41.900  52.055  1.00  0.00     0.121 A 
HETATM   23  N   UNL     1      27.572  43.180  51.682  1.00  0.00    -0.272 N 
HETATM   24  N   UNL     1      28.008  44.118  52.533  1.00  0.00    -0.174 NA
HETATM   25  H   UNL     1      27.069  43.468  50.849  1.00  0.00     0.189 HD
HETATM   26  C   UNL     1      28.594  43.433  53.529  1.00  0.00     0.089 A 
HETATM   27  C   UNL     1      28.549  42.035  53.252  1.00  0.00     0.071 A 
BRANCH  26  28
HETATM   28  C   UNL     1      29.162  44.109  54.699  1.00  0.00    -0.006 A 
HETATM   29  C   UNL     1      30.338  43.646  55.306  1.00  0.00     0.014 A 
HETATM   30  C   UNL     1      30.860  44.285  56.438  1.00  0.00     0.007 A 
HETATM   31  C   UNL     1      30.213  45.396  56.987  1.00  0.00    -0.062 A 
HETATM   32  C   UNL     1      30.769  46.095  58.192  1.00  0.00     0.048 C 
HETATM   33  C   UNL     1      29.047  45.871  56.378  1.00  0.00     0.007 A 
HETATM   34  C   UNL     1      28.525  45.230  55.251  1.00  0.00     0.014 A 
ENDBRANCH  26  28
ENDBRANCH   1  22
TORSDOF 7
ENDMDL
MODEL 8
REMARK VINA RESULT:      -8.3      4.040     11.380
REMARK  7 active torsions:
REMARK  status: ('A' for Active; 'I' for Inactive)
REMARK    1  A    between atoms: C_5  and  C_6 
REMARK    2  A    between atoms: C_10  and  C_11 
REMARK       I    between atoms: C_11  and  N_12 
REMARK    3  A    between atoms: N_12  and  N_13 
REMARK       I    between atoms: N_13  and  C_14 
REMARK       I    between atoms: C_14  and  N_15 
REMARK    4  A    between atoms: N_15  and  C_16 
REMARK    5  A    between atoms: C_16  and  C_17 
REMARK    6  A    between atoms: C_17  and  C_18 
REMARK    7  A    between atoms: C_21  and  O_22 
ROOT
HETATM    1  C   UNL     1      26.653  43.568  50.037  1.00  0.00     0.288 C 
HETATM    2  N   UNL     1      25.459  44.137  49.653  1.00  0.00    -0.261 N 
HETATM    3  O   UNL     1      27.274  42.793  49.312  1.00  0.00    -0.264 OA
HETATM    4  H   UNL     1      24.863  44.668  50.284  1.00  0.00     0.190 HD
ENDROOT
BRANCH   2   5
HETATM    5  N   UNL     1      24.871  43.731  48.447  1.00  0.00    -0.249 N 
HETATM    6  C   UNL     1      23.825  44.486  47.966  1.00  0.00     0.335 C 
HETATM    7  N   UNL     1      23.415  44.062  46.726  1.00  0.00    -0.337 N 
HETATM    8  O   UNL     1      23.320  45.406  48.599  1.00  0.00    -0.246 OA
HETATM    9  H   UNL     1      23.608  43.084  46.552  1.00  0.00     0.164 HD
HETATM   10  H   UNL     1      25.472  43.219  47.810  1.00  0.00     0.192 HD
BRANCH   7  11
HETATM   11  C   UNL     1      22.194  44.592  46.116  1.00  0.00     0.086 C 
HETATM   12  C   UNL     1      22.311  44.616  44.589  1.00  0.00     0.032 C 
BRANCH  11  13
HETATM   13  C   UNL     1      20.954  43.761  46.520  1.00  0.00     0.063 C 
BRANCH  13  14
HETATM   14  C   UNL     1      19.725  44.559  46.909  1.00  0.00    -0.056 A 
HETATM   15  C   UNL     1      18.526  44.478  46.186  1.00  0.00     0.010 A 
HETATM   16  C   UNL     1      17.416  45.243  46.559  1.00  0.00     0.037 A 
HETATM   17  C   UNL     1      17.497  46.073  47.671  1.00  0.00     0.065 A 
HETATM   18  C   UNL     1      18.664  46.146  48.418  1.00  0.00     0.037 A 
HETATM   19  C   UNL     1      19.774  45.388  48.041  1.00  0.00     0.010 A 
BRANCH  17  20
HETATM   20  O   UNL     1      16.441  46.839  48.065  1.00  0.00    -0.361 OA
HETATM   21  H   UNL     1      16.773  47.560  48.626  1.00  0.00     0.217 HD
ENDBRANCH  17  20
ENDBRANCH  13  14
ENDBRANCH  11  13
ENDBRANCH   7  11
ENDBRANCH   2   5
BRANCH   1  22
HETATM   22  C   UNL     1      27.124  43.945  51.341  1.00  0.00     0.121 A 
HETATM   23  N   UNL     1      26.381  44.732  52.174  1.00  0.00    -0.272 N 
HETATM   24  N   UNL     1      26.959  44.982  53.356  1.00  0.00    -0.174 NA
HETATM   25  H   UNL     1      25.466  45.128  51.981  1.00  0.00     0.189 HD
HETATM   26  C   UNL     1      28.120  44.308  53.320  1.00  0.00     0.089 A 
HETATM   27  C   UNL     1      28.270  43.661  52.058  1.00  0.00     0.071 A 
BRANCH  26  28
HETATM   28  C   UNL     1      29.035  44.288  54.465  1.00  0.00    -0.006 A 
HETATM   29  C   UNL     1      29.082  45.350  55.378  1.00  0.00     0.014 A 
HETATM   30  C   UNL     1      29.976  45.331  56.456  1.00  0.00     0.007 A 
HETATM   31  C   UNL     1      30.844  44.251  56.638  1.00  0.00    -0.062 A 
HETATM   32  C   UNL     1      31.798  44.216  57.795  1.00  0.00     0.048 C 
HETATM   33  C   UNL     1      30.793  43.182  55.739  1.00  0.00     0.007 A 
HETATM   34  C   UNL     1      29.902  43.203  54.662  1.00  0.00     0.014 A 
ENDBRANCH  26  28
ENDBRANCH   1  22
TORSDOF 7
ENDMDL
MODEL 9
REMARK VINA RESULT:      -8.3      3.349     10.863
REMARK  7 active torsions:
REMARK  status: ('A' for Active; 'I' for Inactive)
REMARK    1  A    between atoms: C_5  and  C_6 
REMARK    2  A    between atoms: C_10  and  C_11 
REMARK       I    between atoms: C_11  and  N_12 
REMARK    3  A    between atoms: N_12  and  N_13 
REMARK       I    between atoms: N_13  and  C_14 
REMARK       I    between atoms: C_14  and  N_15 
REMARK    4  A    between atoms: N_15  and  C_16 
REMARK    5  A    between atoms: C_16  and  C_17 
REMARK    6  A    between atoms: C_17  and  C_18 
REMARK    7  A    between atoms: C_21  and  O_22 
ROOT
HETATM    1  C   UNL     1      27.279  42.479  50.272  1.00  0.00     0.288 C 
HETATM    2  N   UNL     1      26.324  43.439  50.018  1.00  0.00    -0.261 N 
HETATM    3  O   UNL     1      27.477  41.534  49.509  1.00  0.00    -0.264 OA
HETATM    4  H   UNL     1      26.049  44.148  50.695  1.00  0.00     0.190 HD
ENDROOT
BRANCH   2   5
HETATM    5  N   UNL     1      25.471  43.275  48.919  1.00  0.00    -0.249 N 
HETATM    6  C   UNL     1      24.583  44.291  48.647  1.00  0.00     0.335 C 
HETATM    7  N   UNL     1      23.890  44.069  47.483  1.00  0.00    -0.337 N 
HETATM    8  O   UNL     1      24.431  45.258  49.385  1.00  0.00    -0.246 OA
HETATM    9  H   UNL     1      23.804  43.088  47.248  1.00  0.00     0.164 HD
HETATM   10  H   UNL     1      25.817  42.680  48.173  1.00  0.00     0.192 HD
BRANCH   7  11
HETATM   11  C   UNL     1      22.760  44.919  47.106  1.00  0.00     0.086 C 
HETATM   12  C   UNL     1      22.405  44.736  45.627  1.00  0.00     0.032 C 
BRANCH  11  13
HETATM   13  C   UNL     1      21.513  44.617  47.971  1.00  0.00     0.063 C 
BRANCH  13  14
HETATM   14  C   UNL     1      20.617  45.803  48.270  1.00  0.00    -0.056 A 
HETATM   15  C   UNL     1      21.136  47.055  48.632  1.00  0.00     0.010 A 
HETATM   16  C   UNL     1      20.283  48.125  48.920  1.00  0.00     0.037 A 
HETATM   17  C   UNL     1      18.907  47.949  48.824  1.00  0.00     0.065 A 
HETATM   18  C   UNL     1      18.373  46.727  48.439  1.00  0.00     0.037 A 
HETATM   19  C   UNL     1      19.225  45.658  48.158  1.00  0.00     0.010 A 
BRANCH  17  20
HETATM   20  O   UNL     1      18.039  48.962  49.101  1.00  0.00    -0.361 OA
HETATM   21  H   UNL     1      18.210  49.280  50.003  1.00  0.00     0.217 HD
ENDBRANCH  17  20
ENDBRANCH  13  14
ENDBRANCH  11  13
ENDBRANCH   7  11
ENDBRANCH   2   5
BRANCH   1  22
HETATM   22  C   UNL     1      28.027  42.658  51.484  1.00  0.00     0.121 A 
HETATM   23  N   UNL     1      29.030  41.802  51.842  1.00  0.00    -0.272 N 
HETATM   24  N   UNL     1      29.635  42.115  52.996  1.00  0.00    -0.174 NA
HETATM   25  H   UNL     1      29.343  40.983  51.331  1.00  0.00     0.189 HD
HETATM   26  C   UNL     1      29.031  43.243  53.405  1.00  0.00     0.089 A 
HETATM   27  C   UNL     1      27.998  43.603  52.491  1.00  0.00     0.071 A 
BRANCH  26  28
HETATM   28  C   UNL     1      29.448  43.942  54.625  1.00  0.00    -0.006 A 
HETATM   29  C   UNL     1      28.769  45.081  55.077  1.00  0.00     0.014 A 
HETATM   30  C   UNL     1      29.189  45.755  56.232  1.00  0.00     0.007 A 
HETATM   31  C   UNL     1      30.300  45.305  56.952  1.00  0.00    -0.062 A 
HETATM   32  C   UNL     1      30.752  46.012  58.195  1.00  0.00     0.048 C 
HETATM   33  C   UNL     1      30.973  44.160  56.513  1.00  0.00     0.007 A 
HETATM   34  C   UNL     1      30.554  43.491  55.359  1.00  0.00     0.014 A 
ENDBRANCH  26  28
ENDBRANCH   1  22
TORSDOF 7
ENDMDL
MODEL 10
REMARK VINA RESULT:      -8.2      3.565      4.102
REMARK  7 active torsions:
REMARK  status: ('A' for Active; 'I' for Inactive)
REMARK    1  A    between atoms: C_5  and  C_6 
REMARK    2  A    between atoms: C_10  and  C_11 
REMARK       I    between atoms: C_11  and  N_12 
REMARK    3  A    between atoms: N_12  and  N_13 
REMARK       I    between atoms: N_13  and  C_14 
REMARK       I    between atoms: C_14  and  N_15 
REMARK    4  A    between atoms: N_15  and  C_16 
REMARK    5  A    between atoms: C_16  and  C_17 
REMARK    6  A    between atoms: C_17  and  C_18 
REMARK    7  A    between atoms: C_21  and  O_22 
ROOT
HETATM    1  C   UNL     1      24.901  43.877  49.558  1.00  0.00     0.288 C 
HETATM    2  N   UNL     1      25.527  44.741  50.429  1.00  0.00    -0.261 N 
HETATM    3  O   UNL     1      25.394  42.797  49.237  1.00  0.00    -0.264 OA
HETATM    4  H   UNL     1      25.208  45.692  50.601  1.00  0.00     0.190 HD
ENDROOT
BRANCH   2   5
HETATM    5  N   UNL     1      26.821  44.437  50.874  1.00  0.00    -0.249 N 
HETATM    6  C   UNL     1      26.937  43.699  52.030  1.00  0.00     0.335 C 
HETATM    7  N   UNL     1      28.242  43.364  52.295  1.00  0.00    -0.337 N 
HETATM    8  O   UNL     1      25.977  43.408  52.735  1.00  0.00    -0.246 OA
HETATM    9  H   UNL     1      28.911  44.014  51.902  1.00  0.00     0.164 HD
HETATM   10  H   UNL     1      27.537  44.387  50.156  1.00  0.00     0.192 HD
BRANCH   7  11
HETATM   11  C   UNL     1      28.617  42.753  53.571  1.00  0.00     0.086 C 
HETATM   12  C   UNL     1      28.409  41.236  53.534  1.00  0.00     0.032 C 
BRANCH  11  13
HETATM   13  C   UNL     1      30.090  43.058  53.932  1.00  0.00     0.063 C 
BRANCH  13  14
HETATM   14  C   UNL     1      30.311  43.763  55.256  1.00  0.00    -0.056 A 
HETATM   15  C   UNL     1      29.650  44.957  55.581  1.00  0.00     0.010 A 
HETATM   16  C   UNL     1      29.889  45.594  56.803  1.00  0.00     0.037 A 
HETATM   17  C   UNL     1      30.774  45.025  57.711  1.00  0.00     0.065 A 
HETATM   18  C   UNL     1      31.416  43.830  57.422  1.00  0.00     0.037 A 
HETATM   19  C   UNL     1      31.183  43.197  56.200  1.00  0.00     0.010 A 
BRANCH  17  20
HETATM   20  O   UNL     1      31.041  45.616  58.910  1.00  0.00    -0.361 OA
HETATM   21  H   UNL     1      30.320  45.408  59.527  1.00  0.00     0.217 HD
ENDBRANCH  17  20
ENDBRANCH  13  14
ENDBRANCH  11  13
ENDBRANCH   7  11
ENDBRANCH   2   5
BRANCH   1  22
HETATM   22  C   UNL     1      23.632  44.322  49.053  1.00  0.00     0.121 A 
HETATM   23  N   UNL     1      23.180  45.593  49.268  1.00  0.00    -0.272 N 
HETATM   24  N   UNL     1      21.983  45.851  48.723  1.00  0.00    -0.174 NA
HETATM   25  H   UNL     1      23.653  46.329  49.784  1.00  0.00     0.189 HD
HETATM   26  C   UNL     1      21.641  44.715  48.094  1.00  0.00     0.089 A 
HETATM   27  C   UNL     1      22.643  43.722  48.299  1.00  0.00     0.071 A 
BRANCH  26  28
HETATM   28  C   UNL     1      20.399  44.606  47.322  1.00  0.00    -0.006 A 
HETATM   29  C   UNL     1      19.241  45.295  47.706  1.00  0.00     0.014 A 
HETATM   30  C   UNL     1      18.053  45.166  46.975  1.00  0.00     0.007 A 
HETATM   31  C   UNL     1      18.001  44.341  45.847  1.00  0.00    -0.062 A 
HETATM   32  C   UNL     1      16.738  44.204  45.050  1.00  0.00     0.048 C 
HETATM   33  C   UNL     1      19.157  43.662  45.450  1.00  0.00     0.007 A 
HETATM   34  C   UNL     1      20.341  43.789  46.183  1.00  0.00     0.014 A 
ENDBRANCH  26  28
ENDBRANCH   1  22
TORSDOF 7
ENDMDL
