MODEL 1
REMARK VINA RESULT:      -9.0      0.000      0.000
REMARK  4 active torsions:
REMARK  status: ('A' for Active; 'I' for Inactive)
REMARK    1  A    between atoms: C_5  and  C_6 
REMARK    2  A    between atoms: C_6  and  N_7 
REMARK    3  A    between atoms: C_13  and  C_14 
REMARK    4  A    between atoms: C_14  and  N_15 
ROOT
HETATM    1  N   UNL     1      27.815  45.676  54.299  1.00  0.00    -0.060 N 
HETATM    2  H   UNL     1      28.190  45.922  53.379  1.00  0.00     0.280 HD
HETATM    3  C   UNL     1      27.844  44.155  54.407  1.00  0.00     0.274 C 
HETATM    4  C   UNL     1      29.175  43.533  53.870  1.00  0.00     0.092 C 
HETATM    5  C   UNL     1      29.316  42.056  54.314  1.00  0.00     0.041 C 
HETATM    6  C   UNL     1      28.362  41.094  53.604  1.00  0.00     0.009 C 
HETATM    7  C   UNL     1      28.526  41.149  52.075  1.00  0.00     0.012 C 
HETATM    8  C   UNL     1      28.314  42.593  51.598  1.00  0.00     0.009 C 
HETATM    9  C   UNL     1      29.243  43.577  52.320  1.00  0.00     0.041 C 
HETATM   10  O   UNL     1      30.344  44.279  54.300  1.00  0.00    -0.338 OA
HETATM   11  C   UNL     1      30.377  44.545  55.641  1.00  0.00     0.077 A 
HETATM   12  C   UNL     1      29.584  45.568  56.166  1.00  0.00     0.001 A 
HETATM   13  C   UNL     1      28.741  46.414  55.263  1.00  0.00     0.276 C 
HETATM   14  C   UNL     1      31.257  43.827  56.446  1.00  0.00     0.037 A 
HETATM   15  C   UNL     1      31.308  44.091  57.814  1.00  0.00     0.003 A 
HETATM   16  C   UNL     1      30.499  45.084  58.362  1.00  0.00     0.001 A 
HETATM   17  C   UNL     1      29.648  45.829  57.543  1.00  0.00     0.012 A 
ENDROOT
BRANCH   1  18
HETATM   18  C   UNL     1      26.407  46.241  54.322  1.00  0.00     0.276 C 
BRANCH  18  19
HETATM   19  C   UNL     1      25.693  46.185  53.023  1.00  0.00     0.004 A 
HETATM   20  C   UNL     1      25.044  45.059  52.464  1.00  0.00     0.149 A 
HETATM   21  N   UNL     1      24.441  45.338  51.313  1.00  0.00    -0.185 NA
HETATM   22  N   UNL     1      24.764  46.618  51.070  1.00  0.00    -0.285 N 
HETATM   23  C   UNL     1      24.338  47.251  49.843  1.00  0.00     0.179 C 
HETATM   24  C   UNL     1      25.501  47.178  52.079  1.00  0.00     0.122 A 
ENDBRANCH  18  19
ENDBRANCH   1  18
BRANCH   7  25
HETATM   25  C   UNL     1      27.568  40.130  51.419  1.00  0.00     0.238 C 
BRANCH  25  26
HETATM   26  N   UNL     1      28.246  39.216  50.421  1.00  0.00    -0.078 N 
HETATM   27  H   UNL     1      27.634  38.417  50.220  1.00  0.00     0.278 HD
HETATM   28  C   UNL     1      28.559  39.877  49.100  1.00  0.00     0.269 C 
HETATM   29  C   UNL     1      29.507  38.619  51.011  1.00  0.00     0.269 C 
ENDBRANCH  25  26
ENDBRANCH   7  25
TORSDOF 4
ENDMDL
MODEL 2
REMARK VINA RESULT:      -8.8      2.236      5.911
REMARK  4 active torsions:
REMARK  status: ('A' for Active; 'I' for Inactive)
REMARK    1  A    between atoms: C_5  and  C_6 
REMARK    2  A    between atoms: C_6  and  N_7 
REMARK    3  A    between atoms: C_13  and  C_14 
REMARK    4  A    between atoms: C_14  and  N_15 
ROOT
HETATM    1  N   UNL     1      27.451  42.672  52.333  1.00  0.00    -0.060 N 
HETATM    2  H   UNL     1      26.481  42.378  52.477  1.00  0.00     0.280 HD
HETATM    3  C   UNL     1      27.424  44.150  51.958  1.00  0.00     0.274 C 
HETATM    4  C   UNL     1      26.435  44.982  52.838  1.00  0.00     0.092 C 
HETATM    5  C   UNL     1      26.691  46.502  52.676  1.00  0.00     0.041 C 
HETATM    6  C   UNL     1      26.257  47.069  51.324  1.00  0.00     0.009 C 
HETATM    7  C   UNL     1      24.768  46.805  51.041  1.00  0.00     0.012 C 
HETATM    8  C   UNL     1      24.501  45.295  51.120  1.00  0.00     0.009 C 
HETATM    9  C   UNL     1      24.956  44.702  52.459  1.00  0.00     0.041 C 
HETATM   10  O   UNL     1      26.517  44.628  54.244  1.00  0.00    -0.338 OA
HETATM   11  C   UNL     1      27.790  44.603  54.742  1.00  0.00     0.077 A 
HETATM   12  C   UNL     1      28.624  43.518  54.463  1.00  0.00     0.001 A 
HETATM   13  C   UNL     1      28.115  42.354  53.670  1.00  0.00     0.276 C 
HETATM   14  C   UNL     1      28.205  45.637  55.577  1.00  0.00     0.037 A 
HETATM   15  C   UNL     1      29.498  45.623  56.098  1.00  0.00     0.003 A 
HETATM   16  C   UNL     1      30.356  44.566  55.803  1.00  0.00     0.001 A 
HETATM   17  C   UNL     1      29.920  43.511  54.999  1.00  0.00     0.012 A 
ENDROOT
BRANCH   1  18
HETATM   18  C   UNL     1      27.977  41.791  51.215  1.00  0.00     0.276 C 
BRANCH  18  19
HETATM   19  C   UNL     1      27.030  41.577  50.094  1.00  0.00     0.004 A 
HETATM   20  C   UNL     1      27.363  41.400  48.730  1.00  0.00     0.149 A 
HETATM   21  N   UNL     1      26.297  41.169  47.971  1.00  0.00    -0.185 NA
HETATM   22  N   UNL     1      25.258  41.281  48.815  1.00  0.00    -0.285 N 
HETATM   23  C   UNL     1      23.907  41.165  48.317  1.00  0.00     0.179 C 
HETATM   24  C   UNL     1      25.649  41.507  50.107  1.00  0.00     0.122 A 
ENDBRANCH  18  19
ENDBRANCH   1  18
BRANCH   7  25
HETATM   25  C   UNL     1      24.383  47.435  49.685  1.00  0.00     0.238 C 
BRANCH  25  26
HETATM   26  N   UNL     1      22.922  47.821  49.589  1.00  0.00    -0.078 N 
HETATM   27  H   UNL     1      22.455  47.609  50.478  1.00  0.00     0.278 HD
HETATM   28  C   UNL     1      22.693  49.287  49.308  1.00  0.00     0.269 C 
HETATM   29  C   UNL     1      22.211  46.978  48.550  1.00  0.00     0.269 C 
ENDBRANCH  25  26
ENDBRANCH   7  25
TORSDOF 4
ENDMDL
MODEL 3
REMARK VINA RESULT:      -8.5      2.397      7.149
REMARK  4 active torsions:
REMARK  status: ('A' for Active; 'I' for Inactive)
REMARK    1  A    between atoms: C_5  and  C_6 
REMARK    2  A    between atoms: C_6  and  N_7 
REMARK    3  A    between atoms: C_13  and  C_14 
REMARK    4  A    between atoms: C_14  and  N_15 
ROOT
HETATM    1  N   UNL     1      26.863  42.566  50.577  1.00  0.00    -0.060 N 
HETATM    2  H   UNL     1      25.873  42.330  50.694  1.00  0.00     0.280 HD
HETATM    3  C   UNL     1      26.970  44.087  50.596  1.00  0.00     0.274 C 
HETATM    4  C   UNL     1      26.097  44.744  51.716  1.00  0.00     0.092 C 
HETATM    5  C   UNL     1      26.498  46.224  51.935  1.00  0.00     0.041 C 
HETATM    6  C   UNL     1      26.080  47.161  50.800  1.00  0.00     0.009 C 
HETATM    7  C   UNL     1      24.563  47.112  50.544  1.00  0.00     0.012 C 
HETATM    8  C   UNL     1      24.151  45.663  50.247  1.00  0.00     0.009 C 
HETATM    9  C   UNL     1      24.586  44.703  51.361  1.00  0.00     0.041 C 
HETATM   10  O   UNL     1      26.188  44.029  52.975  1.00  0.00    -0.338 OA
HETATM   11  C   UNL     1      27.467  43.763  53.378  1.00  0.00     0.077 A 
HETATM   12  C   UNL     1      28.180  42.720  52.783  1.00  0.00     0.001 A 
HETATM   13  C   UNL     1      27.533  41.853  51.748  1.00  0.00     0.276 C 
HETATM   14  C   UNL     1      28.009  44.503  54.426  1.00  0.00     0.037 A 
HETATM   15  C   UNL     1      29.310  44.240  54.852  1.00  0.00     0.003 A 
HETATM   16  C   UNL     1      30.050  43.226  54.248  1.00  0.00     0.001 A 
HETATM   17  C   UNL     1      29.486  42.460  53.225  1.00  0.00     0.012 A 
ENDROOT
BRANCH   1  18
HETATM   18  C   UNL     1      27.262  41.965  49.243  1.00  0.00     0.276 C 
BRANCH  18  19
HETATM   19  C   UNL     1      27.514  40.504  49.268  1.00  0.00     0.004 A 
HETATM   20  C   UNL     1      28.757  39.858  49.066  1.00  0.00     0.149 A 
HETATM   21  N   UNL     1      28.675  38.539  49.210  1.00  0.00    -0.185 NA
HETATM   22  N   UNL     1      27.369  38.308  49.418  1.00  0.00    -0.285 N 
HETATM   23  C   UNL     1      26.886  36.952  49.546  1.00  0.00     0.179 C 
HETATM   24  C   UNL     1      26.632  39.460  49.481  1.00  0.00     0.122 A 
ENDBRANCH  18  19
ENDBRANCH   1  18
BRANCH   7  25
HETATM   25  C   UNL     1      24.200  48.105  49.419  1.00  0.00     0.238 C 
BRANCH  25  26
HETATM   26  N   UNL     1      22.879  48.812  49.638  1.00  0.00    -0.078 N 
HETATM   27  H   UNL     1      22.619  48.747  50.630  1.00  0.00     0.278 HD
HETATM   28  C   UNL     1      22.903  50.279  49.282  1.00  0.00     0.269 C 
HETATM   29  C   UNL     1      21.766  48.115  48.884  1.00  0.00     0.269 C 
ENDBRANCH  25  26
ENDBRANCH   7  25
TORSDOF 4
ENDMDL
MODEL 4
REMARK VINA RESULT:      -8.5      1.955      6.243
REMARK  4 active torsions:
REMARK  status: ('A' for Active; 'I' for Inactive)
REMARK    1  A    between atoms: C_5  and  C_6 
REMARK    2  A    between atoms: C_6  and  N_7 
REMARK    3  A    between atoms: C_13  and  C_14 
REMARK    4  A    between atoms: C_14  and  N_15 
ROOT
HETATM    1  N   UNL     1      26.662  43.243  50.681  1.00  0.00    -0.060 N 
HETATM    2  H   UNL     1      25.998  43.151  51.455  1.00  0.00     0.280 HD
HETATM    3  C   UNL     1      28.064  43.195  51.282  1.00  0.00     0.274 C 
HETATM    4  C   UNL     1      28.220  42.083  52.371  1.00  0.00     0.092 C 
HETATM    5  C   UNL     1      29.714  41.829  52.694  1.00  0.00     0.041 C 
HETATM    6  C   UNL     1      30.384  42.955  53.482  1.00  0.00     0.009 C 
HETATM    7  C   UNL     1      29.654  43.243  54.805  1.00  0.00     0.012 C 
HETATM    8  C   UNL     1      28.184  43.576  54.506  1.00  0.00     0.009 C 
HETATM    9  C   UNL     1      27.502  42.470  53.691  1.00  0.00     0.041 C 
HETATM   10  O   UNL     1      27.594  40.834  51.976  1.00  0.00    -0.338 OA
HETATM   11  C   UNL     1      27.932  40.409  50.721  1.00  0.00     0.077 A 
HETATM   12  C   UNL     1      27.345  41.008  49.603  1.00  0.00     0.001 A 
HETATM   13  C   UNL     1      26.305  42.072  49.771  1.00  0.00     0.276 C 
HETATM   14  C   UNL     1      28.811  39.338  50.589  1.00  0.00     0.037 A 
HETATM   15  C   UNL     1      29.161  38.889  49.316  1.00  0.00     0.003 A 
HETATM   16  C   UNL     1      28.612  39.496  48.188  1.00  0.00     0.001 A 
HETATM   17  C   UNL     1      27.699  40.543  48.328  1.00  0.00     0.012 A 
ENDROOT
BRANCH   1  18
HETATM   18  C   UNL     1      26.345  44.580  50.037  1.00  0.00     0.276 C 
BRANCH  18  19
HETATM   19  C   UNL     1      26.010  45.666  50.989  1.00  0.00     0.004 A 
HETATM   20  C   UNL     1      25.279  46.844  50.704  1.00  0.00     0.149 A 
HETATM   21  N   UNL     1      25.090  47.600  51.780  1.00  0.00    -0.185 NA
HETATM   22  N   UNL     1      25.768  46.969  52.753  1.00  0.00    -0.285 N 
HETATM   23  C   UNL     1      25.852  47.553  54.071  1.00  0.00     0.179 C 
HETATM   24  C   UNL     1      26.324  45.791  52.330  1.00  0.00     0.122 A 
ENDBRANCH  18  19
ENDBRANCH   1  18
BRANCH   7  25
HETATM   25  C   UNL     1      30.400  44.358  55.571  1.00  0.00     0.238 C 
BRANCH  25  26
HETATM   26  N   UNL     1      30.714  44.000  57.008  1.00  0.00    -0.078 N 
HETATM   27  H   UNL     1      29.984  43.375  57.370  1.00  0.00     0.278 HD
HETATM   28  C   UNL     1      32.034  43.289  57.187  1.00  0.00     0.269 C 
HETATM   29  C   UNL     1      30.665  45.230  57.891  1.00  0.00     0.269 C 
ENDBRANCH  25  26
ENDBRANCH   7  25
TORSDOF 4
ENDMDL
MODEL 5
REMARK VINA RESULT:      -7.9      2.465      7.805
REMARK  4 active torsions:
REMARK  status: ('A' for Active; 'I' for Inactive)
REMARK    1  A    between atoms: C_5  and  C_6 
REMARK    2  A    between atoms: C_6  and  N_7 
REMARK    3  A    between atoms: C_13  and  C_14 
REMARK    4  A    between atoms: C_14  and  N_15 
ROOT
HETATM    1  N   UNL     1      27.039  44.189  52.327  1.00  0.00    -0.060 N 
HETATM    2  H   UNL     1      27.750  44.879  52.070  1.00  0.00     0.280 HD
HETATM    3  C   UNL     1      25.781  44.518  51.530  1.00  0.00     0.274 C 
HETATM    4  C   UNL     1      26.083  44.868  50.036  1.00  0.00     0.092 C 
HETATM    5  C   UNL     1      24.786  44.846  49.188  1.00  0.00     0.041 C 
HETATM    6  C   UNL     1      23.837  46.013  49.464  1.00  0.00     0.009 C 
HETATM    7  C   UNL     1      24.522  47.374  49.249  1.00  0.00     0.012 C 
HETATM    8  C   UNL     1      25.771  47.454  50.139  1.00  0.00     0.009 C 
HETATM    9  C   UNL     1      26.723  46.275  49.896  1.00  0.00     0.041 C 
HETATM   10  O   UNL     1      27.059  43.970  49.447  1.00  0.00    -0.338 OA
HETATM   11  C   UNL     1      26.792  42.644  49.644  1.00  0.00     0.077 A 
HETATM   12  C   UNL     1      27.065  42.059  50.883  1.00  0.00     0.001 A 
HETATM   13  C   UNL     1      27.700  42.858  51.977  1.00  0.00     0.276 C 
HETATM   14  C   UNL     1      26.314  41.889  48.577  1.00  0.00     0.037 A 
HETATM   15  C   UNL     1      26.043  40.534  48.761  1.00  0.00     0.003 A 
HETATM   16  C   UNL     1      26.276  39.939  50.000  1.00  0.00     0.001 A 
HETATM   17  C   UNL     1      26.795  40.692  51.054  1.00  0.00     0.012 A 
ENDROOT
BRANCH   1  18
HETATM   18  C   UNL     1      26.846  44.350  53.824  1.00  0.00     0.276 C 
BRANCH  18  19
HETATM   19  C   UNL     1      28.088  44.627  54.585  1.00  0.00     0.004 A 
HETATM   20  C   UNL     1      28.470  45.864  55.156  1.00  0.00     0.149 A 
HETATM   21  N   UNL     1      29.613  45.783  55.831  1.00  0.00    -0.185 NA
HETATM   22  N   UNL     1      30.027  44.522  55.632  1.00  0.00    -0.285 N 
HETATM   23  C   UNL     1      31.298  44.085  56.163  1.00  0.00     0.179 C 
HETATM   24  C   UNL     1      29.135  43.781  54.904  1.00  0.00     0.122 A 
ENDBRANCH  18  19
ENDBRANCH   1  18
BRANCH   7  25
HETATM   25  C   UNL     1      23.504  48.507  49.503  1.00  0.00     0.238 C 
BRANCH  25  26
HETATM   26  N   UNL     1      23.295  49.412  48.308  1.00  0.00    -0.078 N 
HETATM   27  H   UNL     1      23.073  48.841  47.484  1.00  0.00     0.278 HD
HETATM   28  C   UNL     1      22.166  50.400  48.478  1.00  0.00     0.269 C 
HETATM   29  C   UNL     1      24.574  50.144  47.958  1.00  0.00     0.269 C 
ENDBRANCH  25  26
ENDBRANCH   7  25
TORSDOF 4
ENDMDL
MODEL 6
REMARK VINA RESULT:      -7.6      2.440      6.142
REMARK  4 active torsions:
REMARK  status: ('A' for Active; 'I' for Inactive)
REMARK    1  A    between atoms: C_5  and  C_6 
REMARK    2  A    between atoms: C_6  and  N_7 
REMARK    3  A    between atoms: C_13  and  C_14 
REMARK    4  A    between atoms: C_14  and  N_15 
ROOT
HETATM    1  N   UNL     1      27.219  42.463  52.719  1.00  0.00    -0.060 N 
HETATM    2  H   UNL     1      26.330  41.984  52.886  1.00  0.00     0.280 HD
HETATM    3  C   UNL     1      26.943  43.595  51.735  1.00  0.00     0.274 C 
HETATM    4  C   UNL     1      25.635  44.385  52.069  1.00  0.00     0.092 C 
HETATM    5  C   UNL     1      25.576  45.719  51.284  1.00  0.00     0.041 C 
HETATM    6  C   UNL     1      25.315  45.554  49.786  1.00  0.00     0.009 C 
HETATM    7  C   UNL     1      24.012  44.783  49.512  1.00  0.00     0.012 C 
HETATM    8  C   UNL     1      24.076  43.420  50.217  1.00  0.00     0.009 C 
HETATM    9  C   UNL     1      24.365  43.564  51.716  1.00  0.00     0.041 C 
HETATM   10  O   UNL     1      25.503  44.656  53.489  1.00  0.00    -0.338 OA
HETATM   11  C   UNL     1      26.619  45.198  54.063  1.00  0.00     0.077 A 
HETATM   12  C   UNL     1      27.711  44.381  54.363  1.00  0.00     0.001 A 
HETATM   13  C   UNL     1      27.647  42.906  54.115  1.00  0.00     0.276 C 
HETATM   14  C   UNL     1      26.614  46.549  54.396  1.00  0.00     0.037 A 
HETATM   15  C   UNL     1      27.742  47.116  54.987  1.00  0.00     0.003 A 
HETATM   16  C   UNL     1      28.855  46.324  55.264  1.00  0.00     0.001 A 
HETATM   17  C   UNL     1      28.838  44.960  54.965  1.00  0.00     0.012 A 
ENDROOT
BRANCH   1  18
HETATM   18  C   UNL     1      28.145  41.403  52.151  1.00  0.00     0.276 C 
BRANCH  18  19
HETATM   19  C   UNL     1      27.632  40.710  50.945  1.00  0.00     0.004 A 
HETATM   20  C   UNL     1      26.279  40.415  50.652  1.00  0.00     0.149 A 
HETATM   21  N   UNL     1      26.129  39.838  49.464  1.00  0.00    -0.185 NA
HETATM   22  N   UNL     1      27.383  39.672  49.014  1.00  0.00    -0.285 N 
HETATM   23  C   UNL     1      27.618  38.994  47.760  1.00  0.00     0.179 C 
HETATM   24  C   UNL     1      28.322  40.198  49.861  1.00  0.00     0.122 A 
ENDBRANCH  18  19
ENDBRANCH   1  18
BRANCH   7  25
HETATM   25  C   UNL     1      23.784  44.685  47.987  1.00  0.00     0.238 C 
BRANCH  25  26
HETATM   26  N   UNL     1      22.432  45.200  47.542  1.00  0.00    -0.078 N 
HETATM   27  H   UNL     1      21.693  44.689  48.039  1.00  0.00     0.278 HD
HETATM   28  C   UNL     1      22.215  46.668  47.816  1.00  0.00     0.269 C 
HETATM   29  C   UNL     1      22.204  44.909  46.073  1.00  0.00     0.269 C 
ENDBRANCH  25  26
ENDBRANCH   7  25
TORSDOF 4
ENDMDL
MODEL 7
REMARK VINA RESULT:      -7.5      9.952     13.755
REMARK  4 active torsions:
REMARK  status: ('A' for Active; 'I' for Inactive)
REMARK    1  A    between atoms: C_5  and  C_6 
REMARK    2  A    between atoms: C_6  and  N_7 
REMARK    3  A    between atoms: C_13  and  C_14 
REMARK    4  A    between atoms: C_14  and  N_15 
ROOT
HETATM    1  N   UNL     1      19.506  48.147  48.549  1.00  0.00    -0.060 N 
HETATM    2  H   UNL     1      19.041  48.021  49.452  1.00  0.00     0.280 HD
HETATM    3  C   UNL     1      19.264  49.589  48.114  1.00  0.00     0.274 C 
HETATM    4  C   UNL     1      19.446  50.614  49.281  1.00  0.00     0.092 C 
HETATM    5  C   UNL     1      19.544  52.061  48.738  1.00  0.00     0.041 C 
HETATM    6  C   UNL     1      18.226  52.621  48.203  1.00  0.00     0.009 C 
HETATM    7  C   UNL     1      17.114  52.587  49.266  1.00  0.00     0.012 C 
HETATM    8  C   UNL     1      16.941  51.146  49.767  1.00  0.00     0.009 C 
HETATM    9  C   UNL     1      18.261  50.557  50.282  1.00  0.00     0.041 C 
HETATM   10  O   UNL     1      20.614  50.324  50.092  1.00  0.00    -0.338 OA
HETATM   11  C   UNL     1      21.759  50.119  49.374  1.00  0.00     0.077 A 
HETATM   12  C   UNL     1      21.961  48.900  48.722  1.00  0.00     0.001 A 
HETATM   13  C   UNL     1      20.960  47.795  48.852  1.00  0.00     0.276 C 
HETATM   14  C   UNL     1      22.732  51.114  49.364  1.00  0.00     0.037 A 
HETATM   15  C   UNL     1      23.908  50.918  48.642  1.00  0.00     0.003 A 
HETATM   16  C   UNL     1      24.114  49.723  47.956  1.00  0.00     0.001 A 
HETATM   17  C   UNL     1      23.152  48.712  48.004  1.00  0.00     0.012 A 
ENDROOT
BRANCH   1  18
HETATM   18  C   UNL     1      18.860  47.136  47.620  1.00  0.00     0.276 C 
BRANCH  18  19
HETATM   19  C   UNL     1      17.458  47.442  47.245  1.00  0.00     0.004 A 
HETATM   20  C   UNL     1      16.373  47.646  48.129  1.00  0.00     0.149 A 
HETATM   21  N   UNL     1      15.250  47.964  47.493  1.00  0.00    -0.185 NA
HETATM   22  N   UNL     1      15.571  47.884  46.192  1.00  0.00    -0.285 N 
HETATM   23  C   UNL     1      14.559  48.095  45.183  1.00  0.00     0.179 C 
HETATM   24  C   UNL     1      16.894  47.592  45.991  1.00  0.00     0.122 A 
ENDBRANCH  18  19
ENDBRANCH   1  18
BRANCH   7  25
HETATM   25  C   UNL     1      15.823  53.200  48.680  1.00  0.00     0.238 C 
BRANCH  25  26
HETATM   26  N   UNL     1      15.392  54.477  49.369  1.00  0.00    -0.078 N 
HETATM   27  H   UNL     1      16.161  55.157  49.339  1.00  0.00     0.278 HD
HETATM   28  C   UNL     1      14.192  55.139  48.737  1.00  0.00     0.269 C 
HETATM   29  C   UNL     1      15.131  54.230  50.841  1.00  0.00     0.269 C 
ENDBRANCH  25  26
ENDBRANCH   7  25
TORSDOF 4
ENDMDL
MODEL 8
REMARK VINA RESULT:      -7.4     12.883     15.299
REMARK  4 active torsions:
REMARK  status: ('A' for Active; 'I' for Inactive)
REMARK    1  A    between atoms: C_5  and  C_6 
REMARK    2  A    between atoms: C_6  and  N_7 
REMARK    3  A    between atoms: C_13  and  C_14 
REMARK    4  A    between atoms: C_14  and  N_15 
ROOT
HETATM    1  N   UNL     1      29.871  49.061  41.963  1.00  0.00    -0.060 N 
HETATM    2  H   UNL     1      29.111  48.567  42.439  1.00  0.00     0.280 HD
HETATM    3  C   UNL     1      30.010  48.443  40.575  1.00  0.00     0.274 C 
HETATM    4  C   UNL     1      28.631  48.194  39.880  1.00  0.00     0.092 C 
HETATM    5  C   UNL     1      28.815  47.908  38.368  1.00  0.00     0.041 C 
HETATM    6  C   UNL     1      29.429  46.543  38.059  1.00  0.00     0.009 C 
HETATM    7  C   UNL     1      28.604  45.392  38.663  1.00  0.00     0.012 C 
HETATM    8  C   UNL     1      28.472  45.610  40.177  1.00  0.00     0.009 C 
HETATM    9  C   UNL     1      27.884  46.987  40.509  1.00  0.00     0.041 C 
HETATM   10  O   UNL     1      27.718  49.309  40.052  1.00  0.00    -0.338 OA
HETATM   11  C   UNL     1      28.258  50.528  39.750  1.00  0.00     0.077 A 
HETATM   12  C   UNL     1      29.120  51.149  40.658  1.00  0.00     0.001 A 
HETATM   13  C   UNL     1      29.411  50.516  41.983  1.00  0.00     0.276 C 
HETATM   14  C   UNL     1      27.882  51.156  38.566  1.00  0.00     0.037 A 
HETATM   15  C   UNL     1      28.420  52.401  38.247  1.00  0.00     0.003 A 
HETATM   16  C   UNL     1      29.308  53.022  39.124  1.00  0.00     0.001 A 
HETATM   17  C   UNL     1      29.650  52.406  40.330  1.00  0.00     0.012 A 
ENDROOT
BRANCH   1  18
HETATM   18  C   UNL     1      31.096  48.841  42.830  1.00  0.00     0.276 C 
BRANCH  18  19
HETATM   19  C   UNL     1      32.160  49.862  42.675  1.00  0.00     0.004 A 
HETATM   20  C   UNL     1      32.386  50.980  43.512  1.00  0.00     0.149 A 
HETATM   21  N   UNL     1      33.455  51.681  43.149  1.00  0.00    -0.185 NA
HETATM   22  N   UNL     1      33.882  51.080  42.027  1.00  0.00    -0.285 N 
HETATM   23  C   UNL     1      35.002  51.625  41.296  1.00  0.00     0.179 C 
HETATM   24  C   UNL     1      33.146  49.969  41.711  1.00  0.00     0.122 A 
ENDBRANCH  18  19
ENDBRANCH   1  18
BRANCH   7  25
HETATM   25  C   UNL     1      29.250  44.042  38.283  1.00  0.00     0.238 C 
BRANCH  25  26
HETATM   26  N   UNL     1      28.613  43.383  37.078  1.00  0.00    -0.078 N 
HETATM   27  H   UNL     1      28.549  42.371  37.237  1.00  0.00     0.278 HD
HETATM   28  C   UNL     1      27.217  43.874  36.779  1.00  0.00     0.269 C 
HETATM   29  C   UNL     1      29.490  43.543  35.852  1.00  0.00     0.269 C 
ENDBRANCH  25  26
ENDBRANCH   7  25
TORSDOF 4
ENDMDL
MODEL 9
REMARK VINA RESULT:      -7.3      7.894     11.406
REMARK  4 active torsions:
REMARK  status: ('A' for Active; 'I' for Inactive)
REMARK    1  A    between atoms: C_5  and  C_6 
REMARK    2  A    between atoms: C_6  and  N_7 
REMARK    3  A    between atoms: C_13  and  C_14 
REMARK    4  A    between atoms: C_14  and  N_15 
ROOT
HETATM    1  N   UNL     1      21.659  49.733  48.463  1.00  0.00    -0.060 N 
HETATM    2  H   UNL     1      21.942  49.028  49.149  1.00  0.00     0.280 HD
HETATM    3  C   UNL     1      20.752  49.041  47.451  1.00  0.00     0.274 C 
HETATM    4  C   UNL     1      19.712  48.084  48.122  1.00  0.00     0.092 C 
HETATM    5  C   UNL     1      18.600  47.684  47.120  1.00  0.00     0.041 C 
HETATM    6  C   UNL     1      19.059  46.720  46.026  1.00  0.00     0.009 C 
HETATM    7  C   UNL     1      19.658  45.429  46.612  1.00  0.00     0.012 C 
HETATM    8  C   UNL     1      20.817  45.794  47.551  1.00  0.00     0.009 C 
HETATM    9  C   UNL     1      20.382  46.784  48.640  1.00  0.00     0.041 C 
HETATM   10  O   UNL     1      19.107  48.671  49.304  1.00  0.00    -0.338 OA
HETATM   11  C   UNL     1      18.630  49.939  49.120  1.00  0.00     0.077 A 
HETATM   12  C   UNL     1      19.518  51.017  49.091  1.00  0.00     0.001 A 
HETATM   13  C   UNL     1      20.982  50.801  49.318  1.00  0.00     0.276 C 
HETATM   14  C   UNL     1      17.255  50.133  49.031  1.00  0.00     0.037 A 
HETATM   15  C   UNL     1      16.753  51.420  48.849  1.00  0.00     0.003 A 
HETATM   16  C   UNL     1      17.624  52.505  48.783  1.00  0.00     0.001 A 
HETATM   17  C   UNL     1      19.001  52.309  48.915  1.00  0.00     0.012 A 
ENDROOT
BRANCH   1  18
HETATM   18  C   UNL     1      22.952  50.235  47.847  1.00  0.00     0.276 C 
BRANCH  18  19
HETATM   19  C   UNL     1      24.185  49.642  48.418  1.00  0.00     0.004 A 
HETATM   20  C   UNL     1      24.257  48.587  49.359  1.00  0.00     0.149 A 
HETATM   21  N   UNL     1      25.509  48.234  49.634  1.00  0.00    -0.185 NA
HETATM   22  N   UNL     1      26.259  49.110  48.947  1.00  0.00    -0.285 N 
HETATM   23  C   UNL     1      27.699  49.079  49.067  1.00  0.00     0.179 C 
HETATM   24  C   UNL     1      25.509  49.965  48.185  1.00  0.00     0.122 A 
ENDBRANCH  18  19
ENDBRANCH   1  18
BRANCH   7  25
HETATM   25  C   UNL     1      20.065  44.483  45.461  1.00  0.00     0.238 C 
BRANCH  25  26
HETATM   26  N   UNL     1      21.560  44.417  45.232  1.00  0.00    -0.078 N 
HETATM   27  H   UNL     1      22.044  44.889  46.004  1.00  0.00     0.278 HD
HETATM   28  C   UNL     1      22.107  43.012  45.159  1.00  0.00     0.269 C 
HETATM   29  C   UNL     1      21.946  45.186  43.985  1.00  0.00     0.269 C 
ENDBRANCH  25  26
ENDBRANCH   7  25
TORSDOF 4
ENDMDL
MODEL 10
REMARK VINA RESULT:      -7.2     11.160     15.427
REMARK  4 active torsions:
REMARK  status: ('A' for Active; 'I' for Inactive)
REMARK    1  A    between atoms: C_5  and  C_6 
REMARK    2  A    between atoms: C_6  and  N_7 
REMARK    3  A    between atoms: C_13  and  C_14 
REMARK    4  A    between atoms: C_14  and  N_15 
ROOT
HETATM    1  N   UNL     1      18.469  50.598  46.382  1.00  0.00    -0.060 N 
HETATM    2  H   UNL     1      17.765  49.872  46.542  1.00  0.00     0.280 HD
HETATM    3  C   UNL     1      18.197  51.719  47.381  1.00  0.00     0.274 C 
HETATM    4  C   UNL     1      17.877  51.188  48.817  1.00  0.00     0.092 C 
HETATM    5  C   UNL     1      17.959  52.330  49.861  1.00  0.00     0.041 C 
HETATM    6  C   UNL     1      16.813  53.340  49.776  1.00  0.00     0.009 C 
HETATM    7  C   UNL     1      15.439  52.662  49.919  1.00  0.00     0.012 C 
HETATM    8  C   UNL     1      15.300  51.575  48.843  1.00  0.00     0.009 C 
HETATM    9  C   UNL     1      16.456  50.568  48.894  1.00  0.00     0.041 C 
HETATM   10  O   UNL     1      18.761  50.108  49.215  1.00  0.00    -0.338 OA
HETATM   11  C   UNL     1      20.089  50.370  49.023  1.00  0.00     0.077 A 
HETATM   12  C   UNL     1      20.634  50.287  47.739  1.00  0.00     0.001 A 
HETATM   13  C   UNL     1      19.789  49.857  46.581  1.00  0.00     0.276 C 
HETATM   14  C   UNL     1      20.885  50.652  50.129  1.00  0.00     0.037 A 
HETATM   15  C   UNL     1      22.242  50.915  49.950  1.00  0.00     0.003 A 
HETATM   16  C   UNL     1      22.798  50.871  48.674  1.00  0.00     0.001 A 
HETATM   17  C   UNL     1      22.003  50.547  47.572  1.00  0.00     0.012 A 
ENDROOT
BRANCH   1  18
HETATM   18  C   UNL     1      18.275  51.033  44.942  1.00  0.00     0.276 C 
BRANCH  18  19
HETATM   19  C   UNL     1      17.053  51.834  44.693  1.00  0.00     0.004 A 
HETATM   20  C   UNL     1      15.715  51.382  44.780  1.00  0.00     0.149 A 
HETATM   21  N   UNL     1      14.833  52.351  44.558  1.00  0.00    -0.185 NA
HETATM   22  N   UNL     1      15.585  53.417  44.239  1.00  0.00    -0.285 N 
HETATM   23  C   UNL     1      14.953  54.658  43.854  1.00  0.00     0.179 C 
HETATM   24  C   UNL     1      16.927  53.161  44.325  1.00  0.00     0.122 A 
ENDBRANCH  18  19
ENDBRANCH   1  18
BRANCH   7  25
HETATM   25  C   UNL     1      14.329  53.735  49.866  1.00  0.00     0.238 C 
BRANCH  25  26
HETATM   26  N   UNL     1      14.634  54.875  48.918  1.00  0.00    -0.078 N 
HETATM   27  H   UNL     1      15.638  54.880  48.703  1.00  0.00     0.278 HD
HETATM   28  C   UNL     1      13.901  54.789  47.601  1.00  0.00     0.269 C 
HETATM   29  C   UNL     1      14.356  56.210  49.577  1.00  0.00     0.269 C 
ENDBRANCH  25  26
ENDBRANCH   7  25
TORSDOF 4
ENDMDL
