MODEL 1
REMARK VINA RESULT:      -8.5      0.000      0.000
REMARK  5 active torsions:
REMARK  status: ('A' for Active; 'I' for Inactive)
REMARK    1  A    between atoms: C_2  and  C_3 
REMARK       I    between atoms: C_3  and  N_4 
REMARK    2  A    between atoms: N_4  and  C_5 
REMARK    3  A    between atoms: C_5  and  C_6 
REMARK    4  A    between atoms: C_5  and  C_17 
REMARK    5  A    between atoms: C_7  and  O_8 
ROOT
HETATM    1  C   UNL     1      26.287  43.952  52.288  1.00  0.00     0.154 C 
ENDROOT
BRANCH   1   2
HETATM    2  N   UNL     1      25.999  42.783  51.462  1.00  0.00    -0.348 N 
HETATM    3  C   UNL     1      24.759  42.596  50.891  1.00  0.00     0.218 C 
HETATM    4  O   UNL     1      23.783  43.299  51.144  1.00  0.00    -0.274 OA
HETATM    5  H   UNL     1      26.781  42.401  50.950  1.00  0.00     0.163 HD
BRANCH   3   6
HETATM    6  C   UNL     1      24.707  41.496  49.851  1.00  0.00     0.098 C 
HETATM    7  C   UNL     1      25.927  40.593  49.863  1.00  0.00     0.014 C 
ENDBRANCH   3   6
ENDBRANCH   1   2
BRANCH   1   8
HETATM    8  C   UNL     1      27.529  43.762  53.153  1.00  0.00     0.005 A 
HETATM    9  C   UNL     1      27.781  44.611  54.253  1.00  0.00     0.103 A 
HETATM   10  C   UNL     1      28.929  44.524  55.057  1.00  0.00     0.100 A 
HETATM   11  C   UNL     1      29.858  43.512  54.743  1.00  0.00    -0.004 A 
HETATM   12  N   UNL     1      29.138  45.364  56.100  1.00  0.00    -0.257 NA
HETATM   13  C   UNL     1      29.617  42.632  53.676  1.00  0.00     0.014 A 
HETATM   14  C   UNL     1      31.019  43.403  55.522  1.00  0.00     0.015 A 
HETATM   15  C   UNL     1      28.464  42.751  52.898  1.00  0.00     0.013 A 
HETATM   16  C   UNL     1      31.231  44.276  56.580  1.00  0.00     0.020 A 
HETATM   17  C   UNL     1      30.267  45.231  56.828  1.00  0.00     0.117 A 
BRANCH   9  18
HETATM   18  O   UNL     1      26.837  45.565  54.576  1.00  0.00    -0.358 OA
HETATM   19  H   UNL     1      26.846  45.615  55.560  1.00  0.00     0.218 HD
ENDBRANCH   9  18
ENDBRANCH   1   8
BRANCH   1  20
HETATM   20  C   UNL     1      26.309  45.227  51.441  1.00  0.00    -0.031 A 
HETATM   21  C   UNL     1      27.135  45.281  50.307  1.00  0.00     0.010 A 
HETATM   22  C   UNL     1      27.207  46.437  49.526  1.00  0.00     0.007 A 
HETATM   23  C   UNL     1      26.454  47.567  49.860  1.00  0.00    -0.062 A 
HETATM   24  C   UNL     1      26.513  48.801  49.009  1.00  0.00     0.048 C 
HETATM   25  C   UNL     1      25.598  47.510  50.963  1.00  0.00     0.007 A 
HETATM   26  C   UNL     1      25.528  46.356  51.748  1.00  0.00     0.010 A 
ENDBRANCH   1  20
TORSDOF 5
ENDMDL
MODEL 2
REMARK VINA RESULT:      -8.2      2.638      6.348
REMARK  5 active torsions:
REMARK  status: ('A' for Active; 'I' for Inactive)
REMARK    1  A    between atoms: C_2  and  C_3 
REMARK       I    between atoms: C_3  and  N_4 
REMARK    2  A    between atoms: N_4  and  C_5 
REMARK    3  A    between atoms: C_5  and  C_6 
REMARK    4  A    between atoms: C_5  and  C_17 
REMARK    5  A    between atoms: C_7  and  O_8 
ROOT
HETATM    1  C   UNL     1      25.656  46.089  51.432  1.00  0.00     0.154 C 
ENDROOT
BRANCH   1   2
HETATM    2  N   UNL     1      26.237  47.029  50.477  1.00  0.00    -0.348 N 
HETATM    3  C   UNL     1      25.472  48.002  49.872  1.00  0.00     0.218 C 
HETATM    4  O   UNL     1      24.248  48.061  49.970  1.00  0.00    -0.274 OA
HETATM    5  H   UNL     1      27.209  47.261  50.623  1.00  0.00     0.163 HD
BRANCH   3   6
HETATM    6  C   UNL     1      26.268  49.056  49.132  1.00  0.00     0.098 C 
HETATM    7  C   UNL     1      27.764  48.797  49.133  1.00  0.00     0.014 C 
ENDBRANCH   3   6
ENDBRANCH   1   2
BRANCH   1   8
HETATM    8  C   UNL     1      25.452  44.701  50.833  1.00  0.00     0.005 A 
HETATM    9  C   UNL     1      26.436  44.119  50.006  1.00  0.00     0.103 A 
HETATM   10  C   UNL     1      26.290  42.869  49.383  1.00  0.00     0.100 A 
HETATM   11  C   UNL     1      25.094  42.165  49.628  1.00  0.00    -0.004 A 
HETATM   12  N   UNL     1      27.256  42.347  48.587  1.00  0.00    -0.257 NA
HETATM   13  C   UNL     1      24.112  42.705  50.475  1.00  0.00     0.014 A 
HETATM   14  C   UNL     1      24.912  40.917  49.014  1.00  0.00     0.015 A 
HETATM   15  C   UNL     1      24.294  43.952  51.075  1.00  0.00     0.013 A 
HETATM   16  C   UNL     1      25.901  40.397  48.191  1.00  0.00     0.020 A 
HETATM   17  C   UNL     1      27.047  41.144  48.012  1.00  0.00     0.117 A 
BRANCH   9  18
HETATM   18  O   UNL     1      27.621  44.800  49.815  1.00  0.00    -0.358 OA
HETATM   19  H   UNL     1      27.977  44.467  48.959  1.00  0.00     0.218 HD
ENDBRANCH   9  18
ENDBRANCH   1   8
BRANCH   1  20
HETATM   20  C   UNL     1      26.444  46.090  52.745  1.00  0.00    -0.031 A 
HETATM   21  C   UNL     1      26.548  47.281  53.480  1.00  0.00     0.010 A 
HETATM   22  C   UNL     1      27.284  47.331  54.666  1.00  0.00     0.007 A 
HETATM   23  C   UNL     1      27.933  46.189  55.147  1.00  0.00    -0.062 A 
HETATM   24  C   UNL     1      28.704  46.236  56.433  1.00  0.00     0.048 C 
HETATM   25  C   UNL     1      27.801  44.988  54.445  1.00  0.00     0.007 A 
HETATM   26  C   UNL     1      27.069  44.939  53.255  1.00  0.00     0.010 A 
ENDBRANCH   1  20
TORSDOF 5
ENDMDL
MODEL 3
REMARK VINA RESULT:      -8.2      6.005      8.770
REMARK  5 active torsions:
REMARK  status: ('A' for Active; 'I' for Inactive)
REMARK    1  A    between atoms: C_2  and  C_3 
REMARK       I    between atoms: C_3  and  N_4 
REMARK    2  A    between atoms: N_4  and  C_5 
REMARK    3  A    between atoms: C_5  and  C_6 
REMARK    4  A    between atoms: C_5  and  C_17 
REMARK    5  A    between atoms: C_7  and  O_8 
ROOT
HETATM    1  C   UNL     1      20.882  48.437  48.782  1.00  0.00     0.154 C 
ENDROOT
BRANCH   1   2
HETATM    2  N   UNL     1      20.413  47.598  47.681  1.00  0.00    -0.348 N 
HETATM    3  C   UNL     1      20.267  46.237  47.828  1.00  0.00     0.218 C 
HETATM    4  O   UNL     1      20.647  45.617  48.818  1.00  0.00    -0.274 OA
HETATM    5  H   UNL     1      19.783  48.041  47.028  1.00  0.00     0.163 HD
BRANCH   3   6
HETATM    6  C   UNL     1      19.518  45.561  46.699  1.00  0.00     0.098 C 
HETATM    7  C   UNL     1      18.052  45.311  47.007  1.00  0.00     0.014 C 
ENDBRANCH   3   6
ENDBRANCH   1   2
BRANCH   1   8
HETATM    8  C   UNL     1      22.324  48.895  48.593  1.00  0.00     0.005 A 
HETATM    9  C   UNL     1      23.390  48.194  49.198  1.00  0.00     0.103 A 
HETATM   10  C   UNL     1      24.734  48.592  49.107  1.00  0.00     0.100 A 
HETATM   11  C   UNL     1      25.013  49.745  48.347  1.00  0.00    -0.004 A 
HETATM   12  N   UNL     1      25.729  47.896  49.711  1.00  0.00    -0.257 NA
HETATM   13  C   UNL     1      23.976  50.441  47.705  1.00  0.00     0.014 A 
HETATM   14  C   UNL     1      26.344  50.174  48.242  1.00  0.00     0.015 A 
HETATM   15  C   UNL     1      22.652  50.016  47.820  1.00  0.00     0.013 A 
HETATM   16  C   UNL     1      27.355  49.462  48.874  1.00  0.00     0.020 A 
HETATM   17  C   UNL     1      26.999  48.338  49.590  1.00  0.00     0.117 A 
BRANCH   9  18
HETATM   18  O   UNL     1      23.104  47.040  49.898  1.00  0.00    -0.358 OA
HETATM   19  H   UNL     1      23.860  46.920  50.519  1.00  0.00     0.218 HD
ENDBRANCH   9  18
ENDBRANCH   1   8
BRANCH   1  20
HETATM   20  C   UNL     1      19.898  49.578  49.055  1.00  0.00    -0.031 A 
HETATM   21  C   UNL     1      18.636  49.554  48.440  1.00  0.00     0.010 A 
HETATM   22  C   UNL     1      17.722  50.593  48.639  1.00  0.00     0.007 A 
HETATM   23  C   UNL     1      18.048  51.679  49.458  1.00  0.00    -0.062 A 
HETATM   24  C   UNL     1      17.060  52.782  49.690  1.00  0.00     0.048 C 
HETATM   25  C   UNL     1      19.287  51.691  50.106  1.00  0.00     0.007 A 
HETATM   26  C   UNL     1      20.203  50.656  49.904  1.00  0.00     0.010 A 
ENDBRANCH   1  20
TORSDOF 5
ENDMDL
MODEL 4
REMARK VINA RESULT:      -8.2      1.828      2.738
REMARK  5 active torsions:
REMARK  status: ('A' for Active; 'I' for Inactive)
REMARK    1  A    between atoms: C_2  and  C_3 
REMARK       I    between atoms: C_3  and  N_4 
REMARK    2  A    between atoms: N_4  and  C_5 
REMARK    3  A    between atoms: C_5  and  C_6 
REMARK    4  A    between atoms: C_5  and  C_17 
REMARK    5  A    between atoms: C_7  and  O_8 
ROOT
HETATM    1  C   UNL     1      25.102  45.260  51.173  1.00  0.00     0.154 C 
ENDROOT
BRANCH   1   2
HETATM    2  N   UNL     1      24.904  44.134  50.263  1.00  0.00    -0.348 N 
HETATM    3  C   UNL     1      23.679  43.516  50.144  1.00  0.00     0.218 C 
HETATM    4  O   UNL     1      22.723  43.756  50.878  1.00  0.00    -0.274 OA
HETATM    5  H   UNL     1      25.482  44.130  49.436  1.00  0.00     0.163 HD
BRANCH   3   6
HETATM    6  C   UNL     1      23.570  42.562  48.973  1.00  0.00     0.098 C 
HETATM    7  C   UNL     1      24.889  41.910  48.597  1.00  0.00     0.014 C 
ENDBRANCH   3   6
ENDBRANCH   1   2
BRANCH   1   8
HETATM    8  C   UNL     1      26.213  45.003  52.185  1.00  0.00     0.005 A 
HETATM    9  C   UNL     1      27.314  44.183  51.858  1.00  0.00     0.103 A 
HETATM   10  C   UNL     1      28.344  43.865  52.759  1.00  0.00     0.100 A 
HETATM   11  C   UNL     1      28.263  44.424  54.049  1.00  0.00    -0.004 A 
HETATM   12  N   UNL     1      29.381  43.065  52.408  1.00  0.00    -0.257 NA
HETATM   13  C   UNL     1      27.198  45.271  54.392  1.00  0.00     0.014 A 
HETATM   14  C   UNL     1      29.271  44.120  54.976  1.00  0.00     0.015 A 
HETATM   15  C   UNL     1      26.192  45.563  53.469  1.00  0.00     0.013 A 
HETATM   16  C   UNL     1      30.322  43.289  54.612  1.00  0.00     0.020 A 
HETATM   17  C   UNL     1      30.333  42.792  53.325  1.00  0.00     0.117 A 
BRANCH   9  18
HETATM   18  O   UNL     1      27.402  43.683  50.574  1.00  0.00    -0.358 OA
HETATM   19  H   UNL     1      27.297  44.466  49.984  1.00  0.00     0.218 HD
ENDBRANCH   9  18
ENDBRANCH   1   8
BRANCH   1  20
HETATM   20  C   UNL     1      25.262  46.569  50.394  1.00  0.00    -0.031 A 
HETATM   21  C   UNL     1      24.115  47.230  49.925  1.00  0.00     0.010 A 
HETATM   22  C   UNL     1      24.220  48.409  49.184  1.00  0.00     0.007 A 
HETATM   23  C   UNL     1      25.474  48.956  48.893  1.00  0.00    -0.062 A 
HETATM   24  C   UNL     1      25.586  50.235  48.117  1.00  0.00     0.048 C 
HETATM   25  C   UNL     1      26.619  48.328  49.390  1.00  0.00     0.007 A 
HETATM   26  C   UNL     1      26.516  47.146  50.128  1.00  0.00     0.010 A 
ENDBRANCH   1  20
TORSDOF 5
ENDMDL
MODEL 5
REMARK VINA RESULT:      -7.9      2.219      6.685
REMARK  5 active torsions:
REMARK  status: ('A' for Active; 'I' for Inactive)
REMARK    1  A    between atoms: C_2  and  C_3 
REMARK       I    between atoms: C_3  and  N_4 
REMARK    2  A    between atoms: N_4  and  C_5 
REMARK    3  A    between atoms: C_5  and  C_6 
REMARK    4  A    between atoms: C_5  and  C_17 
REMARK    5  A    between atoms: C_7  and  O_8 
ROOT
HETATM    1  C   UNL     1      26.460  42.905  51.355  1.00  0.00     0.154 C 
ENDROOT
BRANCH   1   2
HETATM    2  N   UNL     1      26.084  44.221  50.843  1.00  0.00    -0.348 N 
HETATM    3  C   UNL     1      24.854  44.774  51.123  1.00  0.00     0.218 C 
HETATM    4  O   UNL     1      23.946  44.164  51.682  1.00  0.00    -0.274 OA
HETATM    5  H   UNL     1      26.842  44.875  50.712  1.00  0.00     0.163 HD
BRANCH   3   6
HETATM    6  C   UNL     1      24.728  46.239  50.757  1.00  0.00     0.098 C 
HETATM    7  C   UNL     1      25.867  47.094  51.282  1.00  0.00     0.014 C 
ENDBRANCH   3   6
ENDBRANCH   1   2
BRANCH   1   8
HETATM    8  C   UNL     1      26.729  41.901  50.240  1.00  0.00     0.005 A 
HETATM    9  C   UNL     1      26.621  40.513  50.475  1.00  0.00     0.103 A 
HETATM   10  C   UNL     1      26.904  39.534  49.508  1.00  0.00     0.100 A 
HETATM   11  C   UNL     1      27.296  39.987  48.233  1.00  0.00    -0.004 A 
HETATM   12  N   UNL     1      26.797  38.210  49.776  1.00  0.00    -0.257 NA
HETATM   13  C   UNL     1      27.379  41.362  47.960  1.00  0.00     0.014 A 
HETATM   14  C   UNL     1      27.594  39.035  47.246  1.00  0.00     0.015 A 
HETATM   15  C   UNL     1      27.090  42.304  48.948  1.00  0.00     0.013 A 
HETATM   16  C   UNL     1      27.494  37.681  47.534  1.00  0.00     0.020 A 
HETATM   17  C   UNL     1      27.092  37.322  48.804  1.00  0.00     0.117 A 
BRANCH   9  18
HETATM   18  O   UNL     1      26.189  40.089  51.715  1.00  0.00    -0.358 OA
HETATM   19  H   UNL     1      25.225  40.293  51.738  1.00  0.00     0.218 HD
ENDBRANCH   9  18
ENDBRANCH   1   8
BRANCH   1  20
HETATM   20  C   UNL     1      27.596  43.021  52.375  1.00  0.00    -0.031 A 
HETATM   21  C   UNL     1      27.363  43.691  53.586  1.00  0.00     0.010 A 
HETATM   22  C   UNL     1      28.382  43.846  54.528  1.00  0.00     0.007 A 
HETATM   23  C   UNL     1      29.660  43.333  54.282  1.00  0.00    -0.062 A 
HETATM   24  C   UNL     1      30.749  43.479  55.303  1.00  0.00     0.048 C 
HETATM   25  C   UNL     1      29.892  42.629  53.097  1.00  0.00     0.007 A 
HETATM   26  C   UNL     1      28.874  42.478  52.152  1.00  0.00     0.010 A 
ENDBRANCH   1  20
TORSDOF 5
ENDMDL
MODEL 6
REMARK VINA RESULT:      -7.9      2.152      2.804
REMARK  5 active torsions:
REMARK  status: ('A' for Active; 'I' for Inactive)
REMARK    1  A    between atoms: C_2  and  C_3 
REMARK       I    between atoms: C_3  and  N_4 
REMARK    2  A    between atoms: N_4  and  C_5 
REMARK    3  A    between atoms: C_5  and  C_6 
REMARK    4  A    between atoms: C_5  and  C_17 
REMARK    5  A    between atoms: C_7  and  O_8 
ROOT
HETATM    1  C   UNL     1      26.922  42.693  51.911  1.00  0.00     0.154 C 
ENDROOT
BRANCH   1   2
HETATM    2  N   UNL     1      27.845  41.979  51.032  1.00  0.00    -0.348 N 
HETATM    3  C   UNL     1      27.491  40.790  50.435  1.00  0.00     0.218 C 
HETATM    4  O   UNL     1      26.459  40.178  50.701  1.00  0.00    -0.274 OA
HETATM    5  H   UNL     1      28.496  42.554  50.518  1.00  0.00     0.163 HD
BRANCH   3   6
HETATM    6  C   UNL     1      28.440  40.327  49.349  1.00  0.00     0.098 C 
HETATM    7  C   UNL     1      28.063  40.817  47.963  1.00  0.00     0.014 C 
ENDBRANCH   3   6
ENDBRANCH   1   2
BRANCH   1   8
HETATM    8  C   UNL     1      27.645  43.490  52.992  1.00  0.00     0.005 A 
HETATM    9  C   UNL     1      28.755  42.943  53.672  1.00  0.00     0.103 A 
HETATM   10  C   UNL     1      29.433  43.602  54.712  1.00  0.00     0.100 A 
HETATM   11  C   UNL     1      28.976  44.887  55.064  1.00  0.00    -0.004 A 
HETATM   12  N   UNL     1      30.490  43.038  55.347  1.00  0.00    -0.257 NA
HETATM   13  C   UNL     1      27.896  45.469  54.381  1.00  0.00     0.014 A 
HETATM   14  C   UNL     1      29.626  45.568  56.103  1.00  0.00     0.015 A 
HETATM   15  C   UNL     1      27.246  44.783  53.354  1.00  0.00     0.013 A 
HETATM   16  C   UNL     1      30.699  44.978  56.756  1.00  0.00     0.020 A 
HETATM   17  C   UNL     1      31.092  43.722  56.343  1.00  0.00     0.117 A 
BRANCH   9  18
HETATM   18  O   UNL     1      29.220  41.704  53.282  1.00  0.00    -0.358 OA
HETATM   19  H   UNL     1      28.776  41.521  52.421  1.00  0.00     0.218 HD
ENDBRANCH   9  18
ENDBRANCH   1   8
BRANCH   1  20
HETATM   20  C   UNL     1      25.921  43.518  51.097  1.00  0.00    -0.031 A 
HETATM   21  C   UNL     1      26.400  44.394  50.109  1.00  0.00     0.010 A 
HETATM   22  C   UNL     1      25.521  45.187  49.367  1.00  0.00     0.007 A 
HETATM   23  C   UNL     1      24.143  45.122  49.594  1.00  0.00    -0.062 A 
HETATM   24  C   UNL     1      23.197  45.956  48.781  1.00  0.00     0.048 C 
HETATM   25  C   UNL     1      23.653  44.224  50.546  1.00  0.00     0.007 A 
HETATM   26  C   UNL     1      24.532  43.434  51.293  1.00  0.00     0.010 A 
ENDBRANCH   1  20
TORSDOF 5
ENDMDL
MODEL 7
REMARK VINA RESULT:      -7.8      2.089      6.544
REMARK  5 active torsions:
REMARK  status: ('A' for Active; 'I' for Inactive)
REMARK    1  A    between atoms: C_2  and  C_3 
REMARK       I    between atoms: C_3  and  N_4 
REMARK    2  A    between atoms: N_4  and  C_5 
REMARK    3  A    between atoms: C_5  and  C_6 
REMARK    4  A    between atoms: C_5  and  C_17 
REMARK    5  A    between atoms: C_7  and  O_8 
ROOT
HETATM    1  C   UNL     1      26.382  43.104  51.769  1.00  0.00     0.154 C 
ENDROOT
BRANCH   1   2
HETATM    2  N   UNL     1      26.053  44.375  51.129  1.00  0.00    -0.348 N 
HETATM    3  C   UNL     1      24.832  44.981  51.325  1.00  0.00     0.218 C 
HETATM    4  O   UNL     1      23.896  44.447  51.914  1.00  0.00    -0.274 OA
HETATM    5  H   UNL     1      26.831  44.996  50.958  1.00  0.00     0.163 HD
BRANCH   3   6
HETATM    6  C   UNL     1      24.754  46.409  50.823  1.00  0.00     0.098 C 
HETATM    7  C   UNL     1      26.061  47.170  50.956  1.00  0.00     0.014 C 
ENDBRANCH   3   6
ENDBRANCH   1   2
BRANCH   1   8
HETATM    8  C   UNL     1      26.569  41.975  50.762  1.00  0.00     0.005 A 
HETATM    9  C   UNL     1      26.964  42.248  49.434  1.00  0.00     0.103 A 
HETATM   10  C   UNL     1      27.104  41.262  48.444  1.00  0.00     0.100 A 
HETATM   11  C   UNL     1      26.852  39.929  48.826  1.00  0.00    -0.004 A 
HETATM   12  N   UNL     1      27.477  41.567  47.177  1.00  0.00    -0.257 NA
HETATM   13  C   UNL     1      26.492  39.624  50.148  1.00  0.00     0.014 A 
HETATM   14  C   UNL     1      26.976  38.920  47.859  1.00  0.00     0.015 A 
HETATM   15  C   UNL     1      26.361  40.633  51.103  1.00  0.00     0.013 A 
HETATM   16  C   UNL     1      27.345  39.244  46.560  1.00  0.00     0.020 A 
HETATM   17  C   UNL     1      27.585  40.571  46.272  1.00  0.00     0.117 A 
BRANCH   9  18
HETATM   18  O   UNL     1      27.253  43.554  49.091  1.00  0.00    -0.358 OA
HETATM   19  H   UNL     1      26.837  44.104  49.795  1.00  0.00     0.218 HD
ENDBRANCH   9  18
ENDBRANCH   1   8
BRANCH   1  20
HETATM   20  C   UNL     1      27.554  43.270  52.741  1.00  0.00    -0.031 A 
HETATM   21  C   UNL     1      28.789  42.679  52.430  1.00  0.00     0.010 A 
HETATM   22  C   UNL     1      29.874  42.780  53.305  1.00  0.00     0.007 A 
HETATM   23  C   UNL     1      29.749  43.475  54.513  1.00  0.00    -0.062 A 
HETATM   24  C   UNL     1      30.919  43.604  55.442  1.00  0.00     0.048 C 
HETATM   25  C   UNL     1      28.536  44.101  54.812  1.00  0.00     0.007 A 
HETATM   26  C   UNL     1      27.449  43.997  53.940  1.00  0.00     0.010 A 
ENDBRANCH   1  20
TORSDOF 5
ENDMDL
MODEL 8
REMARK VINA RESULT:      -7.7      1.622      2.097
REMARK  5 active torsions:
REMARK  status: ('A' for Active; 'I' for Inactive)
REMARK    1  A    between atoms: C_2  and  C_3 
REMARK       I    between atoms: C_3  and  N_4 
REMARK    2  A    between atoms: N_4  and  C_5 
REMARK    3  A    between atoms: C_5  and  C_6 
REMARK    4  A    between atoms: C_5  and  C_17 
REMARK    5  A    between atoms: C_7  and  O_8 
ROOT
HETATM    1  C   UNL     1      27.282  42.555  52.105  1.00  0.00     0.154 C 
ENDROOT
BRANCH   1   2
HETATM    2  N   UNL     1      27.943  41.710  51.114  1.00  0.00    -0.348 N 
HETATM    3  C   UNL     1      27.288  40.653  50.522  1.00  0.00     0.218 C 
HETATM    4  O   UNL     1      26.181  40.255  50.877  1.00  0.00    -0.274 OA
HETATM    5  H   UNL     1      28.649  42.162  50.551  1.00  0.00     0.163 HD
BRANCH   3   6
HETATM    6  C   UNL     1      28.009  40.058  49.330  1.00  0.00     0.098 C 
HETATM    7  C   UNL     1      28.602  38.687  49.603  1.00  0.00     0.014 C 
ENDBRANCH   3   6
ENDBRANCH   1   2
BRANCH   1   8
HETATM    8  C   UNL     1      28.245  43.063  53.173  1.00  0.00     0.005 A 
HETATM    9  C   UNL     1      27.828  44.016  54.128  1.00  0.00     0.103 A 
HETATM   10  C   UNL     1      28.676  44.563  55.105  1.00  0.00     0.100 A 
HETATM   11  C   UNL     1      30.008  44.104  55.127  1.00  0.00    -0.004 A 
HETATM   12  N   UNL     1      28.239  45.484  55.999  1.00  0.00    -0.257 NA
HETATM   13  C   UNL     1      30.441  43.131  54.212  1.00  0.00     0.014 A 
HETATM   14  C   UNL     1      30.884  44.636  56.085  1.00  0.00     0.015 A 
HETATM   15  C   UNL     1      29.568  42.613  53.255  1.00  0.00     0.013 A 
HETATM   16  C   UNL     1      30.431  45.588  56.988  1.00  0.00     0.020 A 
HETATM   17  C   UNL     1      29.110  45.975  56.906  1.00  0.00     0.117 A 
BRANCH   9  18
HETATM   18  O   UNL     1      26.507  44.418  54.121  1.00  0.00    -0.358 OA
HETATM   19  H   UNL     1      26.258  44.504  55.071  1.00  0.00     0.218 HD
ENDBRANCH   9  18
ENDBRANCH   1   8
BRANCH   1  20
HETATM   20  C   UNL     1      26.469  43.660  51.425  1.00  0.00    -0.031 A 
HETATM   21  C   UNL     1      27.139  44.637  50.672  1.00  0.00     0.010 A 
HETATM   22  C   UNL     1      26.437  45.679  50.062  1.00  0.00     0.007 A 
HETATM   23  C   UNL     1      25.047  45.770  50.191  1.00  0.00    -0.062 A 
HETATM   24  C   UNL     1      24.290  46.876  49.518  1.00  0.00     0.048 C 
HETATM   25  C   UNL     1      24.366  44.780  50.905  1.00  0.00     0.007 A 
HETATM   26  C   UNL     1      25.068  43.740  51.519  1.00  0.00     0.010 A 
ENDBRANCH   1  20
TORSDOF 5
ENDMDL
MODEL 9
REMARK VINA RESULT:      -7.7      7.033     10.708
REMARK  5 active torsions:
REMARK  status: ('A' for Active; 'I' for Inactive)
REMARK    1  A    between atoms: C_2  and  C_3 
REMARK       I    between atoms: C_3  and  N_4 
REMARK    2  A    between atoms: N_4  and  C_5 
REMARK    3  A    between atoms: C_5  and  C_6 
REMARK    4  A    between atoms: C_5  and  C_17 
REMARK    5  A    between atoms: C_7  and  O_8 
ROOT
HETATM    1  C   UNL     1      21.115  48.576  48.172  1.00  0.00     0.154 C 
ENDROOT
BRANCH   1   2
HETATM    2  N   UNL     1      20.895  47.277  48.802  1.00  0.00    -0.348 N 
HETATM    3  C   UNL     1      20.474  46.188  48.071  1.00  0.00     0.218 C 
HETATM    4  O   UNL     1      20.118  46.255  46.897  1.00  0.00    -0.274 OA
HETATM    5  H   UNL     1      21.474  47.072  49.603  1.00  0.00     0.163 HD
BRANCH   3   6
HETATM    6  C   UNL     1      20.562  44.867  48.808  1.00  0.00     0.098 C 
HETATM    7  C   UNL     1      21.982  44.460  49.156  1.00  0.00     0.014 C 
ENDBRANCH   3   6
ENDBRANCH   1   2
BRANCH   1   8
HETATM    8  C   UNL     1      20.148  49.641  48.680  1.00  0.00     0.005 A 
HETATM    9  C   UNL     1      18.797  49.646  48.271  1.00  0.00     0.103 A 
HETATM   10  C   UNL     1      17.869  50.626  48.660  1.00  0.00     0.100 A 
HETATM   11  C   UNL     1      18.329  51.639  49.524  1.00  0.00    -0.004 A 
HETATM   12  N   UNL     1      16.581  50.600  48.237  1.00  0.00    -0.257 NA
HETATM   13  C   UNL     1      19.658  51.640  49.975  1.00  0.00     0.014 A 
HETATM   14  C   UNL     1      17.429  52.638  49.925  1.00  0.00     0.015 A 
HETATM   15  C   UNL     1      20.552  50.649  49.565  1.00  0.00     0.013 A 
HETATM   16  C   UNL     1      16.115  52.610  49.477  1.00  0.00     0.020 A 
HETATM   17  C   UNL     1      15.742  51.577  48.642  1.00  0.00     0.117 A 
BRANCH   9  18
HETATM   18  O   UNL     1      18.352  48.619  47.463  1.00  0.00    -0.358 OA
HETATM   19  H   UNL     1      17.712  49.038  46.841  1.00  0.00     0.218 HD
ENDBRANCH   9  18
ENDBRANCH   1   8
BRANCH   1  20
HETATM   20  C   UNL     1      22.589  48.983  48.260  1.00  0.00    -0.031 A 
HETATM   21  C   UNL     1      23.469  48.201  49.024  1.00  0.00     0.010 A 
HETATM   22  C   UNL     1      24.814  48.556  49.155  1.00  0.00     0.007 A 
HETATM   23  C   UNL     1      25.311  49.700  48.523  1.00  0.00    -0.062 A 
HETATM   24  C   UNL     1      26.760  50.069  48.644  1.00  0.00     0.048 C 
HETATM   25  C   UNL     1      24.452  50.463  47.726  1.00  0.00     0.007 A 
HETATM   26  C   UNL     1      23.105  50.111  47.599  1.00  0.00     0.010 A 
ENDBRANCH   1  20
TORSDOF 5
ENDMDL
MODEL 10
REMARK VINA RESULT:      -7.7      1.573      2.059
REMARK  5 active torsions:
REMARK  status: ('A' for Active; 'I' for Inactive)
REMARK    1  A    between atoms: C_2  and  C_3 
REMARK       I    between atoms: C_3  and  N_4 
REMARK    2  A    between atoms: N_4  and  C_5 
REMARK    3  A    between atoms: C_5  and  C_6 
REMARK    4  A    between atoms: C_5  and  C_17 
REMARK    5  A    between atoms: C_7  and  O_8 
ROOT
HETATM    1  C   UNL     1      26.938  44.027  52.400  1.00  0.00     0.154 C 
ENDROOT
BRANCH   1   2
HETATM    2  N   UNL     1      27.565  43.033  51.532  1.00  0.00    -0.348 N 
HETATM    3  C   UNL     1      26.814  42.110  50.839  1.00  0.00     0.218 C 
HETATM    4  O   UNL     1      25.606  41.956  51.004  1.00  0.00    -0.274 OA
HETATM    5  H   UNL     1      28.431  43.314  51.095  1.00  0.00     0.163 HD
BRANCH   3   6
HETATM    6  C   UNL     1      27.582  41.342  49.784  1.00  0.00     0.098 C 
HETATM    7  C   UNL     1      28.259  40.092  50.317  1.00  0.00     0.014 C 
ENDBRANCH   3   6
ENDBRANCH   1   2
BRANCH   1   8
HETATM    8  C   UNL     1      27.837  44.438  53.561  1.00  0.00     0.005 A 
HETATM    9  C   UNL     1      28.819  43.556  54.062  1.00  0.00     0.103 A 
HETATM   10  C   UNL     1      29.644  43.852  55.160  1.00  0.00     0.100 A 
HETATM   11  C   UNL     1      29.479  45.113  55.766  1.00  0.00    -0.004 A 
HETATM   12  N   UNL     1      30.570  42.973  55.617  1.00  0.00    -0.257 NA
HETATM   13  C   UNL     1      28.534  46.023  55.267  1.00  0.00     0.014 A 
HETATM   14  C   UNL     1      30.282  45.437  56.870  1.00  0.00     0.015 A 
HETATM   15  C   UNL     1      27.731  45.692  54.174  1.00  0.00     0.013 A 
HETATM   16  C   UNL     1      31.219  44.526  57.339  1.00  0.00     0.020 A 
HETATM   17  C   UNL     1      31.325  43.317  56.682  1.00  0.00     0.117 A 
BRANCH   9  18
HETATM   18  O   UNL     1      29.000  42.344  53.426  1.00  0.00    -0.358 OA
HETATM   19  H   UNL     1      29.264  42.573  52.504  1.00  0.00     0.218 HD
ENDBRANCH   9  18
ENDBRANCH   1   8
BRANCH   1  20
HETATM   20  C   UNL     1      26.403  45.205  51.581  1.00  0.00    -0.031 A 
HETATM   21  C   UNL     1      27.066  45.575  50.401  1.00  0.00     0.010 A 
HETATM   22  C   UNL     1      26.628  46.664  49.643  1.00  0.00     0.007 A 
HETATM   23  C   UNL     1      25.515  47.409  50.047  1.00  0.00    -0.062 A 
HETATM   24  C   UNL     1      25.031  48.563  49.222  1.00  0.00     0.048 C 
HETATM   25  C   UNL     1      24.824  47.024  51.200  1.00  0.00     0.007 A 
HETATM   26  C   UNL     1      25.264  45.938  51.961  1.00  0.00     0.010 A 
ENDBRANCH   1  20
TORSDOF 5
ENDMDL
