MODEL 1
REMARK VINA RESULT:      -9.7      0.000      0.000
REMARK  12 active torsions:
REMARK  status: ('A' for Active; 'I' for Inactive)
REMARK    1  A    between atoms: C_2  and  N_3 
REMARK    2  A    between atoms: N_3  and  C_5 
REMARK    3  A    between atoms: N_3  and  C_39 
REMARK    4  A    between atoms: C_5  and  C_6 
REMARK    5  A    between atoms: N_7  and  C_8 
REMARK    6  A    between atoms: C_12  and  N_13 
REMARK    7  A    between atoms: C_16  and  C_17 
REMARK       I    between atoms: C_17  and  N_18 
REMARK    8  A    between atoms: N_18  and  N_19 
REMARK    9  A    between atoms: C_20  and  C_21 
REMARK   10  A    between atoms: C_22  and  O_23 
REMARK   11  A    between atoms: O_23  and  C_24 
REMARK   12  A    between atoms: C_24  and  C_25 
ROOT
HETATM    1  C   UNL     1      24.623  47.436  50.173  1.00  0.00     0.294 C 
HETATM    2  N   UNL     1      25.645  47.000  50.998  1.00  0.00    -0.242 N 
HETATM    3  O   UNL     1      24.433  48.636  49.997  1.00  0.00    -0.264 OA
HETATM    4  H   UNL     1      26.295  47.713  51.320  1.00  0.00     0.192 HD
ENDROOT
BRANCH   1   5
HETATM    5  C   UNL     1      23.798  46.425  49.530  1.00  0.00     0.176 C 
HETATM    6  C   UNL     1      22.634  46.570  48.782  1.00  0.00     0.102 C 
HETATM    7  N   UNL     1      22.232  45.253  48.539  1.00  0.00    -0.191 N 
HETATM    8  N   UNL     1      23.240  44.420  48.905  1.00  0.00    -0.058 NA
HETATM    9  N   UNL     1      24.174  45.114  49.524  1.00  0.00    -0.124 NA
BRANCH   6  10
HETATM   10  C   UNL     1      21.924  47.801  48.369  1.00  0.00     0.296 C 
BRANCH  10  11
HETATM   11  N   UNL     1      21.206  48.556  49.496  1.00  0.00    -0.066 N 
HETATM   12  H   UNL     1      21.669  48.206  50.345  1.00  0.00     0.280 HD
BRANCH  11  13
HETATM   13  C   UNL     1      19.738  48.216  49.639  1.00  0.00     0.231 C 
HETATM   14  C   UNL     1      19.013  49.317  50.394  1.00  0.00     0.034 C 
ENDBRANCH  11  13
BRANCH  11  15
HETATM   15  C   UNL     1      21.494  50.046  49.483  1.00  0.00     0.231 C 
HETATM   16  C   UNL     1      22.087  50.481  48.153  1.00  0.00     0.034 C 
ENDBRANCH  11  15
ENDBRANCH  10  11
ENDBRANCH   6  10
BRANCH   7  17
HETATM   17  C   UNL     1      21.035  44.747  47.979  1.00  0.00     0.229 A 
HETATM   18  N   UNL     1      19.870  44.906  48.606  1.00  0.00    -0.081 NA
HETATM   19  O   UNL     1      18.949  44.272  47.769  1.00  0.00    -0.103 OA
HETATM   20  N   UNL     1      19.567  43.770  46.632  1.00  0.00    -0.083 NA
HETATM   21  C   UNL     1      20.861  44.055  46.765  1.00  0.00     0.201 A 
BRANCH  21  22
HETATM   22  N   UNL     1      21.805  43.749  45.861  1.00  0.00    -0.379 N 
HETATM   23  H   UNL     1      22.536  44.423  45.646  1.00  0.00     0.158 HD
HETATM   24  H   UNL     1      21.666  43.044  45.139  1.00  0.00     0.158 HD
ENDBRANCH  21  22
ENDBRANCH   7  17
ENDBRANCH   1   5
BRANCH   2  25
HETATM   25  N   UNL     1      25.780  45.709  51.407  1.00  0.00    -0.183 NA
HETATM   26  C   UNL     1      26.978  45.367  51.761  1.00  0.00     0.153 C 
BRANCH  26  27
HETATM   27  C   UNL     1      27.258  44.026  52.297  1.00  0.00     0.018 A 
HETATM   28  C   UNL     1      27.388  43.777  53.672  1.00  0.00     0.081 A 
HETATM   29  C   UNL     1      27.574  42.469  54.125  1.00  0.00     0.039 A 
HETATM   30  C   UNL     1      27.691  41.423  53.207  1.00  0.00     0.026 A 
HETATM   31  C   UNL     1      27.610  41.685  51.839  1.00  0.00     0.035 A 
HETATM   32 CL   UNL     1      27.767  40.397  50.713  1.00  0.00    -0.084 Cl
HETATM   33  C   UNL     1      27.395  42.983  51.376  1.00  0.00     0.039 A 
BRANCH  28  34
HETATM   34  O   UNL     1      27.360  44.768  54.622  1.00  0.00    -0.346 OA
BRANCH  34  35
HETATM   35  C   UNL     1      28.580  45.528  54.572  1.00  0.00     0.219 C 
BRANCH  35  36
HETATM   36  C   UNL     1      29.394  45.243  55.805  1.00  0.00     0.026 A 
HETATM   37  C   UNL     1      30.410  44.277  55.837  1.00  0.00     0.045 A 
HETATM   38 CL   UNL     1      30.780  43.298  54.464  1.00  0.00    -0.084 Cl
HETATM   39  C   UNL     1      31.168  44.074  56.997  1.00  0.00     0.024 A 
HETATM   40  C   UNL     1      30.925  44.832  58.141  1.00  0.00     0.005 A 
HETATM   41  C   UNL     1      29.909  45.780  58.131  1.00  0.00     0.043 A 
HETATM   42  C   UNL     1      29.150  45.967  56.977  1.00  0.00     0.126 A 
HETATM   43  F   UNL     1      28.144  46.853  57.019  1.00  0.00    -0.205 F 
ENDBRANCH  35  36
ENDBRANCH  34  35
ENDBRANCH  28  34
ENDBRANCH  26  27
ENDBRANCH   2  25
TORSDOF 12
ENDMDL
MODEL 2
REMARK VINA RESULT:      -9.5      2.457      3.184
REMARK  12 active torsions:
REMARK  status: ('A' for Active; 'I' for Inactive)
REMARK    1  A    between atoms: C_2  and  N_3 
REMARK    2  A    between atoms: N_3  and  C_5 
REMARK    3  A    between atoms: N_3  and  C_39 
REMARK    4  A    between atoms: C_5  and  C_6 
REMARK    5  A    between atoms: N_7  and  C_8 
REMARK    6  A    between atoms: C_12  and  N_13 
REMARK    7  A    between atoms: C_16  and  C_17 
REMARK       I    between atoms: C_17  and  N_18 
REMARK    8  A    between atoms: N_18  and  N_19 
REMARK    9  A    between atoms: C_20  and  C_21 
REMARK   10  A    between atoms: C_22  and  O_23 
REMARK   11  A    between atoms: O_23  and  C_24 
REMARK   12  A    between atoms: C_24  and  C_25 
ROOT
HETATM    1  C   UNL     1      22.889  48.808  49.451  1.00  0.00     0.294 C 
HETATM    2  N   UNL     1      23.962  48.130  49.999  1.00  0.00    -0.242 N 
HETATM    3  O   UNL     1      22.699  49.992  49.714  1.00  0.00    -0.264 OA
HETATM    4  H   UNL     1      24.641  48.697  50.500  1.00  0.00     0.192 HD
ENDROOT
BRANCH   1   5
HETATM    5  C   UNL     1      22.008  48.068  48.559  1.00  0.00     0.176 C 
HETATM    6  C   UNL     1      20.634  47.861  48.635  1.00  0.00     0.102 C 
HETATM    7  N   UNL     1      20.376  46.979  47.582  1.00  0.00    -0.191 N 
HETATM    8  N   UNL     1      21.487  46.897  46.805  1.00  0.00    -0.058 NA
HETATM    9  N   UNL     1      22.480  47.529  47.399  1.00  0.00    -0.124 NA
BRANCH   6  10
HETATM   10  C   UNL     1      19.653  48.382  49.613  1.00  0.00     0.296 C 
BRANCH  10  11
HETATM   11  N   UNL     1      18.729  49.490  49.092  1.00  0.00    -0.066 N 
HETATM   12  H   UNL     1      19.125  49.711  48.169  1.00  0.00     0.280 HD
BRANCH  11  13
HETATM   13  C   UNL     1      18.776  50.772  49.895  1.00  0.00     0.231 C 
HETATM   14  C   UNL     1      19.414  51.883  49.078  1.00  0.00     0.034 C 
ENDBRANCH  11  13
BRANCH  11  15
HETATM   15  C   UNL     1      17.323  48.997  48.803  1.00  0.00     0.231 C 
HETATM   16  C   UNL     1      16.741  49.680  47.578  1.00  0.00     0.034 C 
ENDBRANCH  11  15
ENDBRANCH  10  11
ENDBRANCH   6  10
BRANCH   7  17
HETATM   17  C   UNL     1      19.199  46.268  47.248  1.00  0.00     0.229 A 
HETATM   18  N   UNL     1      18.759  45.277  48.024  1.00  0.00    -0.081 NA
HETATM   19  O   UNL     1      17.612  44.823  47.371  1.00  0.00    -0.103 OA
HETATM   20  N   UNL     1      17.357  45.568  46.228  1.00  0.00    -0.083 NA
HETATM   21  C   UNL     1      18.345  46.457  46.145  1.00  0.00     0.201 A 
BRANCH  21  22
HETATM   22  N   UNL     1      18.457  47.384  45.179  1.00  0.00    -0.379 N 
HETATM   23  H   UNL     1      17.857  47.334  44.360  1.00  0.00     0.158 HD
HETATM   24  H   UNL     1      19.305  47.933  45.041  1.00  0.00     0.158 HD
ENDBRANCH  21  22
ENDBRANCH   7  17
ENDBRANCH   1   5
BRANCH   2  25
HETATM   25  N   UNL     1      24.113  46.779  49.928  1.00  0.00    -0.183 NA
HETATM   26  C   UNL     1      25.107  46.300  50.606  1.00  0.00     0.153 C 
BRANCH  26  27
HETATM   27  C   UNL     1      25.346  44.851  50.683  1.00  0.00     0.018 A 
HETATM   28  C   UNL     1      26.199  44.278  51.639  1.00  0.00     0.081 A 
HETATM   29  C   UNL     1      26.323  42.889  51.713  1.00  0.00     0.039 A 
HETATM   30  C   UNL     1      25.647  42.078  50.799  1.00  0.00     0.026 A 
HETATM   31  C   UNL     1      24.840  42.657  49.820  1.00  0.00     0.035 A 
HETATM   32 CL   UNL     1      24.019  41.656  48.689  1.00  0.00    -0.084 Cl
HETATM   33  C   UNL     1      24.684  44.041  49.755  1.00  0.00     0.039 A 
BRANCH  28  34
HETATM   34  O   UNL     1      26.952  45.020  52.516  1.00  0.00    -0.346 OA
BRANCH  34  35
HETATM   35  C   UNL     1      26.838  44.474  53.841  1.00  0.00     0.219 C 
BRANCH  35  36
HETATM   36  C   UNL     1      28.184  44.515  54.513  1.00  0.00     0.026 A 
HETATM   37  C   UNL     1      28.675  45.658  55.159  1.00  0.00     0.045 A 
HETATM   38 CL   UNL     1      27.786  47.138  55.197  1.00  0.00    -0.084 Cl
HETATM   39  C   UNL     1      29.918  45.637  55.804  1.00  0.00     0.024 A 
HETATM   40  C   UNL     1      30.688  44.475  55.816  1.00  0.00     0.005 A 
HETATM   41  C   UNL     1      30.223  43.339  55.164  1.00  0.00     0.043 A 
HETATM   42  C   UNL     1      28.992  43.373  54.513  1.00  0.00     0.126 A 
HETATM   43  F   UNL     1      28.598  42.275  53.849  1.00  0.00    -0.205 F 
ENDBRANCH  35  36
ENDBRANCH  34  35
ENDBRANCH  28  34
ENDBRANCH  26  27
ENDBRANCH   2  25
TORSDOF 12
ENDMDL
MODEL 3
REMARK VINA RESULT:      -9.2      3.987      9.480
REMARK  12 active torsions:
REMARK  status: ('A' for Active; 'I' for Inactive)
REMARK    1  A    between atoms: C_2  and  N_3 
REMARK    2  A    between atoms: N_3  and  C_5 
REMARK    3  A    between atoms: N_3  and  C_39 
REMARK    4  A    between atoms: C_5  and  C_6 
REMARK    5  A    between atoms: N_7  and  C_8 
REMARK    6  A    between atoms: C_12  and  N_13 
REMARK    7  A    between atoms: C_16  and  C_17 
REMARK       I    between atoms: C_17  and  N_18 
REMARK    8  A    between atoms: N_18  and  N_19 
REMARK    9  A    between atoms: C_20  and  C_21 
REMARK   10  A    between atoms: C_22  and  O_23 
REMARK   11  A    between atoms: O_23  and  C_24 
REMARK   12  A    between atoms: C_24  and  C_25 
ROOT
HETATM    1  C   UNL     1      25.864  47.388  50.320  1.00  0.00     0.294 C 
HETATM    2  N   UNL     1      24.527  47.554  50.009  1.00  0.00    -0.242 N 
HETATM    3  O   UNL     1      26.579  48.362  50.537  1.00  0.00    -0.264 OA
HETATM    4  H   UNL     1      24.156  48.495  50.113  1.00  0.00     0.192 HD
ENDROOT
BRANCH   1   5
HETATM    5  C   UNL     1      26.379  46.028  50.380  1.00  0.00     0.176 C 
HETATM    6  C   UNL     1      26.497  45.169  51.468  1.00  0.00     0.102 C 
HETATM    7  N   UNL     1      27.169  44.062  50.942  1.00  0.00    -0.191 N 
HETATM    8  N   UNL     1      27.200  44.178  49.589  1.00  0.00    -0.058 NA
HETATM    9  N   UNL     1      26.749  45.368  49.246  1.00  0.00    -0.124 NA
BRANCH   6  10
HETATM   10  C   UNL     1      26.079  45.363  52.875  1.00  0.00     0.296 C 
BRANCH  10  11
HETATM   11  N   UNL     1      26.844  46.446  53.646  1.00  0.00    -0.066 N 
HETATM   12  H   UNL     1      27.420  46.889  52.917  1.00  0.00     0.280 HD
BRANCH  11  13
HETATM   13  C   UNL     1      27.806  45.912  54.685  1.00  0.00     0.231 C 
HETATM   14  C   UNL     1      27.440  44.486  55.059  1.00  0.00     0.034 C 
ENDBRANCH  11  13
BRANCH  11  15
HETATM   15  C   UNL     1      25.941  47.556  54.154  1.00  0.00     0.231 C 
HETATM   16  C   UNL     1      26.544  48.242  55.369  1.00  0.00     0.034 C 
ENDBRANCH  11  15
ENDBRANCH  10  11
ENDBRANCH   6  10
BRANCH   7  17
HETATM   17  C   UNL     1      27.728  42.934  51.589  1.00  0.00     0.229 A 
HETATM   18  N   UNL     1      28.881  43.032  52.252  1.00  0.00    -0.081 NA
HETATM   19  O   UNL     1      29.106  41.738  52.726  1.00  0.00    -0.103 OA
HETATM   20  N   UNL     1      28.069  40.886  52.372  1.00  0.00    -0.083 NA
HETATM   21  C   UNL     1      27.220  41.624  51.658  1.00  0.00     0.201 A 
BRANCH  21  22
HETATM   22  N   UNL     1      26.068  41.170  51.139  1.00  0.00    -0.379 N 
HETATM   23  H   UNL     1      25.401  41.826  50.739  1.00  0.00     0.158 HD
HETATM   24  H   UNL     1      25.660  40.274  51.405  1.00  0.00     0.158 HD
ENDBRANCH  21  22
ENDBRANCH   7  17
ENDBRANCH   1   5
BRANCH   2  25
HETATM   25  N   UNL     1      23.733  46.548  49.548  1.00  0.00    -0.183 NA
HETATM   26  C   UNL     1      22.844  46.905  48.677  1.00  0.00     0.153 C 
BRANCH  26  27
HETATM   27  C   UNL     1      21.967  45.913  48.036  1.00  0.00     0.018 A 
HETATM   28  C   UNL     1      20.571  46.057  47.996  1.00  0.00     0.081 A 
HETATM   29  C   UNL     1      19.798  45.122  47.305  1.00  0.00     0.039 A 
HETATM   30  C   UNL     1      20.408  44.017  46.707  1.00  0.00     0.026 A 
HETATM   31  C   UNL     1      21.791  43.855  46.793  1.00  0.00     0.035 A 
HETATM   32 CL   UNL     1      22.536  42.487  46.067  1.00  0.00    -0.084 Cl
HETATM   33  C   UNL     1      22.576  44.797  47.456  1.00  0.00     0.039 A 
BRANCH  28  34
HETATM   34  O   UNL     1      19.901  47.076  48.628  1.00  0.00    -0.346 OA
BRANCH  34  35
HETATM   35  C   UNL     1      19.573  48.107  47.681  1.00  0.00     0.219 C 
BRANCH  35  36
HETATM   36  C   UNL     1      19.371  49.407  48.411  1.00  0.00     0.026 A 
HETATM   37  C   UNL     1      20.311  50.447  48.385  1.00  0.00     0.045 A 
HETATM   38 CL   UNL     1      21.809  50.300  47.540  1.00  0.00    -0.084 Cl
HETATM   39  C   UNL     1      20.060  51.655  49.048  1.00  0.00     0.024 A 
HETATM   40  C   UNL     1      18.869  51.843  49.747  1.00  0.00     0.005 A 
HETATM   41  C   UNL     1      17.936  50.814  49.799  1.00  0.00     0.043 A 
HETATM   42  C   UNL     1      18.199  49.611  49.147  1.00  0.00     0.126 A 
HETATM   43  F   UNL     1      17.300  48.621  49.262  1.00  0.00    -0.205 F 
ENDBRANCH  35  36
ENDBRANCH  34  35
ENDBRANCH  28  34
ENDBRANCH  26  27
ENDBRANCH   2  25
TORSDOF 12
ENDMDL
MODEL 4
REMARK VINA RESULT:      -8.8     14.394     15.579
REMARK  12 active torsions:
REMARK  status: ('A' for Active; 'I' for Inactive)
REMARK    1  A    between atoms: C_2  and  N_3 
REMARK    2  A    between atoms: N_3  and  C_5 
REMARK    3  A    between atoms: N_3  and  C_39 
REMARK    4  A    between atoms: C_5  and  C_6 
REMARK    5  A    between atoms: N_7  and  C_8 
REMARK    6  A    between atoms: C_12  and  N_13 
REMARK    7  A    between atoms: C_16  and  C_17 
REMARK       I    between atoms: C_17  and  N_18 
REMARK    8  A    between atoms: N_18  and  N_19 
REMARK    9  A    between atoms: C_20  and  C_21 
REMARK   10  A    between atoms: C_22  and  O_23 
REMARK   11  A    between atoms: O_23  and  C_24 
REMARK   12  A    between atoms: C_24  and  C_25 
ROOT
HETATM    1  C   UNL     1      32.708  51.524  43.701  1.00  0.00     0.294 C 
HETATM    2  N   UNL     1      34.075  51.725  43.654  1.00  0.00    -0.242 N 
HETATM    3  O   UNL     1      32.178  51.071  44.711  1.00  0.00    -0.264 OA
HETATM    4  H   UNL     1      34.575  51.612  44.532  1.00  0.00     0.192 HD
ENDROOT
BRANCH   1   5
HETATM    5  C   UNL     1      31.934  51.873  42.518  1.00  0.00     0.176 C 
HETATM    6  C   UNL     1      31.555  51.083  41.438  1.00  0.00     0.102 C 
HETATM    7  N   UNL     1      30.945  51.988  40.565  1.00  0.00    -0.191 N 
HETATM    8  N   UNL     1      30.761  53.163  41.222  1.00  0.00    -0.058 NA
HETATM    9  N   UNL     1      31.375  53.110  42.387  1.00  0.00    -0.124 NA
BRANCH   6  10
HETATM   10  C   UNL     1      31.776  49.638  41.201  1.00  0.00     0.296 C 
BRANCH  10  11
HETATM   11  N   UNL     1      30.517  48.763  41.251  1.00  0.00    -0.066 N 
HETATM   12  H   UNL     1      30.873  47.860  41.593  1.00  0.00     0.280 HD
BRANCH  11  13
HETATM   13  C   UNL     1      29.889  48.492  39.901  1.00  0.00     0.231 C 
HETATM   14  C   UNL     1      30.935  47.978  38.927  1.00  0.00     0.034 C 
ENDBRANCH  11  13
BRANCH  11  15
HETATM   15  C   UNL     1      29.528  49.215  42.311  1.00  0.00     0.231 C 
HETATM   16  C   UNL     1      28.140  49.402  41.723  1.00  0.00     0.034 C 
ENDBRANCH  11  15
ENDBRANCH  10  11
ENDBRANCH   6  10
BRANCH   7  17
HETATM   17  C   UNL     1      30.508  51.824  39.229  1.00  0.00     0.229 A 
HETATM   18  N   UNL     1      31.375  51.529  38.261  1.00  0.00    -0.081 NA
HETATM   19  O   UNL     1      30.586  51.465  37.111  1.00  0.00    -0.103 OA
HETATM   20  N   UNL     1      29.249  51.689  37.407  1.00  0.00    -0.083 NA
HETATM   21  C   UNL     1      29.200  51.921  38.718  1.00  0.00     0.201 A 
BRANCH  21  22
HETATM   22  N   UNL     1      28.074  52.169  39.406  1.00  0.00    -0.379 N 
HETATM   23  H   UNL     1      28.126  52.381  40.399  1.00  0.00     0.158 HD
HETATM   24  H   UNL     1      27.159  51.842  39.099  1.00  0.00     0.158 HD
ENDBRANCH  21  22
ENDBRANCH   7  17
ENDBRANCH   1   5
BRANCH   2  25
HETATM   25  N   UNL     1      34.753  52.016  42.509  1.00  0.00    -0.183 NA
HETATM   26  C   UNL     1      36.016  52.258  42.665  1.00  0.00     0.153 C 
BRANCH  26  27
HETATM   27  C   UNL     1      36.888  52.513  41.508  1.00  0.00     0.018 A 
HETATM   28  C   UNL     1      37.663  53.677  41.393  1.00  0.00     0.081 A 
HETATM   29  C   UNL     1      38.532  53.826  40.310  1.00  0.00     0.039 A 
HETATM   30  C   UNL     1      38.584  52.846  39.317  1.00  0.00     0.026 A 
HETATM   31  C   UNL     1      37.774  51.714  39.413  1.00  0.00     0.035 A 
HETATM   32 CL   UNL     1      37.831  50.516  38.183  1.00  0.00    -0.084 Cl
HETATM   33  C   UNL     1      36.924  51.540  40.505  1.00  0.00     0.039 A 
BRANCH  28  34
HETATM   34  O   UNL     1      37.603  54.714  42.292  1.00  0.00    -0.346 OA
BRANCH  34  35
HETATM   35  C   UNL     1      38.876  54.871  42.942  1.00  0.00     0.219 C 
BRANCH  35  36
HETATM   36  C   UNL     1      38.794  54.307  44.335  1.00  0.00     0.026 A 
HETATM   37  C   UNL     1      39.264  53.027  44.664  1.00  0.00     0.045 A 
HETATM   38 CL   UNL     1      39.939  51.971  43.478  1.00  0.00    -0.084 Cl
HETATM   39  C   UNL     1      39.203  52.560  45.984  1.00  0.00     0.024 A 
HETATM   40  C   UNL     1      38.674  53.362  46.993  1.00  0.00     0.005 A 
HETATM   41  C   UNL     1      38.186  54.626  46.679  1.00  0.00     0.043 A 
HETATM   42  C   UNL     1      38.239  55.078  45.362  1.00  0.00     0.126 A 
HETATM   43  F   UNL     1      37.711  56.280  45.085  1.00  0.00    -0.205 F 
ENDBRANCH  35  36
ENDBRANCH  34  35
ENDBRANCH  28  34
ENDBRANCH  26  27
ENDBRANCH   2  25
TORSDOF 12
ENDMDL
MODEL 5
REMARK VINA RESULT:      -8.8      5.360      7.567
REMARK  12 active torsions:
REMARK  status: ('A' for Active; 'I' for Inactive)
REMARK    1  A    between atoms: C_2  and  N_3 
REMARK    2  A    between atoms: N_3  and  C_5 
REMARK    3  A    between atoms: N_3  and  C_39 
REMARK    4  A    between atoms: C_5  and  C_6 
REMARK    5  A    between atoms: N_7  and  C_8 
REMARK    6  A    between atoms: C_12  and  N_13 
REMARK    7  A    between atoms: C_16  and  C_17 
REMARK       I    between atoms: C_17  and  N_18 
REMARK    8  A    between atoms: N_18  and  N_19 
REMARK    9  A    between atoms: C_20  and  C_21 
REMARK   10  A    between atoms: C_22  and  O_23 
REMARK   11  A    between atoms: O_23  and  C_24 
REMARK   12  A    between atoms: C_24  and  C_25 
ROOT
HETATM    1  C   UNL     1      28.556  38.928  49.325  1.00  0.00     0.294 C 
HETATM    2  N   UNL     1      27.676  39.172  50.364  1.00  0.00    -0.242 N 
HETATM    3  O   UNL     1      29.498  38.156  49.474  1.00  0.00    -0.264 OA
HETATM    4  H   UNL     1      27.775  38.577  51.183  1.00  0.00     0.192 HD
ENDROOT
BRANCH   1   5
HETATM    5  C   UNL     1      28.317  39.616  48.064  1.00  0.00     0.176 C 
HETATM    6  C   UNL     1      27.631  39.187  46.933  1.00  0.00     0.102 C 
HETATM    7  N   UNL     1      27.843  40.214  46.009  1.00  0.00    -0.191 N 
HETATM    8  N   UNL     1      28.395  41.271  46.659  1.00  0.00    -0.058 NA
HETATM    9  N   UNL     1      28.706  40.911  47.888  1.00  0.00    -0.124 NA
BRANCH   6  10
HETATM   10  C   UNL     1      26.890  37.927  46.698  1.00  0.00     0.296 C 
BRANCH  10  11
HETATM   11  N   UNL     1      25.447  37.904  47.220  1.00  0.00    -0.066 N 
HETATM   12  H   UNL     1      25.532  38.311  48.161  1.00  0.00     0.280 HD
BRANCH  11  13
HETATM   13  C   UNL     1      24.870  36.517  47.404  1.00  0.00     0.231 C 
HETATM   14  C   UNL     1      24.410  35.957  46.070  1.00  0.00     0.034 C 
ENDBRANCH  11  13
BRANCH  11  15
HETATM   15  C   UNL     1      24.534  38.856  46.468  1.00  0.00     0.231 C 
HETATM   16  C   UNL     1      24.169  40.059  47.322  1.00  0.00     0.034 C 
ENDBRANCH  11  15
ENDBRANCH  10  11
ENDBRANCH   6  10
BRANCH   7  17
HETATM   17  C   UNL     1      27.544  40.284  44.628  1.00  0.00     0.229 A 
HETATM   18  N   UNL     1      28.207  39.532  43.749  1.00  0.00    -0.081 NA
HETATM   19  O   UNL     1      27.651  39.885  42.518  1.00  0.00    -0.103 OA
HETATM   20  N   UNL     1      26.637  40.820  42.675  1.00  0.00    -0.083 NA
HETATM   21  C   UNL     1      26.576  41.075  43.981  1.00  0.00     0.201 A 
BRANCH  21  22
HETATM   22  N   UNL     1      25.705  41.923  44.551  1.00  0.00    -0.379 N 
HETATM   23  H   UNL     1      25.045  42.434  43.971  1.00  0.00     0.158 HD
HETATM   24  H   UNL     1      25.866  42.342  45.466  1.00  0.00     0.158 HD
ENDBRANCH  21  22
ENDBRANCH   7  17
ENDBRANCH   1   5
BRANCH   2  25
HETATM   25  N   UNL     1      26.747  40.166  50.344  1.00  0.00    -0.183 NA
HETATM   26  C   UNL     1      27.036  41.203  51.064  1.00  0.00     0.153 C 
BRANCH  26  27
HETATM   27  C   UNL     1      26.161  42.385  51.079  1.00  0.00     0.018 A 
HETATM   28  C   UNL     1      26.524  43.583  51.714  1.00  0.00     0.081 A 
HETATM   29  C   UNL     1      25.686  44.697  51.626  1.00  0.00     0.039 A 
HETATM   30  C   UNL     1      24.464  44.598  50.958  1.00  0.00     0.026 A 
HETATM   31  C   UNL     1      24.087  43.390  50.371  1.00  0.00     0.035 A 
HETATM   32 CL   UNL     1      22.576  43.270  49.561  1.00  0.00    -0.084 Cl
HETATM   33  C   UNL     1      24.928  42.280  50.427  1.00  0.00     0.039 A 
BRANCH  28  34
HETATM   34  O   UNL     1      27.674  43.725  52.452  1.00  0.00    -0.346 OA
BRANCH  34  35
HETATM   35  C   UNL     1      27.347  43.870  53.844  1.00  0.00     0.219 C 
BRANCH  35  36
HETATM   36  C   UNL     1      28.607  44.125  54.627  1.00  0.00     0.026 A 
HETATM   37  C   UNL     1      28.901  45.367  55.207  1.00  0.00     0.045 A 
HETATM   38 CL   UNL     1      27.852  46.727  55.032  1.00  0.00    -0.084 Cl
HETATM   39  C   UNL     1      30.069  45.546  55.960  1.00  0.00     0.024 A 
HETATM   40  C   UNL     1      30.959  44.490  56.146  1.00  0.00     0.005 A 
HETATM   41  C   UNL     1      30.690  43.258  55.560  1.00  0.00     0.043 A 
HETATM   42  C   UNL     1      29.533  43.092  54.801  1.00  0.00     0.126 A 
HETATM   43  F   UNL     1      29.333  41.906  54.207  1.00  0.00    -0.205 F 
ENDBRANCH  35  36
ENDBRANCH  34  35
ENDBRANCH  28  34
ENDBRANCH  26  27
ENDBRANCH   2  25
TORSDOF 12
ENDMDL
MODEL 6
REMARK VINA RESULT:      -8.7      7.220     11.477
REMARK  12 active torsions:
REMARK  status: ('A' for Active; 'I' for Inactive)
REMARK    1  A    between atoms: C_2  and  N_3 
REMARK    2  A    between atoms: N_3  and  C_5 
REMARK    3  A    between atoms: N_3  and  C_39 
REMARK    4  A    between atoms: C_5  and  C_6 
REMARK    5  A    between atoms: N_7  and  C_8 
REMARK    6  A    between atoms: C_12  and  N_13 
REMARK    7  A    between atoms: C_16  and  C_17 
REMARK       I    between atoms: C_17  and  N_18 
REMARK    8  A    between atoms: N_18  and  N_19 
REMARK    9  A    between atoms: C_20  and  C_21 
REMARK   10  A    between atoms: C_22  and  O_23 
REMARK   11  A    between atoms: O_23  and  C_24 
REMARK   12  A    between atoms: C_24  and  C_25 
ROOT
HETATM    1  C   UNL     1      18.930  45.391  47.331  1.00  0.00     0.294 C 
HETATM    2  N   UNL     1      18.362  45.763  46.126  1.00  0.00    -0.242 N 
HETATM    3  O   UNL     1      18.360  44.594  48.070  1.00  0.00    -0.264 OA
HETATM    4  H   UNL     1      17.540  45.238  45.839  1.00  0.00     0.192 HD
ENDROOT
BRANCH   1   5
HETATM    5  C   UNL     1      20.217  45.976  47.678  1.00  0.00     0.176 C 
HETATM    6  C   UNL     1      20.526  47.270  48.085  1.00  0.00     0.102 C 
HETATM    7  N   UNL     1      21.922  47.271  48.149  1.00  0.00    -0.191 N 
HETATM    8  N   UNL     1      22.360  45.990  48.036  1.00  0.00    -0.058 NA
HETATM    9  N   UNL     1      21.344  45.210  47.729  1.00  0.00    -0.124 NA
BRANCH   6  10
HETATM   10  C   UNL     1      19.629  48.419  48.342  1.00  0.00     0.296 C 
BRANCH  10  11
HETATM   11  N   UNL     1      18.420  48.122  49.240  1.00  0.00    -0.066 N 
HETATM   12  H   UNL     1      18.362  47.096  49.221  1.00  0.00     0.280 HD
BRANCH  11  13
HETATM   13  C   UNL     1      17.102  48.637  48.703  1.00  0.00     0.231 C 
HETATM   14  C   UNL     1      16.221  47.478  48.269  1.00  0.00     0.034 C 
ENDBRANCH  11  13
BRANCH  11  15
HETATM   15  C   UNL     1      18.670  48.470  50.696  1.00  0.00     0.231 C 
HETATM   16  C   UNL     1      19.574  49.684  50.825  1.00  0.00     0.034 C 
ENDBRANCH  11  15
ENDBRANCH  10  11
ENDBRANCH   6  10
BRANCH   7  17
HETATM   17  C   UNL     1      22.833  48.338  48.337  1.00  0.00     0.229 A 
HETATM   18  N   UNL     1      22.843  49.379  47.504  1.00  0.00    -0.081 NA
HETATM   19  O   UNL     1      23.864  50.194  47.997  1.00  0.00    -0.103 OA
HETATM   20  N   UNL     1      24.431  49.650  49.141  1.00  0.00    -0.083 NA
HETATM   21  C   UNL     1      23.801  48.495  49.347  1.00  0.00     0.201 A 
BRANCH  21  22
HETATM   22  N   UNL     1      24.048  47.664  50.373  1.00  0.00    -0.379 N 
HETATM   23  H   UNL     1      24.198  48.043  51.304  1.00  0.00     0.158 HD
HETATM   24  H   UNL     1      24.423  46.726  50.241  1.00  0.00     0.158 HD
ENDBRANCH  21  22
ENDBRANCH   7  17
ENDBRANCH   1   5
BRANCH   2  25
HETATM   25  N   UNL     1      18.823  46.792  45.364  1.00  0.00    -0.183 NA
HETATM   26  C   UNL     1      17.910  47.463  44.736  1.00  0.00     0.153 C 
BRANCH  26  27
HETATM   27  C   UNL     1      18.254  48.648  43.935  1.00  0.00     0.018 A 
HETATM   28  C   UNL     1      18.173  49.952  44.447  1.00  0.00     0.081 A 
HETATM   29  C   UNL     1      18.590  51.031  43.664  1.00  0.00     0.039 A 
HETATM   30  C   UNL     1      19.028  50.815  42.356  1.00  0.00     0.026 A 
HETATM   31  C   UNL     1      19.059  49.521  41.837  1.00  0.00     0.035 A 
HETATM   32 CL   UNL     1      19.587  49.262  40.222  1.00  0.00    -0.084 Cl
HETATM   33  C   UNL     1      18.674  48.433  42.619  1.00  0.00     0.039 A 
BRANCH  28  34
HETATM   34  O   UNL     1      17.679  50.241  45.696  1.00  0.00    -0.346 OA
BRANCH  34  35
HETATM   35  C   UNL     1      17.847  51.641  45.976  1.00  0.00     0.219 C 
BRANCH  35  36
HETATM   36  C   UNL     1      17.321  51.938  47.354  1.00  0.00     0.026 A 
HETATM   37  C   UNL     1      18.161  52.208  48.445  1.00  0.00     0.045 A 
HETATM   38 CL   UNL     1      19.881  52.177  48.301  1.00  0.00    -0.084 Cl
HETATM   39  C   UNL     1      17.624  52.519  49.701  1.00  0.00     0.024 A 
HETATM   40  C   UNL     1      16.243  52.565  49.887  1.00  0.00     0.005 A 
HETATM   41  C   UNL     1      15.399  52.281  48.820  1.00  0.00     0.043 A 
HETATM   42  C   UNL     1      15.941  51.960  47.577  1.00  0.00     0.126 A 
HETATM   43  F   UNL     1      15.097  51.640  46.584  1.00  0.00    -0.205 F 
ENDBRANCH  35  36
ENDBRANCH  34  35
ENDBRANCH  28  34
ENDBRANCH  26  27
ENDBRANCH   2  25
TORSDOF 12
ENDMDL
MODEL 7
REMARK VINA RESULT:      -8.6      5.356      7.865
REMARK  12 active torsions:
REMARK  status: ('A' for Active; 'I' for Inactive)
REMARK    1  A    between atoms: C_2  and  N_3 
REMARK    2  A    between atoms: N_3  and  C_5 
REMARK    3  A    between atoms: N_3  and  C_39 
REMARK    4  A    between atoms: C_5  and  C_6 
REMARK    5  A    between atoms: N_7  and  C_8 
REMARK    6  A    between atoms: C_12  and  N_13 
REMARK    7  A    between atoms: C_16  and  C_17 
REMARK       I    between atoms: C_17  and  N_18 
REMARK    8  A    between atoms: N_18  and  N_19 
REMARK    9  A    between atoms: C_20  and  C_21 
REMARK   10  A    between atoms: C_22  and  O_23 
REMARK   11  A    between atoms: O_23  and  C_24 
REMARK   12  A    between atoms: C_24  and  C_25 
ROOT
HETATM    1  C   UNL     1      27.635  39.086  49.570  1.00  0.00     0.294 C 
HETATM    2  N   UNL     1      26.634  39.476  50.441  1.00  0.00    -0.242 N 
HETATM    3  O   UNL     1      28.389  38.161  49.859  1.00  0.00    -0.264 OA
HETATM    4  H   UNL     1      26.478  38.870  51.243  1.00  0.00     0.192 HD
ENDROOT
BRANCH   1   5
HETATM    5  C   UNL     1      27.753  39.809  48.312  1.00  0.00     0.176 C 
HETATM    6  C   UNL     1      27.162  39.551  47.079  1.00  0.00     0.102 C 
HETATM    7  N   UNL     1      27.742  40.498  46.231  1.00  0.00    -0.191 N 
HETATM    8  N   UNL     1      28.421  41.397  46.989  1.00  0.00    -0.058 NA
HETATM    9  N   UNL     1      28.453  40.976  48.238  1.00  0.00    -0.124 NA
BRANCH   6  10
HETATM   10  C   UNL     1      26.192  38.499  46.698  1.00  0.00     0.296 C 
BRANCH  10  11
HETATM   11  N   UNL     1      26.800  37.244  46.058  1.00  0.00    -0.066 N 
HETATM   12  H   UNL     1      26.203  36.486  46.417  1.00  0.00     0.280 HD
BRANCH  11  13
HETATM   13  C   UNL     1      28.209  36.931  46.512  1.00  0.00     0.231 C 
HETATM   14  C   UNL     1      29.129  36.783  45.312  1.00  0.00     0.034 C 
ENDBRANCH  11  13
BRANCH  11  15
HETATM   15  C   UNL     1      26.614  37.203  44.552  1.00  0.00     0.231 C 
HETATM   16  C   UNL     1      25.269  37.781  44.147  1.00  0.00     0.034 C 
ENDBRANCH  11  15
ENDBRANCH  10  11
ENDBRANCH   6  10
BRANCH   7  17
HETATM   17  C   UNL     1      27.676  40.634  44.824  1.00  0.00     0.229 A 
HETATM   18  N   UNL     1      28.647  40.154  44.048  1.00  0.00    -0.081 NA
HETATM   19  O   UNL     1      28.240  40.488  42.755  1.00  0.00    -0.103 OA
HETATM   20  N   UNL     1      27.012  41.134  42.767  1.00  0.00    -0.083 NA
HETATM   21  C   UNL     1      26.666  41.234  44.049  1.00  0.00     0.201 A 
BRANCH  21  22
HETATM   22  N   UNL     1      25.524  41.789  44.489  1.00  0.00    -0.379 N 
HETATM   23  H   UNL     1      24.636  41.501  44.088  1.00  0.00     0.158 HD
HETATM   24  H   UNL     1      25.497  42.699  44.948  1.00  0.00     0.158 HD
ENDBRANCH  21  22
ENDBRANCH   7  17
ENDBRANCH   1   5
BRANCH   2  25
HETATM   25  N   UNL     1      25.908  40.617  50.289  1.00  0.00    -0.183 NA
HETATM   26  C   UNL     1      26.252  41.595  51.065  1.00  0.00     0.153 C 
BRANCH  26  27
HETATM   27  C   UNL     1      25.606  42.912  50.958  1.00  0.00     0.018 A 
HETATM   28  C   UNL     1      26.177  44.077  51.494  1.00  0.00     0.081 A 
HETATM   29  C   UNL     1      25.554  45.311  51.292  1.00  0.00     0.039 A 
HETATM   30  C   UNL     1      24.338  45.374  50.610  1.00  0.00     0.026 A 
HETATM   31  C   UNL     1      23.751  44.206  50.123  1.00  0.00     0.035 A 
HETATM   32 CL   UNL     1      22.246  44.287  49.296  1.00  0.00    -0.084 Cl
HETATM   33  C   UNL     1      24.377  42.972  50.293  1.00  0.00     0.039 A 
BRANCH  28  34
HETATM   34  O   UNL     1      27.330  44.075  52.240  1.00  0.00    -0.346 OA
BRANCH  34  35
HETATM   35  C   UNL     1      27.007  44.072  53.641  1.00  0.00     0.219 C 
BRANCH  35  36
HETATM   36  C   UNL     1      28.279  44.070  54.445  1.00  0.00     0.026 A 
HETATM   37  C   UNL     1      29.142  42.966  54.497  1.00  0.00     0.045 A 
HETATM   38 CL   UNL     1      28.788  41.492  53.672  1.00  0.00    -0.084 Cl
HETATM   39  C   UNL     1      30.336  43.026  55.228  1.00  0.00     0.024 A 
HETATM   40  C   UNL     1      30.686  44.186  55.915  1.00  0.00     0.005 A 
HETATM   41  C   UNL     1      29.832  45.282  55.888  1.00  0.00     0.043 A 
HETATM   42  C   UNL     1      28.640  45.210  55.170  1.00  0.00     0.126 A 
HETATM   43  F   UNL     1      27.814  46.268  55.210  1.00  0.00    -0.205 F 
ENDBRANCH  35  36
ENDBRANCH  34  35
ENDBRANCH  28  34
ENDBRANCH  26  27
ENDBRANCH   2  25
TORSDOF 12
ENDMDL
MODEL 8
REMARK VINA RESULT:      -8.6     14.063     15.292
REMARK  12 active torsions:
REMARK  status: ('A' for Active; 'I' for Inactive)
REMARK    1  A    between atoms: C_2  and  N_3 
REMARK    2  A    between atoms: N_3  and  C_5 
REMARK    3  A    between atoms: N_3  and  C_39 
REMARK    4  A    between atoms: C_5  and  C_6 
REMARK    5  A    between atoms: N_7  and  C_8 
REMARK    6  A    between atoms: C_12  and  N_13 
REMARK    7  A    between atoms: C_16  and  C_17 
REMARK       I    between atoms: C_17  and  N_18 
REMARK    8  A    between atoms: N_18  and  N_19 
REMARK    9  A    between atoms: C_20  and  C_21 
REMARK   10  A    between atoms: C_22  and  O_23 
REMARK   11  A    between atoms: O_23  and  C_24 
REMARK   12  A    between atoms: C_24  and  C_25 
ROOT
HETATM    1  C   UNL     1      33.496  48.558  41.368  1.00  0.00     0.294 C 
HETATM    2  N   UNL     1      34.741  49.078  41.065  1.00  0.00    -0.242 N 
HETATM    3  O   UNL     1      33.299  47.347  41.328  1.00  0.00    -0.264 OA
HETATM    4  H   UNL     1      35.493  48.402  40.954  1.00  0.00     0.192 HD
ENDROOT
BRANCH   1   5
HETATM    5  C   UNL     1      32.445  49.496  41.735  1.00  0.00     0.176 C 
HETATM    6  C   UNL     1      31.378  49.975  40.982  1.00  0.00     0.102 C 
HETATM    7  N   UNL     1      30.791  50.932  41.814  1.00  0.00    -0.191 N 
HETATM    8  N   UNL     1      31.334  50.818  43.054  1.00  0.00    -0.058 NA
HETATM    9  N   UNL     1      32.346  49.974  43.008  1.00  0.00    -0.124 NA
BRANCH   6  10
HETATM   10  C   UNL     1      30.961  49.626  39.605  1.00  0.00     0.296 C 
BRANCH  10  11
HETATM   11  N   UNL     1      29.453  49.430  39.402  1.00  0.00    -0.066 N 
HETATM   12  H   UNL     1      29.049  49.811  40.269  1.00  0.00     0.280 HD
BRANCH  11  13
HETATM   13  C   UNL     1      29.016  47.983  39.326  1.00  0.00     0.231 C 
HETATM   14  C   UNL     1      30.060  47.155  38.597  1.00  0.00     0.034 C 
ENDBRANCH  11  13
BRANCH  11  15
HETATM   15  C   UNL     1      28.889  50.303  38.295  1.00  0.00     0.231 C 
HETATM   16  C   UNL     1      29.842  51.433  37.946  1.00  0.00     0.034 C 
ENDBRANCH  11  15
ENDBRANCH  10  11
ENDBRANCH   6  10
BRANCH   7  17
HETATM   17  C   UNL     1      29.774  51.880  41.549  1.00  0.00     0.229 A 
HETATM   18  N   UNL     1      28.489  51.562  41.706  1.00  0.00    -0.081 NA
HETATM   19  O   UNL     1      27.808  52.725  41.342  1.00  0.00    -0.103 OA
HETATM   20  N   UNL     1      28.692  53.739  41.003  1.00  0.00    -0.083 NA
HETATM   21  C   UNL     1      29.911  53.215  41.121  1.00  0.00     0.201 A 
BRANCH  21  22
HETATM   22  N   UNL     1      31.053  53.883  40.896  1.00  0.00    -0.379 N 
HETATM   23  H   UNL     1      31.486  53.848  39.976  1.00  0.00     0.158 HD
HETATM   24  H   UNL     1      31.692  54.148  41.645  1.00  0.00     0.158 HD
ENDBRANCH  21  22
ENDBRANCH   7  17
ENDBRANCH   1   5
BRANCH   2  25
HETATM   25  N   UNL     1      34.976  50.406  40.879  1.00  0.00    -0.183 NA
HETATM   26  C   UNL     1      36.079  50.846  41.396  1.00  0.00     0.153 C 
BRANCH  26  27
HETATM   27  C   UNL     1      36.500  52.244  41.209  1.00  0.00     0.018 A 
HETATM   28  C   UNL     1      37.303  52.919  42.141  1.00  0.00     0.081 A 
HETATM   29  C   UNL     1      37.737  54.219  41.870  1.00  0.00     0.039 A 
HETATM   30  C   UNL     1      37.321  54.863  40.703  1.00  0.00     0.026 A 
HETATM   31  C   UNL     1      36.483  54.203  39.805  1.00  0.00     0.035 A 
HETATM   32 CL   UNL     1      35.963  55.004  38.376  1.00  0.00    -0.084 Cl
HETATM   33  C   UNL     1      36.068  52.895  40.050  1.00  0.00     0.039 A 
BRANCH  28  34
HETATM   34  O   UNL     1      37.684  52.372  43.343  1.00  0.00    -0.346 OA
BRANCH  34  35
HETATM   35  C   UNL     1      38.951  52.917  43.749  1.00  0.00     0.219 C 
BRANCH  35  36
HETATM   36  C   UNL     1      38.907  53.233  45.219  1.00  0.00     0.026 A 
HETATM   37  C   UNL     1      39.601  52.480  46.178  1.00  0.00     0.045 A 
HETATM   38 CL   UNL     1      40.533  51.093  45.748  1.00  0.00    -0.084 Cl
HETATM   39  C   UNL     1      39.562  52.836  47.532  1.00  0.00     0.024 A 
HETATM   40  C   UNL     1      38.832  53.948  47.950  1.00  0.00     0.005 A 
HETATM   41  C   UNL     1      38.123  54.692  47.014  1.00  0.00     0.043 A 
HETATM   42  C   UNL     1      38.156  54.324  45.670  1.00  0.00     0.126 A 
HETATM   43  F   UNL     1      37.419  55.033  44.803  1.00  0.00    -0.205 F 
ENDBRANCH  35  36
ENDBRANCH  34  35
ENDBRANCH  28  34
ENDBRANCH  26  27
ENDBRANCH   2  25
TORSDOF 12
ENDMDL
MODEL 9
REMARK VINA RESULT:      -8.4     11.810     14.772
REMARK  12 active torsions:
REMARK  status: ('A' for Active; 'I' for Inactive)
REMARK    1  A    between atoms: C_2  and  N_3 
REMARK    2  A    between atoms: N_3  and  C_5 
REMARK    3  A    between atoms: N_3  and  C_39 
REMARK    4  A    between atoms: C_5  and  C_6 
REMARK    5  A    between atoms: N_7  and  C_8 
REMARK    6  A    between atoms: C_12  and  N_13 
REMARK    7  A    between atoms: C_16  and  C_17 
REMARK       I    between atoms: C_17  and  N_18 
REMARK    8  A    between atoms: N_18  and  N_19 
REMARK    9  A    between atoms: C_20  and  C_21 
REMARK   10  A    between atoms: C_22  and  O_23 
REMARK   11  A    between atoms: O_23  and  C_24 
REMARK   12  A    between atoms: C_24  and  C_25 
ROOT
HETATM    1  C   UNL     1      31.627  47.547  40.344  1.00  0.00     0.294 C 
HETATM    2  N   UNL     1      30.550  46.708  40.121  1.00  0.00    -0.242 N 
HETATM    3  O   UNL     1      32.670  47.109  40.820  1.00  0.00    -0.264 OA
HETATM    4  H   UNL     1      30.726  45.713  40.236  1.00  0.00     0.192 HD
ENDROOT
BRANCH   1   5
HETATM    5  C   UNL     1      31.471  48.951  39.993  1.00  0.00     0.176 C 
HETATM    6  C   UNL     1      31.539  50.083  40.799  1.00  0.00     0.102 C 
HETATM    7  N   UNL     1      31.186  51.124  39.936  1.00  0.00    -0.191 N 
HETATM    8  N   UNL     1      31.173  50.644  38.665  1.00  0.00    -0.058 NA
HETATM    9  N   UNL     1      31.319  49.335  38.693  1.00  0.00    -0.124 NA
BRANCH   6  10
HETATM   10  C   UNL     1      31.847  50.197  42.242  1.00  0.00     0.296 C 
BRANCH  10  11
HETATM   11  N   UNL     1      33.332  50.368  42.587  1.00  0.00    -0.066 N 
HETATM   12  H   UNL     1      33.529  49.553  43.183  1.00  0.00     0.280 HD
BRANCH  11  13
HETATM   13  C   UNL     1      33.645  51.593  43.419  1.00  0.00     0.231 C 
HETATM   14  C   UNL     1      32.587  51.784  44.492  1.00  0.00     0.034 C 
ENDBRANCH  11  13
BRANCH  11  15
HETATM   15  C   UNL     1      34.240  50.194  41.382  1.00  0.00     0.231 C 
HETATM   16  C   UNL     1      35.036  51.458  41.106  1.00  0.00     0.034 C 
ENDBRANCH  11  15
ENDBRANCH  10  11
ENDBRANCH   6  10
BRANCH   7  17
HETATM   17  C   UNL     1      30.910  52.485  40.203  1.00  0.00     0.229 A 
HETATM   18  N   UNL     1      31.856  53.289  40.691  1.00  0.00    -0.081 NA
HETATM   19  O   UNL     1      31.212  54.519  40.832  1.00  0.00    -0.103 OA
HETATM   20  N   UNL     1      29.897  54.450  40.395  1.00  0.00    -0.083 NA
HETATM   21  C   UNL     1      29.705  53.188  40.014  1.00  0.00     0.201 A 
BRANCH  21  22
HETATM   22  N   UNL     1      28.556  52.711  39.510  1.00  0.00    -0.379 N 
HETATM   23  H   UNL     1      27.720  52.691  40.089  1.00  0.00     0.158 HD
HETATM   24  H   UNL     1      28.528  52.068  38.719  1.00  0.00     0.158 HD
ENDBRANCH  21  22
ENDBRANCH   7  17
ENDBRANCH   1   5
BRANCH   2  25
HETATM   25  N   UNL     1      29.304  47.154  39.803  1.00  0.00    -0.183 NA
HETATM   26  C   UNL     1      28.349  46.692  40.547  1.00  0.00     0.153 C 
BRANCH  26  27
HETATM   27  C   UNL     1      26.961  47.145  40.368  1.00  0.00     0.018 A 
HETATM   28  C   UNL     1      25.890  46.588  41.084  1.00  0.00     0.081 A 
HETATM   29  C   UNL     1      24.605  47.114  40.929  1.00  0.00     0.039 A 
HETATM   30  C   UNL     1      24.381  48.151  40.021  1.00  0.00     0.026 A 
HETATM   31  C   UNL     1      25.442  48.666  39.277  1.00  0.00     0.035 A 
HETATM   32 CL   UNL     1      25.159  49.934  38.151  1.00  0.00    -0.084 Cl
HETATM   33  C   UNL     1      26.734  48.169  39.444  1.00  0.00     0.039 A 
BRANCH  28  34
HETATM   34  O   UNL     1      26.027  45.518  41.934  1.00  0.00    -0.346 OA
BRANCH  34  35
HETATM   35  C   UNL     1      25.335  44.377  41.400  1.00  0.00     0.219 C 
BRANCH  35  36
HETATM   36  C   UNL     1      26.229  43.668  40.418  1.00  0.00     0.026 A 
HETATM   37  C   UNL     1      26.001  43.686  39.034  1.00  0.00     0.045 A 
HETATM   38 CL   UNL     1      24.638  44.492  38.345  1.00  0.00    -0.084 Cl
HETATM   39  C   UNL     1      26.883  43.044  38.155  1.00  0.00     0.024 A 
HETATM   40  C   UNL     1      28.005  42.377  38.643  1.00  0.00     0.005 A 
HETATM   41  C   UNL     1      28.235  42.335  40.014  1.00  0.00     0.043 A 
HETATM   42  C   UNL     1      27.345  42.965  40.882  1.00  0.00     0.126 A 
HETATM   43  F   UNL     1      27.569  42.859  42.201  1.00  0.00    -0.205 F 
ENDBRANCH  35  36
ENDBRANCH  34  35
ENDBRANCH  28  34
ENDBRANCH  26  27
ENDBRANCH   2  25
TORSDOF 12
ENDMDL
MODEL 10
REMARK VINA RESULT:      -8.3      3.711      6.311
REMARK  12 active torsions:
REMARK  status: ('A' for Active; 'I' for Inactive)
REMARK    1  A    between atoms: C_2  and  N_3 
REMARK    2  A    between atoms: N_3  and  C_5 
REMARK    3  A    between atoms: N_3  and  C_39 
REMARK    4  A    between atoms: C_5  and  C_6 
REMARK    5  A    between atoms: N_7  and  C_8 
REMARK    6  A    between atoms: C_12  and  N_13 
REMARK    7  A    between atoms: C_16  and  C_17 
REMARK       I    between atoms: C_17  and  N_18 
REMARK    8  A    between atoms: N_18  and  N_19 
REMARK    9  A    between atoms: C_20  and  C_21 
REMARK   10  A    between atoms: C_22  and  O_23 
REMARK   11  A    between atoms: O_23  and  C_24 
REMARK   12  A    between atoms: C_24  and  C_25 
ROOT
HETATM    1  C   UNL     1      22.203  45.843  46.899  1.00  0.00     0.294 C 
HETATM    2  N   UNL     1      22.886  44.797  47.492  1.00  0.00    -0.242 N 
HETATM    3  O   UNL     1      21.961  45.827  45.696  1.00  0.00    -0.264 OA
HETATM    4  H   UNL     1      23.040  43.976  46.912  1.00  0.00     0.192 HD
ENDROOT
BRANCH   1   5
HETATM    5  C   UNL     1      21.786  46.947  47.752  1.00  0.00     0.176 C 
HETATM    6  C   UNL     1      20.520  47.278  48.224  1.00  0.00     0.102 C 
HETATM    7  N   UNL     1      20.721  48.495  48.880  1.00  0.00    -0.191 N 
HETATM    8  N   UNL     1      22.058  48.708  48.995  1.00  0.00    -0.058 NA
HETATM    9  N   UNL     1      22.704  47.795  48.297  1.00  0.00    -0.124 NA
BRANCH   6  10
HETATM   10  C   UNL     1      19.232  46.571  48.046  1.00  0.00     0.296 C 
BRANCH  10  11
HETATM   11  N   UNL     1      18.326  47.123  46.937  1.00  0.00    -0.066 N 
HETATM   12  H   UNL     1      17.960  46.272  46.489  1.00  0.00     0.280 HD
BRANCH  11  13
HETATM   13  C   UNL     1      19.056  47.895  45.860  1.00  0.00     0.231 C 
HETATM   14  C   UNL     1      18.719  47.333  44.489  1.00  0.00     0.034 C 
ENDBRANCH  11  13
BRANCH  11  15
HETATM   15  C   UNL     1      17.098  47.834  47.479  1.00  0.00     0.231 C 
HETATM   16  C   UNL     1      16.565  47.141  48.722  1.00  0.00     0.034 C 
ENDBRANCH  11  15
ENDBRANCH  10  11
ENDBRANCH   6  10
BRANCH   7  17
HETATM   17  C   UNL     1      19.789  49.413  49.418  1.00  0.00     0.229 A 
HETATM   18  N   UNL     1      19.603  50.605  48.851  1.00  0.00    -0.081 NA
HETATM   19  O   UNL     1      18.642  51.216  49.658  1.00  0.00    -0.103 OA
HETATM   20  N   UNL     1      18.235  50.371  50.681  1.00  0.00    -0.083 NA
HETATM   21  C   UNL     1      18.953  49.257  50.540  1.00  0.00     0.201 A 
BRANCH  21  22
HETATM   22  N   UNL     1      18.846  48.177  51.330  1.00  0.00    -0.379 N 
HETATM   23  H   UNL     1      19.533  48.018  52.063  1.00  0.00     0.158 HD
HETATM   24  H   UNL     1      18.336  47.340  51.050  1.00  0.00     0.158 HD
ENDBRANCH  21  22
ENDBRANCH   7  17
ENDBRANCH   1   5
BRANCH   2  25
HETATM   25  N   UNL     1      23.374  44.844  48.762  1.00  0.00    -0.183 NA
HETATM   26  C   UNL     1      24.542  44.306  48.922  1.00  0.00     0.153 C 
BRANCH  26  27
HETATM   27  C   UNL     1      25.226  44.349  50.224  1.00  0.00     0.018 A 
HETATM   28  C   UNL     1      25.996  43.279  50.705  1.00  0.00     0.081 A 
HETATM   29  C   UNL     1      26.687  43.411  51.912  1.00  0.00     0.039 A 
HETATM   30  C   UNL     1      26.562  44.581  52.663  1.00  0.00     0.026 A 
HETATM   31  C   UNL     1      25.756  45.622  52.202  1.00  0.00     0.035 A 
HETATM   32 CL   UNL     1      25.595  47.055  53.135  1.00  0.00    -0.084 Cl
HETATM   33  C   UNL     1      25.085  45.514  50.984  1.00  0.00     0.039 A 
BRANCH  28  34
HETATM   34  O   UNL     1      26.099  42.073  50.056  1.00  0.00    -0.346 OA
BRANCH  34  35
HETATM   35  C   UNL     1      27.299  42.044  49.266  1.00  0.00     0.219 C 
BRANCH  35  36
HETATM   36  C   UNL     1      27.767  40.621  49.125  1.00  0.00     0.026 A 
HETATM   37  C   UNL     1      27.625  39.889  47.937  1.00  0.00     0.045 A 
HETATM   38 CL   UNL     1      26.857  40.555  46.542  1.00  0.00    -0.084 Cl
HETATM   39  C   UNL     1      28.112  38.579  47.842  1.00  0.00     0.024 A 
HETATM   40  C   UNL     1      28.747  37.980  48.928  1.00  0.00     0.005 A 
HETATM   41  C   UNL     1      28.877  38.686  50.119  1.00  0.00     0.043 A 
HETATM   42  C   UNL     1      28.379  39.984  50.210  1.00  0.00     0.126 A 
HETATM   43  F   UNL     1      28.475  40.616  51.390  1.00  0.00    -0.205 F 
ENDBRANCH  35  36
ENDBRANCH  34  35
ENDBRANCH  28  34
ENDBRANCH  26  27
ENDBRANCH   2  25
TORSDOF 12
ENDMDL
