MODEL 1
REMARK VINA RESULT:     -10.3      0.000      0.000
REMARK  7 active torsions:
REMARK  status: ('A' for Active; 'I' for Inactive)
REMARK    1  A    between atoms: O_2  and  C_3 
REMARK    2  A    between atoms: C_4  and  C_5 
REMARK    3  A    between atoms: N_10  and  C_12 
REMARK    4  A    between atoms: C_12  and  C_13 
REMARK       I    between atoms: C_13  and  N_14 
REMARK    5  A    between atoms: N_14  and  C_15 
REMARK    6  A    between atoms: C_15  and  C_16 
REMARK    7  A    between atoms: C_16  and  C_17 
ROOT
HETATM    1  C   UNL     1      27.006  45.372  50.902  1.00  0.00     0.190 C 
HETATM    2  O   UNL     1      27.269  44.448  49.827  1.00  0.00    -0.339 OA
HETATM    3  C   UNL     1      26.306  43.517  49.594  1.00  0.00     0.077 A 
HETATM    4  C   UNL     1      25.034  43.862  49.132  1.00  0.00     0.001 A 
HETATM    5  C   UNL     1      24.682  45.283  48.825  1.00  0.00     0.276 C 
HETATM    6  N   UNL     1      24.703  46.207  50.012  1.00  0.00    -0.056 N 
HETATM    7  H   UNL     1      24.236  45.761  50.813  1.00  0.00     0.280 HD
HETATM    8  C   UNL     1      26.113  46.560  50.468  1.00  0.00     0.273 C 
HETATM    9  C   UNL     1      26.670  42.182  49.772  1.00  0.00     0.037 A 
HETATM   10  C   UNL     1      25.743  41.172  49.539  1.00  0.00     0.003 A 
HETATM   11  C   UNL     1      24.458  41.497  49.111  1.00  0.00     0.001 A 
HETATM   12  C   UNL     1      24.107  42.832  48.902  1.00  0.00     0.012 A 
ENDROOT
BRANCH   6  13
HETATM   13  C   UNL     1      23.870  47.464  49.732  1.00  0.00     0.337 C 
BRANCH  13  14
HETATM   14  C   UNL     1      22.769  47.232  48.696  1.00  0.00     0.243 C 
HETATM   15  N   UNL     1      21.882  46.241  49.024  1.00  0.00    -0.359 N 
HETATM   16  H   UNL     1      22.072  45.626  49.816  1.00  0.00     0.162 HD
HETATM   17  O   UNL     1      22.729  47.894  47.663  1.00  0.00    -0.272 OA
BRANCH  15  18
HETATM   18  C   UNL     1      20.930  45.676  48.079  1.00  0.00     0.130 C 
BRANCH  18  19
HETATM   19  C   UNL     1      19.487  45.929  48.521  1.00  0.00     0.098 C 
BRANCH  19  20
HETATM   20  C   UNL     1      19.236  47.380  48.888  1.00  0.00     0.109 A 
HETATM   21  N   UNL     1      19.350  48.325  48.004  1.00  0.00    -0.234 NA
HETATM   22  C   UNL     1      19.116  49.650  48.426  1.00  0.00     0.074 A 
HETATM   23  C   UNL     1      18.816  49.977  49.752  1.00  0.00     0.061 A 
HETATM   24  C   UNL     1      19.181  50.680  47.483  1.00  0.00     0.032 A 
HETATM   25  C   UNL     1      18.742  48.872  50.722  1.00  0.00     0.259 A 
HETATM   26  C   UNL     1      18.589  51.300  50.142  1.00  0.00     0.019 A 
HETATM   27  O   UNL     1      18.508  49.055  51.908  1.00  0.00    -0.267 OA
HETATM   28  N   UNL     1      18.957  47.618  50.208  1.00  0.00    -0.311 N 
HETATM   29  H   UNL     1      18.896  46.868  50.883  1.00  0.00     0.170 HD
HETATM   30  C   UNL     1      18.659  52.316  49.191  1.00  0.00     0.001 A 
HETATM   31  C   UNL     1      18.954  52.005  47.863  1.00  0.00     0.002 A 
ENDBRANCH  19  20
ENDBRANCH  18  19
ENDBRANCH  15  18
ENDBRANCH  13  14
ENDBRANCH   6  13
BRANCH   1  32
HETATM   32  C   UNL     1      26.727  44.770  52.285  1.00  0.00     0.006 A 
HETATM   33  C   UNL     1      27.697  43.955  52.912  1.00  0.00     0.077 A 
HETATM   34  C   UNL     1      27.461  43.418  54.186  1.00  0.00     0.037 A 
HETATM   35  C   UNL     1      26.254  43.655  54.840  1.00  0.00     0.003 A 
HETATM   36  C   UNL     1      25.280  44.431  54.230  1.00  0.00     0.001 A 
HETATM   37  C   UNL     1      25.515  44.985  52.969  1.00  0.00     0.012 A 
BRANCH  33  38
HETATM   38  O   UNL     1      28.876  43.763  52.236  1.00  0.00    -0.355 OA
HETATM   39  C   UNL     1      29.880  43.017  52.921  1.00  0.00     0.210 C 
ENDBRANCH  33  38
ENDBRANCH   1  32
TORSDOF 7
ENDMDL
MODEL 2
REMARK VINA RESULT:      -9.5      2.431     10.240
REMARK  7 active torsions:
REMARK  status: ('A' for Active; 'I' for Inactive)
REMARK    1  A    between atoms: O_2  and  C_3 
REMARK    2  A    between atoms: C_4  and  C_5 
REMARK    3  A    between atoms: N_10  and  C_12 
REMARK    4  A    between atoms: C_12  and  C_13 
REMARK       I    between atoms: C_13  and  N_14 
REMARK    5  A    between atoms: N_14  and  C_15 
REMARK    6  A    between atoms: C_15  and  C_16 
REMARK    7  A    between atoms: C_16  and  C_17 
ROOT
HETATM    1  C   UNL     1      18.361  51.076  49.609  1.00  0.00     0.190 C 
HETATM    2  O   UNL     1      18.031  49.771  50.124  1.00  0.00    -0.339 OA
HETATM    3  C   UNL     1      18.180  48.734  49.256  1.00  0.00     0.077 A 
HETATM    4  C   UNL     1      19.430  48.346  48.769  1.00  0.00     0.001 A 
HETATM    5  C   UNL     1      20.682  49.030  49.217  1.00  0.00     0.276 C 
HETATM    6  N   UNL     1      20.778  50.482  48.833  1.00  0.00    -0.056 N 
HETATM    7  H   UNL     1      20.489  50.606  47.853  1.00  0.00     0.280 HD
HETATM    8  C   UNL     1      19.878  51.381  49.672  1.00  0.00     0.273 C 
HETATM    9  C   UNL     1      17.025  48.024  48.926  1.00  0.00     0.037 A 
HETATM   10  C   UNL     1      17.100  46.942  48.056  1.00  0.00     0.003 A 
HETATM   11  C   UNL     1      18.332  46.561  47.531  1.00  0.00     0.001 A 
HETATM   12  C   UNL     1      19.491  47.252  47.890  1.00  0.00     0.012 A 
ENDROOT
BRANCH   6  13
HETATM   13  C   UNL     1      22.237  50.954  48.869  1.00  0.00     0.337 C 
BRANCH  13  14
HETATM   14  C   UNL     1      23.228  49.858  48.477  1.00  0.00     0.243 C 
HETATM   15  N   UNL     1      23.569  49.010  49.497  1.00  0.00    -0.359 N 
HETATM   16  H   UNL     1      23.293  49.226  50.455  1.00  0.00     0.162 HD
HETATM   17  O   UNL     1      23.669  49.790  47.332  1.00  0.00    -0.272 OA
BRANCH  15  18
HETATM   18  C   UNL     1      24.683  48.076  49.422  1.00  0.00     0.130 C 
BRANCH  18  19
HETATM   19  C   UNL     1      24.339  46.742  50.088  1.00  0.00     0.098 C 
BRANCH  19  20
HETATM   20  C   UNL     1      25.218  46.447  51.290  1.00  0.00     0.109 A 
HETATM   21  N   UNL     1      25.345  47.307  52.255  1.00  0.00    -0.234 NA
HETATM   22  C   UNL     1      26.191  46.966  53.330  1.00  0.00     0.074 A 
HETATM   23  C   UNL     1      26.921  45.773  53.366  1.00  0.00     0.061 A 
HETATM   24  C   UNL     1      26.305  47.850  54.406  1.00  0.00     0.032 A 
HETATM   25  C   UNL     1      26.773  44.854  52.226  1.00  0.00     0.259 A 
HETATM   26  C   UNL     1      27.753  45.461  54.444  1.00  0.00     0.019 A 
HETATM   27  O   UNL     1      27.384  43.797  52.151  1.00  0.00    -0.267 OA
HETATM   28  N   UNL     1      25.906  45.263  51.244  1.00  0.00    -0.311 N 
HETATM   29  H   UNL     1      25.808  44.619  50.470  1.00  0.00     0.170 HD
HETATM   30  C   UNL     1      27.858  46.354  55.509  1.00  0.00     0.001 A 
HETATM   31  C   UNL     1      27.134  47.546  55.490  1.00  0.00     0.002 A 
ENDBRANCH  19  20
ENDBRANCH  18  19
ENDBRANCH  15  18
ENDBRANCH  13  14
ENDBRANCH   6  13
BRANCH   1  32
HETATM   32  C   UNL     1      17.618  51.536  48.348  1.00  0.00     0.006 A 
HETATM   33  C   UNL     1      16.246  51.873  48.417  1.00  0.00     0.077 A 
HETATM   34  C   UNL     1      15.564  52.315  47.275  1.00  0.00     0.037 A 
HETATM   35  C   UNL     1      16.218  52.400  46.048  1.00  0.00     0.003 A 
HETATM   36  C   UNL     1      17.557  52.050  45.956  1.00  0.00     0.001 A 
HETATM   37  C   UNL     1      18.250  51.626  47.093  1.00  0.00     0.012 A 
BRANCH  33  38
HETATM   38  O   UNL     1      15.649  51.788  49.649  1.00  0.00    -0.355 OA
HETATM   39  C   UNL     1      14.744  52.839  49.983  1.00  0.00     0.210 C 
ENDBRANCH  33  38
ENDBRANCH   1  32
TORSDOF 7
ENDMDL
MODEL 3
REMARK VINA RESULT:      -9.4     11.931     14.425
REMARK  7 active torsions:
REMARK  status: ('A' for Active; 'I' for Inactive)
REMARK    1  A    between atoms: O_2  and  C_3 
REMARK    2  A    between atoms: C_4  and  C_5 
REMARK    3  A    between atoms: N_10  and  C_12 
REMARK    4  A    between atoms: C_12  and  C_13 
REMARK       I    between atoms: C_13  and  N_14 
REMARK    5  A    between atoms: N_14  and  C_15 
REMARK    6  A    between atoms: C_15  and  C_16 
REMARK    7  A    between atoms: C_16  and  C_17 
ROOT
HETATM    1  C   UNL     1      29.932  47.032  38.955  1.00  0.00     0.190 C 
HETATM    2  O   UNL     1      29.536  48.231  38.260  1.00  0.00    -0.339 OA
HETATM    3  C   UNL     1      28.536  48.950  38.837  1.00  0.00     0.077 A 
HETATM    4  C   UNL     1      28.695  49.587  40.069  1.00  0.00     0.001 A 
HETATM    5  C   UNL     1      29.999  49.545  40.800  1.00  0.00     0.276 C 
HETATM    6  N   UNL     1      30.427  48.173  41.246  1.00  0.00    -0.056 N 
HETATM    7  H   UNL     1      29.628  47.674  41.662  1.00  0.00     0.280 HD
HETATM    8  C   UNL     1      30.937  47.306  40.101  1.00  0.00     0.273 C 
HETATM    9  C   UNL     1      27.358  49.084  38.102  1.00  0.00     0.037 A 
HETATM   10  C   UNL     1      26.296  49.818  38.621  1.00  0.00     0.003 A 
HETATM   11  C   UNL     1      26.421  50.431  39.864  1.00  0.00     0.001 A 
HETATM   12  C   UNL     1      27.614  50.324  40.582  1.00  0.00     0.012 A 
ENDROOT
BRANCH   6  13
HETATM   13  C   UNL     1      31.455  48.270  42.380  1.00  0.00     0.337 C 
BRANCH  13  14
HETATM   14  C   UNL     1      32.888  48.433  41.874  1.00  0.00     0.243 C 
HETATM   15  N   UNL     1      33.452  49.651  42.149  1.00  0.00    -0.359 N 
HETATM   16  H   UNL     1      32.876  50.410  42.512  1.00  0.00     0.162 HD
HETATM   17  O   UNL     1      33.446  47.525  41.263  1.00  0.00    -0.272 OA
BRANCH  15  18
HETATM   18  C   UNL     1      34.688  50.116  41.536  1.00  0.00     0.130 C 
BRANCH  18  19
HETATM   19  C   UNL     1      34.566  51.568  41.067  1.00  0.00     0.098 C 
BRANCH  19  20
HETATM   20  C   UNL     1      33.295  51.819  40.276  1.00  0.00     0.109 A 
HETATM   21  N   UNL     1      32.292  52.454  40.802  1.00  0.00    -0.234 NA
HETATM   22  C   UNL     1      31.141  52.635  40.009  1.00  0.00     0.074 A 
HETATM   23  C   UNL     1      31.030  52.122  38.713  1.00  0.00     0.061 A 
HETATM   24  C   UNL     1      30.067  53.361  40.532  1.00  0.00     0.032 A 
HETATM   25  C   UNL     1      32.180  51.373  38.181  1.00  0.00     0.259 A 
HETATM   26  C   UNL     1      29.877  52.316  37.948  1.00  0.00     0.019 A 
HETATM   27  O   UNL     1      32.175  50.865  37.068  1.00  0.00    -0.267 OA
HETATM   28  N   UNL     1      33.262  51.276  39.019  1.00  0.00    -0.311 N 
HETATM   29  H   UNL     1      34.048  50.765  38.638  1.00  0.00     0.170 HD
HETATM   30  C   UNL     1      28.813  53.040  38.485  1.00  0.00     0.001 A 
HETATM   31  C   UNL     1      28.909  53.562  39.776  1.00  0.00     0.002 A 
ENDBRANCH  19  20
ENDBRANCH  18  19
ENDBRANCH  15  18
ENDBRANCH  13  14
ENDBRANCH   6  13
BRANCH   1  32
HETATM   32  C   UNL     1      28.838  45.993  39.232  1.00  0.00     0.006 A 
HETATM   33  C   UNL     1      28.466  45.070  38.228  1.00  0.00     0.077 A 
HETATM   34  C   UNL     1      27.482  44.103  38.478  1.00  0.00     0.037 A 
HETATM   35  C   UNL     1      26.833  44.057  39.710  1.00  0.00     0.003 A 
HETATM   36  C   UNL     1      27.167  44.971  40.699  1.00  0.00     0.001 A 
HETATM   37  C   UNL     1      28.159  45.926  40.464  1.00  0.00     0.012 A 
BRANCH  33  38
HETATM   38  O   UNL     1      29.143  45.144  37.037  1.00  0.00    -0.355 OA
HETATM   39  C   UNL     1      29.644  43.912  36.520  1.00  0.00     0.210 C 
ENDBRANCH  33  38
ENDBRANCH   1  32
TORSDOF 7
ENDMDL
MODEL 4
REMARK VINA RESULT:      -9.4      2.421      9.721
REMARK  7 active torsions:
REMARK  status: ('A' for Active; 'I' for Inactive)
REMARK    1  A    between atoms: O_2  and  C_3 
REMARK    2  A    between atoms: C_4  and  C_5 
REMARK    3  A    between atoms: N_10  and  C_12 
REMARK    4  A    between atoms: C_12  and  C_13 
REMARK       I    between atoms: C_13  and  N_14 
REMARK    5  A    between atoms: N_14  and  C_15 
REMARK    6  A    between atoms: C_15  and  C_16 
REMARK    7  A    between atoms: C_16  and  C_17 
ROOT
HETATM    1  C   UNL     1      18.808  50.871  49.841  1.00  0.00     0.190 C 
HETATM    2  O   UNL     1      18.563  49.538  50.329  1.00  0.00    -0.339 OA
HETATM    3  C   UNL     1      18.813  48.528  49.453  1.00  0.00     0.077 A 
HETATM    4  C   UNL     1      20.102  48.242  48.998  1.00  0.00     0.001 A 
HETATM    5  C   UNL     1      21.286  49.010  49.491  1.00  0.00     0.276 C 
HETATM    6  N   UNL     1      21.283  50.471  49.128  1.00  0.00    -0.056 N 
HETATM    7  H   UNL     1      21.014  50.587  48.142  1.00  0.00     0.280 HD
HETATM    8  C   UNL     1      20.296  51.288  49.952  1.00  0.00     0.273 C 
HETATM    9  C   UNL     1      17.725  47.738  49.081  1.00  0.00     0.037 A 
HETATM   10  C   UNL     1      17.906  46.678  48.200  1.00  0.00     0.003 A 
HETATM   11  C   UNL     1      19.177  46.397  47.706  1.00  0.00     0.001 A 
HETATM   12  C   UNL     1      20.270  47.168  48.107  1.00  0.00     0.012 A 
ENDROOT
BRANCH   6  13
HETATM   13  C   UNL     1      22.701  51.050  49.212  1.00  0.00     0.337 C 
BRANCH  13  14
HETATM   14  C   UNL     1      23.683  50.366  48.259  1.00  0.00     0.243 C 
HETATM   15  N   UNL     1      24.834  49.921  48.854  1.00  0.00    -0.359 N 
HETATM   16  H   UNL     1      25.050  50.190  49.814  1.00  0.00     0.162 HD
HETATM   17  O   UNL     1      23.426  50.259  47.063  1.00  0.00    -0.272 OA
BRANCH  15  18
HETATM   18  C   UNL     1      26.005  49.490  48.106  1.00  0.00     0.130 C 
BRANCH  18  19
HETATM   19  C   UNL     1      27.092  48.945  49.036  1.00  0.00     0.098 C 
BRANCH  19  20
HETATM   20  C   UNL     1      26.635  47.726  49.814  1.00  0.00     0.109 A 
HETATM   21  N   UNL     1      26.554  46.559  49.248  1.00  0.00    -0.234 NA
HETATM   22  C   UNL     1      26.107  45.478  50.033  1.00  0.00     0.074 A 
HETATM   23  C   UNL     1      25.711  45.627  51.366  1.00  0.00     0.061 A 
HETATM   24  C   UNL     1      26.061  44.203  49.463  1.00  0.00     0.032 A 
HETATM   25  C   UNL     1      25.782  46.978  51.946  1.00  0.00     0.259 A 
HETATM   26  C   UNL     1      25.272  44.537  52.122  1.00  0.00     0.019 A 
HETATM   27  O   UNL     1      25.438  47.218  53.096  1.00  0.00    -0.267 OA
HETATM   28  N   UNL     1      26.256  47.957  51.110  1.00  0.00    -0.311 N 
HETATM   29  H   UNL     1      26.306  48.879  51.523  1.00  0.00     0.170 HD
HETATM   30  C   UNL     1      25.229  43.272  51.539  1.00  0.00     0.001 A 
HETATM   31  C   UNL     1      25.624  43.106  50.211  1.00  0.00     0.002 A 
ENDBRANCH  19  20
ENDBRANCH  18  19
ENDBRANCH  15  18
ENDBRANCH  13  14
ENDBRANCH   6  13
BRANCH   1  32
HETATM   32  C   UNL     1      18.068  51.293  48.565  1.00  0.00     0.006 A 
HETATM   33  C   UNL     1      16.761  51.824  48.647  1.00  0.00     0.077 A 
HETATM   34  C   UNL     1      16.084  52.233  47.489  1.00  0.00     0.037 A 
HETATM   35  C   UNL     1      16.678  52.092  46.237  1.00  0.00     0.003 A 
HETATM   36  C   UNL     1      17.950  51.550  46.134  1.00  0.00     0.001 A 
HETATM   37  C   UNL     1      18.638  51.157  47.285  1.00  0.00     0.012 A 
BRANCH  33  38
HETATM   38  O   UNL     1      16.224  51.958  49.902  1.00  0.00    -0.355 OA
HETATM   39  C   UNL     1      15.837  53.277  50.285  1.00  0.00     0.210 C 
ENDBRANCH  33  38
ENDBRANCH   1  32
TORSDOF 7
ENDMDL
MODEL 5
REMARK VINA RESULT:      -9.3      2.493     10.104
REMARK  7 active torsions:
REMARK  status: ('A' for Active; 'I' for Inactive)
REMARK    1  A    between atoms: O_2  and  C_3 
REMARK    2  A    between atoms: C_4  and  C_5 
REMARK    3  A    between atoms: N_10  and  C_12 
REMARK    4  A    between atoms: C_12  and  C_13 
REMARK       I    between atoms: C_13  and  N_14 
REMARK    5  A    between atoms: N_14  and  C_15 
REMARK    6  A    between atoms: C_15  and  C_16 
REMARK    7  A    between atoms: C_16  and  C_17 
ROOT
HETATM    1  C   UNL     1      20.625  46.916  47.057  1.00  0.00     0.190 C 
HETATM    2  O   UNL     1      21.358  48.093  46.665  1.00  0.00    -0.339 OA
HETATM    3  C   UNL     1      21.607  48.995  47.652  1.00  0.00     0.077 A 
HETATM    4  C   UNL     1      22.442  48.702  48.733  1.00  0.00     0.001 A 
HETATM    5  C   UNL     1      23.144  47.386  48.835  1.00  0.00     0.276 C 
HETATM    6  N   UNL     1      22.233  46.197  48.979  1.00  0.00    -0.056 N 
HETATM    7  H   UNL     1      21.496  46.400  49.667  1.00  0.00     0.280 HD
HETATM    8  C   UNL     1      21.530  45.824  47.680  1.00  0.00     0.273 C 
HETATM    9  C   UNL     1      21.043  50.262  47.499  1.00  0.00     0.037 A 
HETATM   10  C   UNL     1      21.265  51.242  48.460  1.00  0.00     0.003 A 
HETATM   11  C   UNL     1      22.066  50.960  49.564  1.00  0.00     0.001 A 
HETATM   12  C   UNL     1      22.657  49.701  49.697  1.00  0.00     0.012 A 
ENDROOT
BRANCH   6  13
HETATM   13  C   UNL     1      22.994  45.003  49.570  1.00  0.00     0.337 C 
BRANCH  13  14
HETATM   14  C   UNL     1      24.415  45.359  50.008  1.00  0.00     0.243 C 
HETATM   15  N   UNL     1      24.501  45.917  51.256  1.00  0.00    -0.359 N 
HETATM   16  H   UNL     1      23.654  46.206  51.746  1.00  0.00     0.162 HD
HETATM   17  O   UNL     1      25.371  45.156  49.264  1.00  0.00    -0.272 OA
BRANCH  15  18
HETATM   18  C   UNL     1      25.701  46.571  51.758  1.00  0.00     0.130 C 
BRANCH  18  19
HETATM   19  C   UNL     1      25.817  46.432  53.278  1.00  0.00     0.098 C 
BRANCH  19  20
HETATM   20  C   UNL     1      27.003  45.582  53.696  1.00  0.00     0.109 A 
HETATM   21  N   UNL     1      27.761  45.932  54.692  1.00  0.00    -0.234 NA
HETATM   22  C   UNL     1      28.852  45.098  55.010  1.00  0.00     0.074 A 
HETATM   23  C   UNL     1      29.166  43.953  54.271  1.00  0.00     0.061 A 
HETATM   24  C   UNL     1      29.652  45.423  56.109  1.00  0.00     0.032 A 
HETATM   25  C   UNL     1      28.300  43.627  53.127  1.00  0.00     0.259 A 
HETATM   26  C   UNL     1      30.255  43.144  54.609  1.00  0.00     0.019 A 
HETATM   27  O   UNL     1      28.502  42.660  52.405  1.00  0.00    -0.267 OA
HETATM   28  N   UNL     1      27.249  44.483  52.917  1.00  0.00    -0.311 N 
HETATM   29  H   UNL     1      26.658  44.244  52.132  1.00  0.00     0.170 HD
HETATM   30  C   UNL     1      31.045  43.482  55.707  1.00  0.00     0.001 A 
HETATM   31  C   UNL     1      30.742  44.620  56.456  1.00  0.00     0.002 A 
ENDBRANCH  19  20
ENDBRANCH  18  19
ENDBRANCH  15  18
ENDBRANCH  13  14
ENDBRANCH   6  13
BRANCH   1  32
HETATM   32  C   UNL     1      19.257  47.134  47.716  1.00  0.00     0.006 A 
HETATM   33  C   UNL     1      18.071  46.900  46.983  1.00  0.00     0.077 A 
HETATM   34  C   UNL     1      16.816  47.076  47.583  1.00  0.00     0.037 A 
HETATM   35  C   UNL     1      16.718  47.514  48.901  1.00  0.00     0.003 A 
HETATM   36  C   UNL     1      17.870  47.774  49.629  1.00  0.00     0.001 A 
HETATM   37  C   UNL     1      19.124  47.584  49.044  1.00  0.00     0.012 A 
BRANCH  33  38
HETATM   38  O   UNL     1      18.218  46.454  45.694  1.00  0.00    -0.355 OA
HETATM   39  C   UNL     1      17.546  45.239  45.367  1.00  0.00     0.210 C 
ENDBRANCH  33  38
ENDBRANCH   1  32
TORSDOF 7
ENDMDL
MODEL 6
REMARK VINA RESULT:      -9.1      2.717     10.266
REMARK  7 active torsions:
REMARK  status: ('A' for Active; 'I' for Inactive)
REMARK    1  A    between atoms: O_2  and  C_3 
REMARK    2  A    between atoms: C_4  and  C_5 
REMARK    3  A    between atoms: N_10  and  C_12 
REMARK    4  A    between atoms: C_12  and  C_13 
REMARK       I    between atoms: C_13  and  N_14 
REMARK    5  A    between atoms: N_14  and  C_15 
REMARK    6  A    between atoms: C_15  and  C_16 
REMARK    7  A    between atoms: C_16  and  C_17 
ROOT
HETATM    1  C   UNL     1      19.285  49.881  46.651  1.00  0.00     0.190 C 
HETATM    2  O   UNL     1      18.540  51.108  46.525  1.00  0.00    -0.339 OA
HETATM    3  C   UNL     1      17.925  51.549  47.655  1.00  0.00     0.077 A 
HETATM    4  C   UNL     1      18.644  51.974  48.774  1.00  0.00     0.001 A 
HETATM    5  C   UNL     1      20.139  52.005  48.769  1.00  0.00     0.276 C 
HETATM    6  N   UNL     1      20.796  50.659  48.628  1.00  0.00    -0.056 N 
HETATM    7  H   UNL     1      20.334  49.976  49.244  1.00  0.00     0.280 HD
HETATM    8  C   UNL     1      20.711  50.099  47.213  1.00  0.00     0.273 C 
HETATM    9  C   UNL     1      16.533  51.627  47.620  1.00  0.00     0.037 A 
HETATM   10  C   UNL     1      15.834  52.083  48.733  1.00  0.00     0.003 A 
HETATM   11  C   UNL     1      16.530  52.478  49.872  1.00  0.00     0.001 A 
HETATM   12  C   UNL     1      17.926  52.431  49.892  1.00  0.00     0.012 A 
ENDROOT
BRANCH   6  13
HETATM   13  C   UNL     1      22.245  50.711  49.127  1.00  0.00     0.337 C 
BRANCH  13  14
HETATM   14  C   UNL     1      23.048  49.462  48.760  1.00  0.00     0.243 C 
HETATM   15  N   UNL     1      22.963  48.444  49.673  1.00  0.00    -0.359 N 
HETATM   16  H   UNL     1      22.528  48.607  50.582  1.00  0.00     0.162 HD
HETATM   17  O   UNL     1      23.712  49.424  47.728  1.00  0.00    -0.272 OA
BRANCH  15  18
HETATM   18  C   UNL     1      23.844  47.286  49.663  1.00  0.00     0.130 C 
BRANCH  18  19
HETATM   19  C   UNL     1      25.258  47.656  50.119  1.00  0.00     0.098 C 
BRANCH  19  20
HETATM   20  C   UNL     1      25.754  46.775  51.251  1.00  0.00     0.109 A 
HETATM   21  N   UNL     1      26.245  45.595  51.017  1.00  0.00    -0.234 NA
HETATM   22  C   UNL     1      26.671  44.831  52.122  1.00  0.00     0.074 A 
HETATM   23  C   UNL     1      26.540  45.276  53.442  1.00  0.00     0.061 A 
HETATM   24  C   UNL     1      27.251  43.581  51.895  1.00  0.00     0.032 A 
HETATM   25  C   UNL     1      25.937  46.601  53.653  1.00  0.00     0.259 A 
HETATM   26  C   UNL     1      26.971  44.497  54.519  1.00  0.00     0.019 A 
HETATM   27  O   UNL     1      25.758  47.072  54.768  1.00  0.00    -0.267 OA
HETATM   28  N   UNL     1      25.581  47.278  52.513  1.00  0.00    -0.311 N 
HETATM   29  H   UNL     1      25.175  48.191  52.672  1.00  0.00     0.170 HD
HETATM   30  C   UNL     1      27.546  43.250  54.276  1.00  0.00     0.001 A 
HETATM   31  C   UNL     1      27.687  42.794  52.965  1.00  0.00     0.002 A 
ENDBRANCH  19  20
ENDBRANCH  18  19
ENDBRANCH  15  18
ENDBRANCH  13  14
ENDBRANCH   6  13
BRANCH   1  32
HETATM   32  C   UNL     1      18.523  48.652  47.165  1.00  0.00     0.006 A 
HETATM   33  C   UNL     1      17.756  47.869  46.272  1.00  0.00     0.077 A 
HETATM   34  C   UNL     1      17.074  46.732  46.728  1.00  0.00     0.037 A 
HETATM   35  C   UNL     1      17.115  46.375  48.074  1.00  0.00     0.003 A 
HETATM   36  C   UNL     1      17.842  47.145  48.969  1.00  0.00     0.001 A 
HETATM   37  C   UNL     1      18.539  48.269  48.520  1.00  0.00     0.012 A 
BRANCH  33  38
HETATM   38  O   UNL     1      17.758  48.251  44.955  1.00  0.00    -0.355 OA
HETATM   39  C   UNL     1      16.569  48.881  44.480  1.00  0.00     0.210 C 
ENDBRANCH  33  38
ENDBRANCH   1  32
TORSDOF 7
ENDMDL
MODEL 7
REMARK VINA RESULT:      -9.1      1.756      3.020
REMARK  7 active torsions:
REMARK  status: ('A' for Active; 'I' for Inactive)
REMARK    1  A    between atoms: O_2  and  C_3 
REMARK    2  A    between atoms: C_4  and  C_5 
REMARK    3  A    between atoms: N_10  and  C_12 
REMARK    4  A    between atoms: C_12  and  C_13 
REMARK       I    between atoms: C_13  and  N_14 
REMARK    5  A    between atoms: N_14  and  C_15 
REMARK    6  A    between atoms: C_15  and  C_16 
REMARK    7  A    between atoms: C_16  and  C_17 
ROOT
HETATM    1  C   UNL     1      26.542  45.045  50.760  1.00  0.00     0.190 C 
HETATM    2  O   UNL     1      27.681  44.207  50.483  1.00  0.00    -0.339 OA
HETATM    3  C   UNL     1      27.870  43.160  51.330  1.00  0.00     0.077 A 
HETATM    4  C   UNL     1      26.969  42.096  51.408  1.00  0.00     0.001 A 
HETATM    5  C   UNL     1      25.765  42.034  50.523  1.00  0.00     0.276 C 
HETATM    6  N   UNL     1      24.765  43.138  50.742  1.00  0.00    -0.056 N 
HETATM    7  H   UNL     1      24.612  43.277  51.750  1.00  0.00     0.280 HD
HETATM    8  C   UNL     1      25.223  44.477  50.180  1.00  0.00     0.273 C 
HETATM    9  C   UNL     1      29.050  43.161  52.074  1.00  0.00     0.037 A 
HETATM   10  C   UNL     1      29.319  42.116  52.951  1.00  0.00     0.003 A 
HETATM   11  C   UNL     1      28.417  41.063  53.070  1.00  0.00     0.001 A 
HETATM   12  C   UNL     1      27.252  41.047  52.299  1.00  0.00     0.012 A 
ENDROOT
BRANCH   6  13
HETATM   13  C   UNL     1      23.390  42.737  50.194  1.00  0.00     0.337 C 
BRANCH  13  14
HETATM   14  C   UNL     1      22.969  43.562  48.977  1.00  0.00     0.243 C 
HETATM   15  N   UNL     1      22.273  44.703  49.278  1.00  0.00    -0.359 N 
HETATM   16  H   UNL     1      21.941  44.863  50.230  1.00  0.00     0.162 HD
HETATM   17  O   UNL     1      23.243  43.188  47.840  1.00  0.00    -0.272 OA
BRANCH  15  18
HETATM   18  C   UNL     1      21.552  45.484  48.284  1.00  0.00     0.130 C 
BRANCH  18  19
HETATM   19  C   UNL     1      20.087  45.679  48.683  1.00  0.00     0.098 C 
BRANCH  19  20
HETATM   20  C   UNL     1      19.756  47.127  48.995  1.00  0.00     0.109 A 
HETATM   21  N   UNL     1      20.091  48.083  48.182  1.00  0.00    -0.234 NA
HETATM   22  C   UNL     1      19.762  49.403  48.549  1.00  0.00     0.074 A 
HETATM   23  C   UNL     1      19.139  49.715  49.762  1.00  0.00     0.061 A 
HETATM   24  C   UNL     1      20.064  50.444  47.668  1.00  0.00     0.032 A 
HETATM   25  C   UNL     1      18.820  48.599  50.666  1.00  0.00     0.259 A 
HETATM   26  C   UNL     1      18.824  51.034  50.101  1.00  0.00     0.019 A 
HETATM   27  O   UNL     1      18.296  48.767  51.759  1.00  0.00    -0.267 OA
HETATM   28  N   UNL     1      19.155  47.350  50.206  1.00  0.00    -0.311 N 
HETATM   29  H   UNL     1      18.924  46.591  50.834  1.00  0.00     0.170 HD
HETATM   30  C   UNL     1      19.134  52.062  49.212  1.00  0.00     0.001 A 
HETATM   31  C   UNL     1      19.753  51.767  47.996  1.00  0.00     0.002 A 
ENDBRANCH  19  20
ENDBRANCH  18  19
ENDBRANCH  15  18
ENDBRANCH  13  14
ENDBRANCH   6  13
BRANCH   1  32
HETATM   32  C   UNL     1      26.464  45.677  52.156  1.00  0.00     0.006 A 
HETATM   33  C   UNL     1      25.983  46.997  52.311  1.00  0.00     0.077 A 
HETATM   34  C   UNL     1      25.888  47.575  53.585  1.00  0.00     0.037 A 
HETATM   35  C   UNL     1      26.296  46.869  54.714  1.00  0.00     0.003 A 
HETATM   36  C   UNL     1      26.795  45.582  54.579  1.00  0.00     0.001 A 
HETATM   37  C   UNL     1      26.875  44.992  53.316  1.00  0.00     0.012 A 
BRANCH  33  38
HETATM   38  O   UNL     1      25.579  47.646  51.172  1.00  0.00    -0.355 OA
HETATM   39  C   UNL     1      26.616  48.109  50.309  1.00  0.00     0.210 C 
ENDBRANCH  33  38
ENDBRANCH   1  32
TORSDOF 7
ENDMDL
MODEL 8
REMARK VINA RESULT:      -9.0      5.935      9.680
REMARK  7 active torsions:
REMARK  status: ('A' for Active; 'I' for Inactive)
REMARK    1  A    between atoms: O_2  and  C_3 
REMARK    2  A    between atoms: C_4  and  C_5 
REMARK    3  A    between atoms: N_10  and  C_12 
REMARK    4  A    between atoms: C_12  and  C_13 
REMARK       I    between atoms: C_13  and  N_14 
REMARK    5  A    between atoms: N_14  and  C_15 
REMARK    6  A    between atoms: C_15  and  C_16 
REMARK    7  A    between atoms: C_16  and  C_17 
ROOT
HETATM    1  C   UNL     1      25.677  39.615  48.201  1.00  0.00     0.190 C 
HETATM    2  O   UNL     1      25.429  39.352  46.806  1.00  0.00    -0.339 OA
HETATM    3  C   UNL     1      26.263  39.968  45.927  1.00  0.00     0.077 A 
HETATM    4  C   UNL     1      27.623  39.662  45.854  1.00  0.00     0.001 A 
HETATM    5  C   UNL     1      28.225  38.600  46.718  1.00  0.00     0.276 C 
HETATM    6  N   UNL     1      28.181  38.889  48.194  1.00  0.00    -0.056 N 
HETATM    7  H   UNL     1      28.460  39.864  48.369  1.00  0.00     0.280 HD
HETATM    8  C   UNL     1      26.791  38.716  48.793  1.00  0.00     0.273 C 
HETATM    9  C   UNL     1      25.681  40.877  45.043  1.00  0.00     0.037 A 
HETATM   10  C   UNL     1      26.468  41.536  44.105  1.00  0.00     0.003 A 
HETATM   11  C   UNL     1      27.833  41.271  44.039  1.00  0.00     0.001 A 
HETATM   12  C   UNL     1      28.408  40.335  44.902  1.00  0.00     0.012 A 
ENDROOT
BRANCH   6  13
HETATM   13  C   UNL     1      29.224  38.048  48.940  1.00  0.00     0.337 C 
BRANCH  13  14
HETATM   14  C   UNL     1      29.362  38.438  50.413  1.00  0.00     0.243 C 
HETATM   15  N   UNL     1      28.752  39.619  50.746  1.00  0.00    -0.359 N 
HETATM   16  H   UNL     1      28.394  40.234  50.015  1.00  0.00     0.162 HD
HETATM   17  O   UNL     1      29.989  37.728  51.194  1.00  0.00    -0.272 OA
BRANCH  15  18
HETATM   18  C   UNL     1      28.981  40.307  52.008  1.00  0.00     0.130 C 
BRANCH  18  19
HETATM   19  C   UNL     1      27.818  41.241  52.353  1.00  0.00     0.098 C 
BRANCH  19  20
HETATM   20  C   UNL     1      28.249  42.415  53.214  1.00  0.00     0.109 A 
HETATM   21  N   UNL     1      29.260  42.317  54.024  1.00  0.00    -0.234 NA
HETATM   22  C   UNL     1      29.589  43.446  54.800  1.00  0.00     0.074 A 
HETATM   23  C   UNL     1      28.847  44.631  54.761  1.00  0.00     0.061 A 
HETATM   24  C   UNL     1      30.704  43.385  55.641  1.00  0.00     0.032 A 
HETATM   25  C   UNL     1      27.686  44.673  53.858  1.00  0.00     0.259 A 
HETATM   26  C   UNL     1      29.197  45.736  55.543  1.00  0.00     0.019 A 
HETATM   27  O   UNL     1      26.960  45.653  53.767  1.00  0.00    -0.267 OA
HETATM   28  N   UNL     1      27.465  43.534  53.125  1.00  0.00    -0.311 N 
HETATM   29  H   UNL     1      26.669  43.579  52.503  1.00  0.00     0.170 HD
HETATM   30  C   UNL     1      30.310  45.659  56.378  1.00  0.00     0.001 A 
HETATM   31  C   UNL     1      31.063  44.485  56.426  1.00  0.00     0.002 A 
ENDBRANCH  19  20
ENDBRANCH  18  19
ENDBRANCH  15  18
ENDBRANCH  13  14
ENDBRANCH   6  13
BRANCH   1  32
HETATM   32  C   UNL     1      25.669  41.084  48.645  1.00  0.00     0.006 A 
HETATM   33  C   UNL     1      24.447  41.789  48.739  1.00  0.00     0.077 A 
HETATM   34  C   UNL     1      24.427  43.125  49.165  1.00  0.00     0.037 A 
HETATM   35  C   UNL     1      25.613  43.787  49.472  1.00  0.00     0.003 A 
HETATM   36  C   UNL     1      26.823  43.119  49.362  1.00  0.00     0.001 A 
HETATM   37  C   UNL     1      26.851  41.783  48.956  1.00  0.00     0.012 A 
BRANCH  33  38
HETATM   38  O   UNL     1      23.304  41.090  48.442  1.00  0.00    -0.355 OA
HETATM   39  C   UNL     1      22.610  41.493  47.262  1.00  0.00     0.210 C 
ENDBRANCH  33  38
ENDBRANCH   1  32
TORSDOF 7
ENDMDL
MODEL 9
REMARK VINA RESULT:      -9.0      2.401      9.097
REMARK  7 active torsions:
REMARK  status: ('A' for Active; 'I' for Inactive)
REMARK    1  A    between atoms: O_2  and  C_3 
REMARK    2  A    between atoms: C_4  and  C_5 
REMARK    3  A    between atoms: N_10  and  C_12 
REMARK    4  A    between atoms: C_12  and  C_13 
REMARK       I    between atoms: C_13  and  N_14 
REMARK    5  A    between atoms: N_14  and  C_15 
REMARK    6  A    between atoms: C_15  and  C_16 
REMARK    7  A    between atoms: C_16  and  C_17 
ROOT
HETATM    1  C   UNL     1      19.574  47.906  48.933  1.00  0.00     0.190 C 
HETATM    2  O   UNL     1      18.295  48.172  48.324  1.00  0.00    -0.339 OA
HETATM    3  C   UNL     1      18.311  48.403  46.984  1.00  0.00     0.077 A 
HETATM    4  C   UNL     1      18.664  47.414  46.064  1.00  0.00     0.001 A 
HETATM    5  C   UNL     1      19.003  46.027  46.510  1.00  0.00     0.276 C 
HETATM    6  N   UNL     1      20.234  45.926  47.370  1.00  0.00    -0.056 N 
HETATM    7  H   UNL     1      20.990  46.499  46.971  1.00  0.00     0.280 HD
HETATM    8  C   UNL     1      20.010  46.426  48.792  1.00  0.00     0.273 C 
HETATM    9  C   UNL     1      17.885  49.662  46.560  1.00  0.00     0.037 A 
HETATM   10  C   UNL     1      17.859  49.967  45.203  1.00  0.00     0.003 A 
HETATM   11  C   UNL     1      18.242  49.006  44.271  1.00  0.00     0.001 A 
HETATM   12  C   UNL     1      18.635  47.735  44.696  1.00  0.00     0.012 A 
ENDROOT
BRANCH   6  13
HETATM   13  C   UNL     1      20.786  44.495  47.357  1.00  0.00     0.337 C 
BRANCH  13  14
HETATM   14  C   UNL     1      22.311  44.443  47.446  1.00  0.00     0.243 C 
HETATM   15  N   UNL     1      22.806  44.469  48.723  1.00  0.00    -0.359 N 
HETATM   16  H   UNL     1      22.187  44.674  49.508  1.00  0.00     0.162 HD
HETATM   17  O   UNL     1      22.999  44.396  46.429  1.00  0.00    -0.272 OA
BRANCH  15  18
HETATM   18  C   UNL     1      24.210  44.698  49.032  1.00  0.00     0.130 C 
BRANCH  18  19
HETATM   19  C   UNL     1      24.420  46.058  49.702  1.00  0.00     0.098 C 
BRANCH  19  20
HETATM   20  C   UNL     1      25.283  45.967  50.947  1.00  0.00     0.109 A 
HETATM   21  N   UNL     1      26.085  44.962  51.136  1.00  0.00    -0.234 NA
HETATM   22  C   UNL     1      26.842  44.942  52.324  1.00  0.00     0.074 A 
HETATM   23  C   UNL     1      26.725  45.927  53.310  1.00  0.00     0.061 A 
HETATM   24  C   UNL     1      27.751  43.900  52.528  1.00  0.00     0.032 A 
HETATM   25  C   UNL     1      25.770  47.019  53.066  1.00  0.00     0.259 A 
HETATM   26  C   UNL     1      27.489  45.881  54.480  1.00  0.00     0.019 A 
HETATM   27  O   UNL     1      25.578  47.917  53.874  1.00  0.00    -0.267 OA
HETATM   28  N   UNL     1      25.102  46.964  51.868  1.00  0.00    -0.311 N 
HETATM   29  H   UNL     1      24.455  47.725  51.709  1.00  0.00     0.170 HD
HETATM   30  C   UNL     1      28.390  44.834  54.669  1.00  0.00     0.001 A 
HETATM   31  C   UNL     1      28.521  43.845  53.693  1.00  0.00     0.002 A 
ENDBRANCH  19  20
ENDBRANCH  18  19
ENDBRANCH  15  18
ENDBRANCH  13  14
ENDBRANCH   6  13
BRANCH   1  32
HETATM   32  C   UNL     1      20.667  48.966  48.749  1.00  0.00     0.006 A 
HETATM   33  C   UNL     1      20.512  50.251  49.319  1.00  0.00     0.077 A 
HETATM   34  C   UNL     1      21.515  51.220  49.175  1.00  0.00     0.037 A 
HETATM   35  C   UNL     1      22.667  50.942  48.443  1.00  0.00     0.003 A 
HETATM   36  C   UNL     1      22.826  49.696  47.856  1.00  0.00     0.001 A 
HETATM   37  C   UNL     1      21.839  48.718  48.009  1.00  0.00     0.012 A 
BRANCH  33  38
HETATM   38  O   UNL     1      19.368  50.472  50.044  1.00  0.00    -0.355 OA
HETATM   39  C   UNL     1      18.738  51.738  49.855  1.00  0.00     0.210 C 
ENDBRANCH  33  38
ENDBRANCH   1  32
TORSDOF 7
ENDMDL
MODEL 10
REMARK VINA RESULT:      -8.9      3.630     10.315
REMARK  7 active torsions:
REMARK  status: ('A' for Active; 'I' for Inactive)
REMARK    1  A    between atoms: O_2  and  C_3 
REMARK    2  A    between atoms: C_4  and  C_5 
REMARK    3  A    between atoms: N_10  and  C_12 
REMARK    4  A    between atoms: C_12  and  C_13 
REMARK       I    between atoms: C_13  and  N_14 
REMARK    5  A    between atoms: N_14  and  C_15 
REMARK    6  A    between atoms: C_15  and  C_16 
REMARK    7  A    between atoms: C_16  and  C_17 
ROOT
HETATM    1  C   UNL     1      16.194  49.820  47.648  1.00  0.00     0.190 C 
HETATM    2  O   UNL     1      15.310  50.555  46.779  1.00  0.00    -0.339 OA
HETATM    3  C   UNL     1      15.897  51.177  45.722  1.00  0.00     0.077 A 
HETATM    4  C   UNL     1      16.502  50.465  44.684  1.00  0.00     0.001 A 
HETATM    5  C   UNL     1      16.494  48.970  44.663  1.00  0.00     0.276 C 
HETATM    6  N   UNL     1      17.246  48.321  45.793  1.00  0.00    -0.056 N 
HETATM    7  H   UNL     1      18.150  48.793  45.930  1.00  0.00     0.280 HD
HETATM    8  C   UNL     1      16.506  48.397  47.123  1.00  0.00     0.273 C 
HETATM    9  C   UNL     1      15.805  52.568  45.684  1.00  0.00     0.037 A 
HETATM   10  C   UNL     1      16.369  53.273  44.625  1.00  0.00     0.003 A 
HETATM   11  C   UNL     1      17.007  52.584  43.598  1.00  0.00     0.001 A 
HETATM   12  C   UNL     1      17.068  51.189  43.621  1.00  0.00     0.012 A 
ENDROOT
BRANCH   6  13
HETATM   13  C   UNL     1      17.615  46.876  45.436  1.00  0.00     0.337 C 
BRANCH  13  14
HETATM   14  C   UNL     1      19.093  46.562  45.670  1.00  0.00     0.243 C 
HETATM   15  N   UNL     1      19.557  46.908  46.912  1.00  0.00    -0.359 N 
HETATM   16  H   UNL     1      18.979  47.473  47.534  1.00  0.00     0.162 HD
HETATM   17  O   UNL     1      19.775  46.054  44.783  1.00  0.00    -0.272 OA
BRANCH  15  18
HETATM   18  C   UNL     1      20.971  46.949  47.254  1.00  0.00     0.130 C 
BRANCH  18  19
HETATM   19  C   UNL     1      21.227  47.853  48.463  1.00  0.00     0.098 C 
BRANCH  19  20
HETATM   20  C   UNL     1      22.702  47.970  48.800  1.00  0.00     0.109 A 
HETATM   21  N   UNL     1      23.441  48.895  48.265  1.00  0.00    -0.234 NA
HETATM   22  C   UNL     1      24.805  48.930  48.618  1.00  0.00     0.074 A 
HETATM   23  C   UNL     1      25.387  47.989  49.473  1.00  0.00     0.061 A 
HETATM   24  C   UNL     1      25.611  49.947  48.098  1.00  0.00     0.032 A 
HETATM   25  C   UNL     1      24.514  46.937  50.016  1.00  0.00     0.259 A 
HETATM   26  C   UNL     1      26.744  48.048  49.805  1.00  0.00     0.019 A 
HETATM   27  O   UNL     1      24.930  46.054  50.755  1.00  0.00    -0.267 OA
HETATM   28  N   UNL     1      23.197  47.005  49.636  1.00  0.00    -0.311 N 
HETATM   29  H   UNL     1      22.607  46.281  50.023  1.00  0.00     0.170 HD
HETATM   30  C   UNL     1      27.535  49.067  49.277  1.00  0.00     0.001 A 
HETATM   31  C   UNL     1      26.968  50.016  48.425  1.00  0.00     0.002 A 
ENDBRANCH  19  20
ENDBRANCH  18  19
ENDBRANCH  15  18
ENDBRANCH  13  14
ENDBRANCH   6  13
BRANCH   1  32
HETATM   32  C   UNL     1      17.362  50.595  48.272  1.00  0.00     0.006 A 
HETATM   33  C   UNL     1      17.121  51.528  49.307  1.00  0.00     0.077 A 
HETATM   34  C   UNL     1      18.184  52.225  49.898  1.00  0.00     0.037 A 
HETATM   35  C   UNL     1      19.490  52.032  49.455  1.00  0.00     0.003 A 
HETATM   36  C   UNL     1      19.743  51.140  48.424  1.00  0.00     0.001 A 
HETATM   37  C   UNL     1      18.692  50.427  47.841  1.00  0.00     0.012 A 
BRANCH  33  38
HETATM   38  O   UNL     1      15.821  51.672  49.721  1.00  0.00    -0.355 OA
HETATM   39  C   UNL     1      15.311  53.004  49.742  1.00  0.00     0.210 C 
ENDBRANCH  33  38
ENDBRANCH   1  32
TORSDOF 7
ENDMDL
