MODEL 1
REMARK VINA RESULT:      -9.2      0.000      0.000
REMARK  4 active torsions:
REMARK  status: ('A' for Active; 'I' for Inactive)
REMARK    1  A    between atoms: O_2  and  C_3 
REMARK    2  A    between atoms: C_4  and  N_5 
REMARK    3  A    between atoms: C_14  and  C_15 
REMARK       I    between atoms: C_15  and  N_16 
REMARK    4  A    between atoms: N_16  and  C_17 
ROOT
HETATM    1  N   UNL     1      24.741  46.993  50.532  1.00  0.00    -0.221 NA
HETATM    2  C   UNL     1      24.318  45.805  50.214  1.00  0.00     0.186 C 
HETATM    3  O   UNL     1      23.605  45.588  49.041  1.00  0.00    -0.290 OA
HETATM    4  C   UNL     1      23.316  44.288  48.592  1.00  0.00     0.088 A 
HETATM    5  C   UNL     1      23.635  43.184  49.370  1.00  0.00    -0.001 A 
HETATM    6  C   UNL     1      22.722  44.156  47.339  1.00  0.00     0.038 A 
HETATM    7  C   UNL     1      22.445  42.880  46.853  1.00  0.00     0.003 A 
HETATM    8  C   UNL     1      22.759  41.757  47.622  1.00  0.00     0.001 A 
HETATM    9  C   UNL     1      23.351  41.908  48.880  1.00  0.00     0.014 A 
HETATM   10  C   UNL     1      24.570  44.633  51.091  1.00  0.00     0.086 C 
HETATM   11  C   UNL     1      24.244  43.397  50.672  1.00  0.00     0.035 C 
ENDROOT
BRANCH  10  12
HETATM   12  C   UNL     1      25.176  44.735  52.469  1.00  0.00     0.260 C 
HETATM   13  N   UNL     1      26.435  45.292  52.506  1.00  0.00    -0.323 N 
HETATM   14  H   UNL     1      26.840  45.552  51.603  1.00  0.00     0.169 HD
HETATM   15  O   UNL     1      24.544  44.341  53.448  1.00  0.00    -0.267 OA
BRANCH  13  16
HETATM   16  C   UNL     1      27.257  45.532  53.624  1.00  0.00     0.035 A 
HETATM   17  C   UNL     1      28.210  44.634  54.107  1.00  0.00     0.029 A 
HETATM   18  C   UNL     1      28.986  44.959  55.224  1.00  0.00     0.002 A 
HETATM   19  C   UNL     1      28.815  46.183  55.867  1.00  0.00     0.000 A 
HETATM   20  C   UNL     1      27.865  47.085  55.396  1.00  0.00     0.002 A 
HETATM   21  C   UNL     1      27.089  46.760  54.280  1.00  0.00     0.029 A 
ENDBRANCH  13  16
ENDBRANCH  10  12
BRANCH   1  22
HETATM   22  C   UNL     1      24.428  48.092  49.710  1.00  0.00     0.093 A 
HETATM   23  C   UNL     1      25.457  48.766  49.024  1.00  0.00     0.097 A 
HETATM   24  C   UNL     1      25.147  49.851  48.195  1.00  0.00     0.039 A 
HETATM   25  C   UNL     1      23.817  50.238  48.013  1.00  0.00     0.003 A 
HETATM   26  C   UNL     1      22.792  49.546  48.653  1.00  0.00     0.002 A 
HETATM   27  C   UNL     1      23.097  48.473  49.490  1.00  0.00     0.034 A 
BRANCH  23  28
HETATM   28  O   UNL     1      26.736  48.313  49.248  1.00  0.00    -0.354 OA
HETATM   29  C   UNL     1      27.773  49.271  49.086  1.00  0.00     0.210 C 
ENDBRANCH  23  28
ENDBRANCH   1  22
TORSDOF 4
ENDMDL
MODEL 2
REMARK VINA RESULT:      -9.1      3.730      7.696
REMARK  4 active torsions:
REMARK  status: ('A' for Active; 'I' for Inactive)
REMARK    1  A    between atoms: O_2  and  C_3 
REMARK    2  A    between atoms: C_4  and  N_5 
REMARK    3  A    between atoms: C_14  and  C_15 
REMARK       I    between atoms: C_15  and  N_16 
REMARK    4  A    between atoms: N_16  and  C_17 
ROOT
HETATM    1  N   UNL     1      27.220  43.341  51.475  1.00  0.00    -0.221 NA
HETATM    2  C   UNL     1      28.121  43.332  52.412  1.00  0.00     0.186 C 
HETATM    3  O   UNL     1      28.389  44.473  53.160  1.00  0.00    -0.290 OA
HETATM    4  C   UNL     1      29.214  44.423  54.297  1.00  0.00     0.088 A 
HETATM    5  C   UNL     1      29.879  43.253  54.638  1.00  0.00    -0.001 A 
HETATM    6  C   UNL     1      29.318  45.578  55.068  1.00  0.00     0.038 A 
HETATM    7  C   UNL     1      30.108  45.555  56.217  1.00  0.00     0.003 A 
HETATM    8  C   UNL     1      30.784  44.386  56.576  1.00  0.00     0.001 A 
HETATM    9  C   UNL     1      30.672  43.237  55.787  1.00  0.00     0.014 A 
HETATM   10  C   UNL     1      28.908  42.110  52.718  1.00  0.00     0.086 C 
HETATM   11  C   UNL     1      29.732  42.089  53.781  1.00  0.00     0.035 C 
ENDROOT
BRANCH  10  12
HETATM   12  C   UNL     1      28.853  40.852  51.887  1.00  0.00     0.260 C 
HETATM   13  N   UNL     1      28.688  41.060  50.536  1.00  0.00    -0.323 N 
HETATM   14  H   UNL     1      28.592  42.033  50.237  1.00  0.00     0.169 HD
HETATM   15  O   UNL     1      28.961  39.754  52.430  1.00  0.00    -0.267 OA
BRANCH  13  16
HETATM   16  C   UNL     1      28.610  40.104  49.504  1.00  0.00     0.035 A 
HETATM   17  C   UNL     1      29.044  38.783  49.621  1.00  0.00     0.029 A 
HETATM   18  C   UNL     1      28.923  37.900  48.543  1.00  0.00     0.002 A 
HETATM   19  C   UNL     1      28.365  38.331  47.341  1.00  0.00     0.000 A 
HETATM   20  C   UNL     1      27.932  39.647  47.213  1.00  0.00     0.002 A 
HETATM   21  C   UNL     1      28.055  40.530  48.289  1.00  0.00     0.029 A 
ENDBRANCH  13  16
ENDBRANCH  10  12
BRANCH   1  22
HETATM   22  C   UNL     1      26.539  44.535  51.168  1.00  0.00     0.093 A 
HETATM   23  C   UNL     1      25.419  44.917  51.933  1.00  0.00     0.097 A 
HETATM   24  C   UNL     1      24.749  46.111  51.638  1.00  0.00     0.039 A 
HETATM   25  C   UNL     1      25.214  46.944  50.619  1.00  0.00     0.003 A 
HETATM   26  C   UNL     1      26.349  46.594  49.891  1.00  0.00     0.002 A 
HETATM   27  C   UNL     1      27.012  45.399  50.171  1.00  0.00     0.034 A 
BRANCH  23  28
HETATM   28  O   UNL     1      25.035  44.047  52.925  1.00  0.00    -0.354 OA
HETATM   29  C   UNL     1      25.133  44.537  54.256  1.00  0.00     0.210 C 
ENDBRANCH  23  28
ENDBRANCH   1  22
TORSDOF 4
ENDMDL
MODEL 3
REMARK VINA RESULT:      -9.0      2.231      7.669
REMARK  4 active torsions:
REMARK  status: ('A' for Active; 'I' for Inactive)
REMARK    1  A    between atoms: O_2  and  C_3 
REMARK    2  A    between atoms: C_4  and  N_5 
REMARK    3  A    between atoms: C_14  and  C_15 
REMARK       I    between atoms: C_15  and  N_16 
REMARK    4  A    between atoms: N_16  and  C_17 
ROOT
HETATM    1  N   UNL     1      26.630  44.053  51.359  1.00  0.00    -0.221 NA
HETATM    2  C   UNL     1      27.204  44.460  52.453  1.00  0.00     0.186 C 
HETATM    3  O   UNL     1      27.987  43.600  53.214  1.00  0.00    -0.290 OA
HETATM    4  C   UNL     1      28.766  44.075  54.283  1.00  0.00     0.088 A 
HETATM    5  C   UNL     1      28.684  45.402  54.682  1.00  0.00    -0.001 A 
HETATM    6  C   UNL     1      29.627  43.174  54.903  1.00  0.00     0.038 A 
HETATM    7  C   UNL     1      30.433  43.619  55.950  1.00  0.00     0.003 A 
HETATM    8  C   UNL     1      30.364  44.951  56.365  1.00  0.00     0.001 A 
HETATM    9  C   UNL     1      29.490  45.842  55.735  1.00  0.00     0.014 A 
HETATM   10  C   UNL     1      27.041  45.853  52.941  1.00  0.00     0.086 C 
HETATM   11  C   UNL     1      27.756  46.284  53.996  1.00  0.00     0.035 C 
ENDROOT
BRANCH  10  12
HETATM   12  C   UNL     1      26.092  46.850  52.322  1.00  0.00     0.260 C 
HETATM   13  N   UNL     1      26.144  46.919  50.947  1.00  0.00    -0.323 N 
HETATM   14  H   UNL     1      26.832  46.315  50.490  1.00  0.00     0.169 HD
HETATM   15  O   UNL     1      25.348  47.516  53.040  1.00  0.00    -0.267 OA
BRANCH  13  16
HETATM   16  C   UNL     1      25.388  47.732  50.081  1.00  0.00     0.035 A 
HETATM   17  C   UNL     1      24.010  47.615  49.894  1.00  0.00     0.029 A 
HETATM   18  C   UNL     1      23.340  48.471  49.014  1.00  0.00     0.002 A 
HETATM   19  C   UNL     1      24.042  49.450  48.314  1.00  0.00     0.000 A 
HETATM   20  C   UNL     1      25.417  49.573  48.490  1.00  0.00     0.002 A 
HETATM   21  C   UNL     1      26.087  48.717  49.369  1.00  0.00     0.029 A 
ENDBRANCH  13  16
ENDBRANCH  10  12
BRANCH   1  22
HETATM   22  C   UNL     1      26.752  42.708  50.961  1.00  0.00     0.093 A 
HETATM   23  C   UNL     1      25.595  41.953  50.687  1.00  0.00     0.097 A 
HETATM   24  C   UNL     1      25.714  40.619  50.278  1.00  0.00     0.039 A 
HETATM   25  C   UNL     1      26.977  40.050  50.099  1.00  0.00     0.003 A 
HETATM   26  C   UNL     1      28.125  40.807  50.323  1.00  0.00     0.002 A 
HETATM   27  C   UNL     1      28.011  42.131  50.744  1.00  0.00     0.034 A 
BRANCH  23  28
HETATM   28  O   UNL     1      24.393  42.593  50.877  1.00  0.00    -0.354 OA
HETATM   29  C   UNL     1      23.570  42.726  49.725  1.00  0.00     0.210 C 
ENDBRANCH  23  28
ENDBRANCH   1  22
TORSDOF 4
ENDMDL
MODEL 4
REMARK VINA RESULT:      -8.9      3.759      4.987
REMARK  4 active torsions:
REMARK  status: ('A' for Active; 'I' for Inactive)
REMARK    1  A    between atoms: O_2  and  C_3 
REMARK    2  A    between atoms: C_4  and  N_5 
REMARK    3  A    between atoms: C_14  and  C_15 
REMARK       I    between atoms: C_15  and  N_16 
REMARK    4  A    between atoms: N_16  and  C_17 
ROOT
HETATM    1  N   UNL     1      26.415  42.746  51.162  1.00  0.00    -0.221 NA
HETATM    2  C   UNL     1      27.004  41.670  50.731  1.00  0.00     0.186 C 
HETATM    3  O   UNL     1      26.608  41.061  49.546  1.00  0.00    -0.290 OA
HETATM    4  C   UNL     1      27.359  40.020  48.973  1.00  0.00     0.088 A 
HETATM    5  C   UNL     1      28.457  39.492  49.639  1.00  0.00    -0.001 A 
HETATM    6  C   UNL     1      26.971  39.562  47.717  1.00  0.00     0.038 A 
HETATM    7  C   UNL     1      27.710  38.548  47.109  1.00  0.00     0.003 A 
HETATM    8  C   UNL     1      28.818  38.004  47.763  1.00  0.00     0.001 A 
HETATM    9  C   UNL     1      29.190  38.473  49.027  1.00  0.00     0.014 A 
HETATM   10  C   UNL     1      28.116  41.040  51.488  1.00  0.00     0.086 C 
HETATM   11  C   UNL     1      28.797  40.012  50.952  1.00  0.00     0.035 C 
ENDROOT
BRANCH  10  12
HETATM   12  C   UNL     1      28.544  41.480  52.866  1.00  0.00     0.260 C 
HETATM   13  N   UNL     1      29.003  42.777  52.941  1.00  0.00    -0.323 N 
HETATM   14  H   UNL     1      29.035  43.296  52.060  1.00  0.00     0.169 HD
HETATM   15  O   UNL     1      28.458  40.701  53.813  1.00  0.00    -0.267 OA
BRANCH  13  16
HETATM   16  C   UNL     1      29.462  43.482  54.071  1.00  0.00     0.035 A 
HETATM   17  C   UNL     1      30.601  43.141  54.801  1.00  0.00     0.029 A 
HETATM   18  C   UNL     1      30.985  43.903  55.910  1.00  0.00     0.002 A 
HETATM   19  C   UNL     1      30.233  45.010  56.296  1.00  0.00     0.000 A 
HETATM   20  C   UNL     1      29.093  45.356  55.577  1.00  0.00     0.002 A 
HETATM   21  C   UNL     1      28.709  44.595  54.470  1.00  0.00     0.029 A 
ENDBRANCH  13  16
ENDBRANCH  10  12
BRANCH   1  22
HETATM   22  C   UNL     1      25.321  43.278  50.453  1.00  0.00     0.093 A 
HETATM   23  C   UNL     1      25.527  44.333  49.541  1.00  0.00     0.097 A 
HETATM   24  C   UNL     1      24.443  44.854  48.824  1.00  0.00     0.039 A 
HETATM   25  C   UNL     1      23.169  44.304  48.979  1.00  0.00     0.003 A 
HETATM   26  C   UNL     1      22.969  43.231  49.844  1.00  0.00     0.002 A 
HETATM   27  C   UNL     1      24.042  42.716  50.571  1.00  0.00     0.034 A 
BRANCH  23  28
HETATM   28  O   UNL     1      26.813  44.807  49.439  1.00  0.00    -0.354 OA
HETATM   29  C   UNL     1      26.973  46.211  49.591  1.00  0.00     0.210 C 
ENDBRANCH  23  28
ENDBRANCH   1  22
TORSDOF 4
ENDMDL
MODEL 5
REMARK VINA RESULT:      -8.7      0.920      1.005
REMARK  4 active torsions:
REMARK  status: ('A' for Active; 'I' for Inactive)
REMARK    1  A    between atoms: O_2  and  C_3 
REMARK    2  A    between atoms: C_4  and  N_5 
REMARK    3  A    between atoms: C_14  and  C_15 
REMARK       I    between atoms: C_15  and  N_16 
REMARK    4  A    between atoms: N_16  and  C_17 
ROOT
HETATM    1  N   UNL     1      24.099  47.243  50.123  1.00  0.00    -0.221 NA
HETATM    2  C   UNL     1      23.968  46.028  49.681  1.00  0.00     0.186 C 
HETATM    3  O   UNL     1      23.376  45.772  48.450  1.00  0.00    -0.290 OA
HETATM    4  C   UNL     1      23.405  44.488  47.878  1.00  0.00     0.088 A 
HETATM    5  C   UNL     1      23.928  43.412  48.583  1.00  0.00    -0.001 A 
HETATM    6  C   UNL     1      22.913  44.349  46.583  1.00  0.00     0.038 A 
HETATM    7  C   UNL     1      22.952  43.095  45.977  1.00  0.00     0.003 A 
HETATM    8  C   UNL     1      23.474  42.000  46.670  1.00  0.00     0.001 A 
HETATM    9  C   UNL     1      23.959  42.157  47.972  1.00  0.00     0.014 A 
HETATM   10  C   UNL     1      24.435  44.861  50.474  1.00  0.00     0.086 C 
HETATM   11  C   UNL     1      24.414  43.630  49.935  1.00  0.00     0.035 C 
ENDROOT
BRANCH  10  12
HETATM   12  C   UNL     1      24.940  44.963  51.892  1.00  0.00     0.260 C 
HETATM   13  N   UNL     1      25.982  45.845  52.072  1.00  0.00    -0.323 N 
HETATM   14  H   UNL     1      26.326  46.316  51.231  1.00  0.00     0.169 HD
HETATM   15  O   UNL     1      24.416  44.291  52.779  1.00  0.00    -0.267 OA
BRANCH  13  16
HETATM   16  C   UNL     1      26.662  46.170  53.262  1.00  0.00     0.035 A 
HETATM   17  C   UNL     1      27.634  45.365  53.858  1.00  0.00     0.029 A 
HETATM   18  C   UNL     1      28.261  45.770  55.040  1.00  0.00     0.002 A 
HETATM   19  C   UNL     1      27.922  46.983  55.636  1.00  0.00     0.000 A 
HETATM   20  C   UNL     1      26.951  47.792  55.051  1.00  0.00     0.002 A 
HETATM   21  C   UNL     1      26.324  47.386  53.871  1.00  0.00     0.029 A 
ENDBRANCH  13  16
ENDBRANCH  10  12
BRANCH   1  22
HETATM   22  C   UNL     1      23.586  48.320  49.375  1.00  0.00     0.093 A 
HETATM   23  C   UNL     1      24.468  49.264  48.813  1.00  0.00     0.097 A 
HETATM   24  C   UNL     1      23.961  50.327  48.057  1.00  0.00     0.039 A 
HETATM   25  C   UNL     1      22.588  50.431  47.823  1.00  0.00     0.003 A 
HETATM   26  C   UNL     1      21.716  49.475  48.338  1.00  0.00     0.002 A 
HETATM   27  C   UNL     1      22.214  48.421  49.103  1.00  0.00     0.034 A 
BRANCH  23  28
HETATM   28  O   UNL     1      25.804  49.081  49.080  1.00  0.00    -0.354 OA
HETATM   29  C   UNL     1      26.707  49.862  48.307  1.00  0.00     0.210 C 
ENDBRANCH  23  28
ENDBRANCH   1  22
TORSDOF 4
ENDMDL
MODEL 6
REMARK VINA RESULT:      -8.6      3.151      8.060
REMARK  4 active torsions:
REMARK  status: ('A' for Active; 'I' for Inactive)
REMARK    1  A    between atoms: O_2  and  C_3 
REMARK    2  A    between atoms: C_4  and  N_5 
REMARK    3  A    between atoms: C_14  and  C_15 
REMARK       I    between atoms: C_15  and  N_16 
REMARK    4  A    between atoms: N_16  and  C_17 
ROOT
HETATM    1  N   UNL     1      27.134  42.489  51.100  1.00  0.00    -0.221 NA
HETATM    2  C   UNL     1      27.510  43.110  52.178  1.00  0.00     0.186 C 
HETATM    3  O   UNL     1      28.600  42.668  52.918  1.00  0.00    -0.290 OA
HETATM    4  C   UNL     1      29.132  43.438  53.966  1.00  0.00     0.088 A 
HETATM    5  C   UNL     1      28.510  44.612  54.368  1.00  0.00    -0.001 A 
HETATM    6  C   UNL     1      30.307  42.989  54.564  1.00  0.00     0.038 A 
HETATM    7  C   UNL     1      30.876  43.742  55.589  1.00  0.00     0.003 A 
HETATM    8  C   UNL     1      30.264  44.927  56.006  1.00  0.00     0.001 A 
HETATM    9  C   UNL     1      29.081  45.361  55.399  1.00  0.00     0.014 A 
HETATM   10  C   UNL     1      26.788  44.312  52.671  1.00  0.00     0.086 C 
HETATM   11  C   UNL     1      27.280  45.015  53.706  1.00  0.00     0.035 C 
ENDROOT
BRANCH  10  12
HETATM   12  C   UNL     1      25.494  44.811  52.077  1.00  0.00     0.260 C 
HETATM   13  N   UNL     1      25.634  45.540  50.918  1.00  0.00    -0.323 N 
HETATM   14  H   UNL     1      26.593  45.694  50.594  1.00  0.00     0.169 HD
HETATM   15  O   UNL     1      24.426  44.548  52.627  1.00  0.00    -0.267 OA
BRANCH  13  16
HETATM   16  C   UNL     1      24.630  46.130  50.125  1.00  0.00     0.035 A 
HETATM   17  C   UNL     1      24.351  47.496  50.098  1.00  0.00     0.029 A 
HETATM   18  C   UNL     1      23.336  47.995  49.275  1.00  0.00     0.002 A 
HETATM   19  C   UNL     1      22.593  47.132  48.472  1.00  0.00     0.000 A 
HETATM   20  C   UNL     1      22.862  45.766  48.494  1.00  0.00     0.002 A 
HETATM   21  C   UNL     1      23.876  45.268  49.317  1.00  0.00     0.029 A 
ENDBRANCH  13  16
ENDBRANCH  10  12
BRANCH   1  22
HETATM   22  C   UNL     1      27.801  41.315  50.699  1.00  0.00     0.093 A 
HETATM   23  C   UNL     1      27.913  41.010  49.328  1.00  0.00     0.097 A 
HETATM   24  C   UNL     1      28.588  39.851  48.926  1.00  0.00     0.039 A 
HETATM   25  C   UNL     1      29.186  39.021  49.876  1.00  0.00     0.003 A 
HETATM   26  C   UNL     1      29.118  39.343  51.230  1.00  0.00     0.002 A 
HETATM   27  C   UNL     1      28.435  40.489  51.637  1.00  0.00     0.034 A 
BRANCH  23  28
HETATM   28  O   UNL     1      27.308  41.886  48.458  1.00  0.00    -0.354 OA
HETATM   29  C   UNL     1      26.173  41.387  47.761  1.00  0.00     0.210 C 
ENDBRANCH  23  28
ENDBRANCH   1  22
TORSDOF 4
ENDMDL
MODEL 7
REMARK VINA RESULT:      -8.5      1.664      7.303
REMARK  4 active torsions:
REMARK  status: ('A' for Active; 'I' for Inactive)
REMARK    1  A    between atoms: O_2  and  C_3 
REMARK    2  A    between atoms: C_4  and  N_5 
REMARK    3  A    between atoms: C_14  and  C_15 
REMARK       I    between atoms: C_15  and  N_16 
REMARK    4  A    between atoms: N_16  and  C_17 
ROOT
HETATM    1  N   UNL     1      24.759  44.962  49.390  1.00  0.00    -0.221 NA
HETATM    2  C   UNL     1      25.213  45.329  50.552  1.00  0.00     0.186 C 
HETATM    3  O   UNL     1      25.602  44.390  51.499  1.00  0.00    -0.290 OA
HETATM    4  C   UNL     1      26.273  44.772  52.674  1.00  0.00     0.088 A 
HETATM    5  C   UNL     1      26.461  46.115  52.975  1.00  0.00    -0.001 A 
HETATM    6  C   UNL     1      26.751  43.760  53.501  1.00  0.00     0.038 A 
HETATM    7  C   UNL     1      27.443  44.104  54.661  1.00  0.00     0.003 A 
HETATM    8  C   UNL     1      27.643  45.450  54.981  1.00  0.00     0.001 A 
HETATM    9  C   UNL     1      27.151  46.454  54.141  1.00  0.00     0.014 A 
HETATM   10  C   UNL     1      25.325  46.764  50.921  1.00  0.00     0.086 C 
HETATM   11  C   UNL     1      25.925  47.117  52.071  1.00  0.00     0.035 C 
ENDROOT
BRANCH  10  12
HETATM   12  C   UNL     1      24.787  47.890  50.072  1.00  0.00     0.260 C 
HETATM   13  N   UNL     1      23.415  47.914  49.949  1.00  0.00    -0.323 N 
HETATM   14  H   UNL     1      22.906  47.158  50.415  1.00  0.00     0.169 HD
HETATM   15  O   UNL     1      25.561  48.698  49.562  1.00  0.00    -0.267 OA
BRANCH  13  16
HETATM   16  C   UNL     1      22.614  48.830  49.241  1.00  0.00     0.035 A 
HETATM   17  C   UNL     1      22.770  50.216  49.294  1.00  0.00     0.029 A 
HETATM   18  C   UNL     1      21.929  51.052  48.553  1.00  0.00     0.002 A 
HETATM   19  C   UNL     1      20.926  50.510  47.752  1.00  0.00     0.000 A 
HETATM   20  C   UNL     1      20.760  49.129  47.694  1.00  0.00     0.002 A 
HETATM   21  C   UNL     1      21.600  48.294  48.436  1.00  0.00     0.029 A 
ENDBRANCH  13  16
ENDBRANCH  10  12
BRANCH   1  22
HETATM   22  C   UNL     1      24.604  43.593  49.099  1.00  0.00     0.093 A 
HETATM   23  C   UNL     1      23.311  43.050  48.962  1.00  0.00     0.097 A 
HETATM   24  C   UNL     1      23.155  41.692  48.659  1.00  0.00     0.039 A 
HETATM   25  C   UNL     1      24.275  40.886  48.448  1.00  0.00     0.003 A 
HETATM   26  C   UNL     1      25.555  41.429  48.536  1.00  0.00     0.002 A 
HETATM   27  C   UNL     1      25.717  42.778  48.851  1.00  0.00     0.034 A 
BRANCH  23  28
HETATM   28  O   UNL     1      22.263  43.915  49.173  1.00  0.00    -0.354 OA
HETATM   29  C   UNL     1      21.600  44.386  48.007  1.00  0.00     0.210 C 
ENDBRANCH  23  28
ENDBRANCH   1  22
TORSDOF 4
ENDMDL
MODEL 8
REMARK VINA RESULT:      -8.5      1.802      6.847
REMARK  4 active torsions:
REMARK  status: ('A' for Active; 'I' for Inactive)
REMARK    1  A    between atoms: O_2  and  C_3 
REMARK    2  A    between atoms: C_4  and  N_5 
REMARK    3  A    between atoms: C_14  and  C_15 
REMARK       I    between atoms: C_15  and  N_16 
REMARK    4  A    between atoms: N_16  and  C_17 
ROOT
HETATM    1  N   UNL     1      24.939  44.262  49.852  1.00  0.00    -0.221 NA
HETATM    2  C   UNL     1      25.683  44.258  50.918  1.00  0.00     0.186 C 
HETATM    3  O   UNL     1      26.212  43.075  51.418  1.00  0.00    -0.290 OA
HETATM    4  C   UNL     1      27.171  43.080  52.446  1.00  0.00     0.088 A 
HETATM    5  C   UNL     1      27.530  44.267  53.072  1.00  0.00    -0.001 A 
HETATM    6  C   UNL     1      27.752  41.863  52.792  1.00  0.00     0.038 A 
HETATM    7  C   UNL     1      28.725  41.837  53.790  1.00  0.00     0.003 A 
HETATM    8  C   UNL     1      29.099  43.021  54.430  1.00  0.00     0.001 A 
HETATM    9  C   UNL     1      28.501  44.234  54.074  1.00  0.00     0.014 A 
HETATM   10  C   UNL     1      25.991  45.512  51.652  1.00  0.00     0.086 C 
HETATM   11  C   UNL     1      26.874  45.498  52.666  1.00  0.00     0.035 C 
ENDROOT
BRANCH  10  12
HETATM   12  C   UNL     1      25.356  46.844  51.335  1.00  0.00     0.260 C 
HETATM   13  N   UNL     1      25.115  47.064  49.997  1.00  0.00    -0.323 N 
HETATM   14  H   UNL     1      25.413  46.323  49.356  1.00  0.00     0.169 HD
HETATM   15  O   UNL     1      25.090  47.628  52.243  1.00  0.00    -0.267 OA
BRANCH  13  16
HETATM   16  C   UNL     1      24.531  48.189  49.384  1.00  0.00     0.035 A 
HETATM   17  C   UNL     1      23.158  48.431  49.329  1.00  0.00     0.029 A 
HETATM   18  C   UNL     1      22.666  49.580  48.701  1.00  0.00     0.002 A 
HETATM   19  C   UNL     1      23.543  50.497  48.125  1.00  0.00     0.000 A 
HETATM   20  C   UNL     1      24.915  50.263  48.171  1.00  0.00     0.002 A 
HETATM   21  C   UNL     1      25.406  49.114  48.797  1.00  0.00     0.029 A 
ENDBRANCH  13  16
ENDBRANCH  10  12
BRANCH   1  22
HETATM   22  C   UNL     1      24.613  43.047  49.219  1.00  0.00     0.093 A 
HETATM   23  C   UNL     1      23.261  42.675  49.075  1.00  0.00     0.097 A 
HETATM   24  C   UNL     1      22.934  41.474  48.434  1.00  0.00     0.039 A 
HETATM   25  C   UNL     1      23.940  40.667  47.900  1.00  0.00     0.003 A 
HETATM   26  C   UNL     1      25.275  41.052  47.999  1.00  0.00     0.002 A 
HETATM   27  C   UNL     1      25.607  42.241  48.648  1.00  0.00     0.034 A 
BRANCH  23  28
HETATM   28  O   UNL     1      22.334  43.533  49.617  1.00  0.00    -0.354 OA
HETATM   29  C   UNL     1      21.735  44.455  48.716  1.00  0.00     0.210 C 
ENDBRANCH  23  28
ENDBRANCH   1  22
TORSDOF 4
ENDMDL
MODEL 9
REMARK VINA RESULT:      -8.3      3.358      6.295
REMARK  4 active torsions:
REMARK  status: ('A' for Active; 'I' for Inactive)
REMARK    1  A    between atoms: O_2  and  C_3 
REMARK    2  A    between atoms: C_4  and  N_5 
REMARK    3  A    between atoms: C_14  and  C_15 
REMARK       I    between atoms: C_15  and  N_16 
REMARK    4  A    between atoms: N_16  and  C_17 
ROOT
HETATM    1  N   UNL     1      27.216  41.681  51.624  1.00  0.00    -0.221 NA
HETATM    2  C   UNL     1      26.901  42.942  51.596  1.00  0.00     0.186 C 
HETATM    3  O   UNL     1      26.273  43.500  50.489  1.00  0.00    -0.290 OA
HETATM    4  C   UNL     1      25.753  44.805  50.525  1.00  0.00     0.088 A 
HETATM    5  C   UNL     1      25.958  45.618  51.632  1.00  0.00    -0.001 A 
HETATM    6  C   UNL     1      25.018  45.237  49.424  1.00  0.00     0.038 A 
HETATM    7  C   UNL     1      24.467  46.517  49.438  1.00  0.00     0.003 A 
HETATM    8  C   UNL     1      24.662  47.348  50.543  1.00  0.00     0.001 A 
HETATM    9  C   UNL     1      25.408  46.901  51.638  1.00  0.00     0.014 A 
HETATM   10  C   UNL     1      27.205  43.841  52.738  1.00  0.00     0.086 C 
HETATM   11  C   UNL     1      26.745  45.105  52.741  1.00  0.00     0.035 C 
ENDROOT
BRANCH  10  12
HETATM   12  C   UNL     1      28.030  43.427  53.932  1.00  0.00     0.260 C 
HETATM   13  N   UNL     1      28.890  44.394  54.402  1.00  0.00    -0.323 N 
HETATM   14  H   UNL     1      28.905  45.276  53.884  1.00  0.00     0.169 HD
HETATM   15  O   UNL     1      27.895  42.302  54.410  1.00  0.00    -0.267 OA
BRANCH  13  16
HETATM   16  C   UNL     1      29.778  44.323  55.494  1.00  0.00     0.035 A 
HETATM   17  C   UNL     1      30.752  43.337  55.652  1.00  0.00     0.029 A 
HETATM   18  C   UNL     1      31.595  43.347  56.768  1.00  0.00     0.002 A 
HETATM   19  C   UNL     1      31.470  44.344  57.734  1.00  0.00     0.000 A 
HETATM   20  C   UNL     1      30.499  45.330  57.587  1.00  0.00     0.002 A 
HETATM   21  C   UNL     1      29.657  45.319  56.473  1.00  0.00     0.029 A 
ENDBRANCH  13  16
ENDBRANCH  10  12
BRANCH   1  22
HETATM   22  C   UNL     1      26.972  40.872  50.497  1.00  0.00     0.093 A 
HETATM   23  C   UNL     1      27.851  39.814  50.194  1.00  0.00     0.097 A 
HETATM   24  C   UNL     1      27.603  39.000  49.082  1.00  0.00     0.039 A 
HETATM   25  C   UNL     1      26.464  39.206  48.301  1.00  0.00     0.003 A 
HETATM   26  C   UNL     1      25.567  40.221  48.624  1.00  0.00     0.002 A 
HETATM   27  C   UNL     1      25.817  41.044  49.722  1.00  0.00     0.034 A 
BRANCH  23  28
HETATM   28  O   UNL     1      28.940  39.672  51.021  1.00  0.00    -0.354 OA
HETATM   29  C   UNL     1      29.641  38.439  50.922  1.00  0.00     0.210 C 
ENDBRANCH  23  28
ENDBRANCH   1  22
TORSDOF 4
ENDMDL
MODEL 10
REMARK VINA RESULT:      -8.2      3.915      7.419
REMARK  4 active torsions:
REMARK  status: ('A' for Active; 'I' for Inactive)
REMARK    1  A    between atoms: O_2  and  C_3 
REMARK    2  A    between atoms: C_4  and  N_5 
REMARK    3  A    between atoms: C_14  and  C_15 
REMARK       I    between atoms: C_15  and  N_16 
REMARK    4  A    between atoms: N_16  and  C_17 
ROOT
HETATM    1  N   UNL     1      26.462  43.560  50.337  1.00  0.00    -0.221 NA
HETATM    2  C   UNL     1      27.337  43.247  51.246  1.00  0.00     0.186 C 
HETATM    3  O   UNL     1      27.827  44.201  52.129  1.00  0.00    -0.290 OA
HETATM    4  C   UNL     1      28.618  43.838  53.232  1.00  0.00     0.088 A 
HETATM    5  C   UNL     1      29.029  42.523  53.405  1.00  0.00    -0.001 A 
HETATM    6  C   UNL     1      28.951  44.837  54.144  1.00  0.00     0.038 A 
HETATM    7  C   UNL     1      29.713  44.505  55.262  1.00  0.00     0.003 A 
HETATM    8  C   UNL     1      30.135  43.187  55.453  1.00  0.00     0.001 A 
HETATM    9  C   UNL     1      29.797  42.197  54.525  1.00  0.00     0.014 A 
HETATM   10  C   UNL     1      27.857  41.861  51.375  1.00  0.00     0.086 C 
HETATM   11  C   UNL     1      28.654  41.535  52.408  1.00  0.00     0.035 C 
ENDROOT
BRANCH  10  12
HETATM   12  C   UNL     1      27.553  40.759  50.389  1.00  0.00     0.260 C 
HETATM   13  N   UNL     1      28.492  40.600  49.395  1.00  0.00    -0.323 N 
HETATM   14  H   UNL     1      29.278  41.255  49.406  1.00  0.00     0.169 HD
HETATM   15  O   UNL     1      26.534  40.084  50.520  1.00  0.00    -0.267 OA
BRANCH  13  16
HETATM   16  C   UNL     1      28.504  39.665  48.341  1.00  0.00     0.035 A 
HETATM   17  C   UNL     1      28.987  38.361  48.452  1.00  0.00     0.029 A 
HETATM   18  C   UNL     1      28.955  37.498  47.352  1.00  0.00     0.002 A 
HETATM   19  C   UNL     1      28.440  37.932  46.132  1.00  0.00     0.000 A 
HETATM   20  C   UNL     1      27.959  39.233  46.010  1.00  0.00     0.002 A 
HETATM   21  C   UNL     1      27.992  40.095  47.109  1.00  0.00     0.029 A 
ENDBRANCH  13  16
ENDBRANCH  10  12
BRANCH   1  22
HETATM   22  C   UNL     1      26.040  44.897  50.201  1.00  0.00     0.093 A 
HETATM   23  C   UNL     1      24.733  45.259  50.586  1.00  0.00     0.097 A 
HETATM   24  C   UNL     1      24.316  46.590  50.465  1.00  0.00     0.039 A 
HETATM   25  C   UNL     1      25.204  47.565  50.006  1.00  0.00     0.003 A 
HETATM   26  C   UNL     1      26.511  47.221  49.668  1.00  0.00     0.002 A 
HETATM   27  C   UNL     1      26.927  45.894  49.774  1.00  0.00     0.034 A 
BRANCH  23  28
HETATM   28  O   UNL     1      23.928  44.241  51.039  1.00  0.00    -0.354 OA
HETATM   29  C   UNL     1      22.928  43.789  50.136  1.00  0.00     0.210 C 
ENDBRANCH  23  28
ENDBRANCH   1  22
TORSDOF 4
ENDMDL
