MODEL 1
REMARK VINA RESULT:      -9.2      0.000      0.000
REMARK  5 active torsions:
REMARK  status: ('A' for Active; 'I' for Inactive)
REMARK    1  A    between atoms: C_3  and  N_4 
REMARK       I    between atoms: N_4  and  C_5 
REMARK       I    between atoms: C_5  and  N_6 
REMARK    2  A    between atoms: N_6  and  C_7 
REMARK    3  A    between atoms: C_7  and  C_8 
REMARK       I    between atoms: C_8  and  N_9 
REMARK    4  A    between atoms: N_9  and  C_10 
REMARK    5  A    between atoms: C_19  and  C_20 
ROOT
HETATM    1  N   UNL     1      25.042  46.615  52.071  1.00  0.00    -0.309 N 
HETATM    2  C   UNL     1      25.158  47.112  50.795  1.00  0.00     0.321 C 
HETATM    3  N   UNL     1      23.938  47.418  50.252  1.00  0.00    -0.334 N 
HETATM    4  O   UNL     1      26.206  47.298  50.190  1.00  0.00    -0.247 OA
HETATM    5  H   UNL     1      24.334  47.073  52.624  1.00  0.00     0.170 HD
HETATM    6  H   UNL     1      23.119  47.097  50.746  1.00  0.00     0.164 HD
ENDROOT
BRANCH   1   7
HETATM    7  C   UNL     1      26.104  46.000  52.775  1.00  0.00     0.043 A 
HETATM    8  C   UNL     1      26.610  46.591  53.947  1.00  0.00    -0.035 A 
HETATM    9  C   UNL     1      26.147  47.934  54.441  1.00  0.00     0.050 C 
HETATM   10  C   UNL     1      27.639  45.938  54.643  1.00  0.00     0.010 A 
HETATM   11  C   UNL     1      28.125  44.702  54.209  1.00  0.00     0.016 A 
HETATM   12  C   UNL     1      27.605  44.090  53.064  1.00  0.00     0.019 A 
HETATM   13  C   UNL     1      26.605  44.762  52.343  1.00  0.00     0.046 A 
BRANCH  12  14
HETATM   14  C   UNL     1      28.086  42.767  52.674  1.00  0.00     0.179 A 
HETATM   15  O   UNL     1      27.799  42.352  51.397  1.00  0.00    -0.302 OA
HETATM   16  C   UNL     1      28.314  41.094  51.330  1.00  0.00     0.163 A 
HETATM   17  C   UNL     1      28.880  40.803  52.544  1.00  0.00     0.144 A 
HETATM   18  N   UNL     1      28.732  41.868  53.395  1.00  0.00    -0.234 NA
ENDBRANCH  12  14
ENDBRANCH   1   7
BRANCH   3  19
HETATM   19  C   UNL     1      23.745  48.439  49.230  1.00  0.00     0.227 C 
BRANCH  19  20
HETATM   20  C   UNL     1      22.911  49.705  49.513  1.00  0.00     0.239 C 
HETATM   21  N   UNL     1      21.550  49.485  49.513  1.00  0.00    -0.326 N 
HETATM   22  H   UNL     1      21.256  48.506  49.508  1.00  0.00     0.169 HD
HETATM   23  O   UNL     1      23.465  50.803  49.553  1.00  0.00    -0.271 OA
BRANCH  21  24
HETATM   24  C   UNL     1      20.510  50.427  49.404  1.00  0.00     0.034 A 
HETATM   25  C   UNL     1      20.520  51.507  48.522  1.00  0.00     0.029 A 
HETATM   26  C   UNL     1      19.409  52.352  48.427  1.00  0.00     0.002 A 
HETATM   27  C   UNL     1      18.285  52.128  49.220  1.00  0.00     0.000 A 
HETATM   28  C   UNL     1      18.272  51.062  50.114  1.00  0.00     0.002 A 
HETATM   29  C   UNL     1      19.378  50.214  50.204  1.00  0.00     0.029 A 
ENDBRANCH  21  24
ENDBRANCH  19  20
ENDBRANCH   3  19
TORSDOF 5
ENDMDL
MODEL 2
REMARK VINA RESULT:      -9.2      2.653     10.009
REMARK  5 active torsions:
REMARK  status: ('A' for Active; 'I' for Inactive)
REMARK    1  A    between atoms: C_3  and  N_4 
REMARK       I    between atoms: N_4  and  C_5 
REMARK       I    between atoms: C_5  and  N_6 
REMARK    2  A    between atoms: N_6  and  C_7 
REMARK    3  A    between atoms: C_7  and  C_8 
REMARK       I    between atoms: C_8  and  N_9 
REMARK    4  A    between atoms: N_9  and  C_10 
REMARK    5  A    between atoms: C_19  and  C_20 
ROOT
HETATM    1  N   UNL     1      26.095  47.055  50.384  1.00  0.00    -0.309 N 
HETATM    2  C   UNL     1      25.670  46.851  51.675  1.00  0.00     0.321 C 
HETATM    3  N   UNL     1      26.069  45.633  52.158  1.00  0.00    -0.334 N 
HETATM    4  O   UNL     1      25.034  47.646  52.355  1.00  0.00    -0.247 OA
HETATM    5  H   UNL     1      27.024  46.709  50.201  1.00  0.00     0.170 HD
HETATM    6  H   UNL     1      26.453  44.976  51.495  1.00  0.00     0.164 HD
ENDROOT
BRANCH   1   7
HETATM    7  C   UNL     1      25.633  48.110  49.562  1.00  0.00     0.043 A 
HETATM    8  C   UNL     1      26.550  48.996  48.968  1.00  0.00    -0.035 A 
HETATM    9  C   UNL     1      28.024  48.951  49.261  1.00  0.00     0.050 C 
HETATM   10  C   UNL     1      26.063  50.010  48.129  1.00  0.00     0.010 A 
HETATM   11  C   UNL     1      24.698  50.114  47.848  1.00  0.00     0.016 A 
HETATM   12  C   UNL     1      23.782  49.216  48.406  1.00  0.00     0.019 A 
HETATM   13  C   UNL     1      24.263  48.228  49.279  1.00  0.00     0.046 A 
BRANCH  12  14
HETATM   14  C   UNL     1      22.371  49.308  48.041  1.00  0.00     0.179 A 
HETATM   15  O   UNL     1      21.811  50.561  48.027  1.00  0.00    -0.302 OA
HETATM   16  C   UNL     1      20.506  50.342  47.709  1.00  0.00     0.163 A 
HETATM   17  C   UNL     1      20.331  48.993  47.546  1.00  0.00     0.144 A 
HETATM   18  N   UNL     1      21.518  48.338  47.758  1.00  0.00    -0.234 NA
ENDBRANCH  12  14
ENDBRANCH   1   7
BRANCH   3  19
HETATM   19  C   UNL     1      26.287  45.360  53.573  1.00  0.00     0.227 C 
BRANCH  19  20
HETATM   20  C   UNL     1      27.616  45.733  54.262  1.00  0.00     0.239 C 
HETATM   21  N   UNL     1      28.350  44.645  54.680  1.00  0.00    -0.326 N 
HETATM   22  H   UNL     1      28.034  43.735  54.337  1.00  0.00     0.169 HD
HETATM   23  O   UNL     1      27.851  46.910  54.533  1.00  0.00    -0.271 OA
BRANCH  21  24
HETATM   24  C   UNL     1      29.408  44.605  55.607  1.00  0.00     0.034 A 
HETATM   25  C   UNL     1      29.545  45.488  56.678  1.00  0.00     0.029 A 
HETATM   26  C   UNL     1      30.589  45.329  57.596  1.00  0.00     0.002 A 
HETATM   27  C   UNL     1      31.507  44.292  57.445  1.00  0.00     0.000 A 
HETATM   28  C   UNL     1      31.387  43.414  56.371  1.00  0.00     0.002 A 
HETATM   29  C   UNL     1      30.341  43.569  55.458  1.00  0.00     0.029 A 
ENDBRANCH  21  24
ENDBRANCH  19  20
ENDBRANCH   3  19
TORSDOF 5
ENDMDL
MODEL 3
REMARK VINA RESULT:      -8.9      3.348      4.851
REMARK  5 active torsions:
REMARK  status: ('A' for Active; 'I' for Inactive)
REMARK    1  A    between atoms: C_3  and  N_4 
REMARK       I    between atoms: N_4  and  C_5 
REMARK       I    between atoms: C_5  and  N_6 
REMARK    2  A    between atoms: N_6  and  C_7 
REMARK    3  A    between atoms: C_7  and  C_8 
REMARK       I    between atoms: C_8  and  N_9 
REMARK    4  A    between atoms: N_9  and  C_10 
REMARK    5  A    between atoms: C_19  and  C_20 
ROOT
HETATM    1  N   UNL     1      26.009  44.263  53.525  1.00  0.00    -0.309 N 
HETATM    2  C   UNL     1      26.024  43.875  52.206  1.00  0.00     0.321 C 
HETATM    3  N   UNL     1      25.088  42.910  51.946  1.00  0.00    -0.334 N 
HETATM    4  O   UNL     1      26.751  44.330  51.332  1.00  0.00    -0.247 OA
HETATM    5  H   UNL     1      25.085  44.324  53.921  1.00  0.00     0.170 HD
HETATM    6  H   UNL     1      24.636  42.479  52.739  1.00  0.00     0.164 HD
ENDROOT
BRANCH   1   7
HETATM    7  C   UNL     1      27.014  45.061  54.120  1.00  0.00     0.043 A 
HETATM    8  C   UNL     1      26.902  46.463  54.110  1.00  0.00    -0.035 A 
HETATM    9  C   UNL     1      25.800  47.181  53.380  1.00  0.00     0.050 C 
HETATM   10  C   UNL     1      27.897  47.226  54.741  1.00  0.00     0.010 A 
HETATM   11  C   UNL     1      28.957  46.608  55.408  1.00  0.00     0.016 A 
HETATM   12  C   UNL     1      29.060  45.214  55.454  1.00  0.00     0.019 A 
HETATM   13  C   UNL     1      28.089  44.451  54.787  1.00  0.00     0.046 A 
BRANCH  12  14
HETATM   14  C   UNL     1      30.142  44.596  56.216  1.00  0.00     0.179 A 
HETATM   15  O   UNL     1      30.405  45.117  57.459  1.00  0.00    -0.302 OA
HETATM   16  C   UNL     1      31.470  44.396  57.905  1.00  0.00     0.163 A 
HETATM   17  C   UNL     1      31.802  43.486  56.936  1.00  0.00     0.144 A 
HETATM   18  N   UNL     1      30.956  43.617  55.864  1.00  0.00    -0.234 NA
ENDBRANCH  12  14
ENDBRANCH   1   7
BRANCH   3  19
HETATM   19  C   UNL     1      24.473  42.715  50.639  1.00  0.00     0.227 C 
BRANCH  19  20
HETATM   20  C   UNL     1      23.486  43.750  50.060  1.00  0.00     0.239 C 
HETATM   21  N   UNL     1      24.101  44.806  49.421  1.00  0.00    -0.326 N 
HETATM   22  H   UNL     1      25.102  44.700  49.246  1.00  0.00     0.169 HD
HETATM   23  O   UNL     1      22.289  43.668  50.330  1.00  0.00    -0.271 OA
BRANCH  21  24
HETATM   24  C   UNL     1      23.558  46.059  49.079  1.00  0.00     0.034 A 
HETATM   25  C   UNL     1      22.512  46.240  48.174  1.00  0.00     0.029 A 
HETATM   26  C   UNL     1      21.984  47.516  47.950  1.00  0.00     0.002 A 
HETATM   27  C   UNL     1      22.504  48.620  48.622  1.00  0.00     0.000 A 
HETATM   28  C   UNL     1      23.556  48.452  49.517  1.00  0.00     0.002 A 
HETATM   29  C   UNL     1      24.079  47.177  49.746  1.00  0.00     0.029 A 
ENDBRANCH  21  24
ENDBRANCH  19  20
ENDBRANCH   3  19
TORSDOF 5
ENDMDL
MODEL 4
REMARK VINA RESULT:      -8.9      1.953      3.184
REMARK  5 active torsions:
REMARK  status: ('A' for Active; 'I' for Inactive)
REMARK    1  A    between atoms: C_3  and  N_4 
REMARK       I    between atoms: N_4  and  C_5 
REMARK       I    between atoms: C_5  and  N_6 
REMARK    2  A    between atoms: N_6  and  C_7 
REMARK    3  A    between atoms: C_7  and  C_8 
REMARK       I    between atoms: C_8  and  N_9 
REMARK    4  A    between atoms: N_9  and  C_10 
REMARK    5  A    between atoms: C_19  and  C_20 
ROOT
HETATM    1  N   UNL     1      25.102  45.291  51.925  1.00  0.00    -0.309 N 
HETATM    2  C   UNL     1      25.275  46.173  50.884  1.00  0.00     0.321 C 
HETATM    3  N   UNL     1      24.080  46.661  50.424  1.00  0.00    -0.334 N 
HETATM    4  O   UNL     1      26.348  46.525  50.413  1.00  0.00    -0.247 OA
HETATM    5  H   UNL     1      24.374  45.559  52.568  1.00  0.00     0.170 HD
HETATM    6  H   UNL     1      23.240  46.212  50.755  1.00  0.00     0.164 HD
ENDROOT
BRANCH   1   7
HETATM    7  C   UNL     1      26.130  44.463  52.431  1.00  0.00     0.043 A 
HETATM    8  C   UNL     1      26.343  43.185  51.881  1.00  0.00    -0.035 A 
HETATM    9  C   UNL     1      25.440  42.595  50.834  1.00  0.00     0.050 C 
HETATM   10  C   UNL     1      27.395  42.401  52.381  1.00  0.00     0.010 A 
HETATM   11  C   UNL     1      28.244  42.892  53.375  1.00  0.00     0.016 A 
HETATM   12  C   UNL     1      28.062  44.174  53.905  1.00  0.00     0.019 A 
HETATM   13  C   UNL     1      26.985  44.943  53.436  1.00  0.00     0.046 A 
BRANCH  12  14
HETATM   14  C   UNL     1      29.007  44.685  54.894  1.00  0.00     0.179 A 
HETATM   15  O   UNL     1      30.067  43.876  55.219  1.00  0.00    -0.302 OA
HETATM   16  C   UNL     1      30.738  44.571  56.178  1.00  0.00     0.163 A 
HETATM   17  C   UNL     1      30.071  45.749  56.391  1.00  0.00     0.144 A 
HETATM   18  N   UNL     1      28.971  45.818  55.574  1.00  0.00    -0.234 NA
ENDBRANCH  12  14
ENDBRANCH   1   7
BRANCH   3  19
HETATM   19  C   UNL     1      23.937  47.961  49.781  1.00  0.00     0.227 C 
BRANCH  19  20
HETATM   20  C   UNL     1      22.582  48.418  49.199  1.00  0.00     0.239 C 
HETATM   21  N   UNL     1      22.243  49.711  49.532  1.00  0.00    -0.326 N 
HETATM   22  H   UNL     1      22.984  50.271  49.959  1.00  0.00     0.169 HD
HETATM   23  O   UNL     1      21.849  47.598  48.648  1.00  0.00    -0.271 OA
BRANCH  21  24
HETATM   24  C   UNL     1      20.981  50.331  49.466  1.00  0.00     0.034 A 
HETATM   25  C   UNL     1      19.893  49.980  50.266  1.00  0.00     0.029 A 
HETATM   26  C   UNL     1      18.697  50.700  50.186  1.00  0.00     0.002 A 
HETATM   27  C   UNL     1      18.577  51.770  49.302  1.00  0.00     0.000 A 
HETATM   28  C   UNL     1      19.652  52.119  48.490  1.00  0.00     0.002 A 
HETATM   29  C   UNL     1      20.848  51.404  48.573  1.00  0.00     0.029 A 
ENDBRANCH  21  24
ENDBRANCH  19  20
ENDBRANCH   3  19
TORSDOF 5
ENDMDL
MODEL 5
REMARK VINA RESULT:      -8.7      2.227      9.677
REMARK  5 active torsions:
REMARK  status: ('A' for Active; 'I' for Inactive)
REMARK    1  A    between atoms: C_3  and  N_4 
REMARK       I    between atoms: N_4  and  C_5 
REMARK       I    between atoms: C_5  and  N_6 
REMARK    2  A    between atoms: N_6  and  C_7 
REMARK    3  A    between atoms: C_7  and  C_8 
REMARK       I    between atoms: C_8  and  N_9 
REMARK    4  A    between atoms: N_9  and  C_10 
REMARK    5  A    between atoms: C_19  and  C_20 
ROOT
HETATM    1  N   UNL     1      23.459  47.448  48.977  1.00  0.00    -0.309 N 
HETATM    2  C   UNL     1      24.123  46.916  50.057  1.00  0.00     0.321 C 
HETATM    3  N   UNL     1      24.205  45.550  49.986  1.00  0.00    -0.334 N 
HETATM    4  O   UNL     1      24.617  47.552  50.979  1.00  0.00    -0.247 OA
HETATM    5  H   UNL     1      23.671  46.990  48.104  1.00  0.00     0.170 HD
HETATM    6  H   UNL     1      23.646  45.090  49.283  1.00  0.00     0.164 HD
ENDROOT
BRANCH   1   7
HETATM    7  C   UNL     1      23.023  48.791  48.905  1.00  0.00     0.043 A 
HETATM    8  C   UNL     1      23.898  49.794  48.449  1.00  0.00    -0.035 A 
HETATM    9  C   UNL     1      25.344  49.525  48.134  1.00  0.00     0.050 C 
HETATM   10  C   UNL     1      23.424  51.112  48.355  1.00  0.00     0.010 A 
HETATM   11  C   UNL     1      22.098  51.420  48.665  1.00  0.00     0.016 A 
HETATM   12  C   UNL     1      21.210  50.424  49.086  1.00  0.00     0.019 A 
HETATM   13  C   UNL     1      21.694  49.114  49.221  1.00  0.00     0.046 A 
BRANCH  12  14
HETATM   14  C   UNL     1      19.813  50.765  49.337  1.00  0.00     0.179 A 
HETATM   15  O   UNL     1      19.459  52.085  49.205  1.00  0.00    -0.302 OA
HETATM   16  C   UNL     1      18.140  52.114  49.540  1.00  0.00     0.163 A 
HETATM   17  C   UNL     1      17.755  50.837  49.855  1.00  0.00     0.144 A 
HETATM   18  N   UNL     1      18.820  49.982  49.726  1.00  0.00    -0.234 NA
ENDBRANCH  12  14
ENDBRANCH   1   7
BRANCH   3  19
HETATM   19  C   UNL     1      25.271  44.775  50.606  1.00  0.00     0.227 C 
BRANCH  19  20
HETATM   20  C   UNL     1      25.522  44.838  52.127  1.00  0.00     0.239 C 
HETATM   21  N   UNL     1      26.553  45.680  52.485  1.00  0.00    -0.326 N 
HETATM   22  H   UNL     1      26.907  46.291  51.747  1.00  0.00     0.169 HD
HETATM   23  O   UNL     1      24.938  44.054  52.874  1.00  0.00    -0.271 OA
BRANCH  21  24
HETATM   24  C   UNL     1      27.260  45.732  53.702  1.00  0.00     0.034 A 
HETATM   25  C   UNL     1      28.171  44.762  54.120  1.00  0.00     0.029 A 
HETATM   26  C   UNL     1      28.887  44.932  55.310  1.00  0.00     0.002 A 
HETATM   27  C   UNL     1      28.689  46.067  56.094  1.00  0.00     0.000 A 
HETATM   28  C   UNL     1      27.771  47.033  55.692  1.00  0.00     0.002 A 
HETATM   29  C   UNL     1      27.062  46.867  54.501  1.00  0.00     0.029 A 
ENDBRANCH  21  24
ENDBRANCH  19  20
ENDBRANCH   3  19
TORSDOF 5
ENDMDL
MODEL 6
REMARK VINA RESULT:      -8.7      2.577      4.378
REMARK  5 active torsions:
REMARK  status: ('A' for Active; 'I' for Inactive)
REMARK    1  A    between atoms: C_3  and  N_4 
REMARK       I    between atoms: N_4  and  C_5 
REMARK       I    between atoms: C_5  and  N_6 
REMARK    2  A    between atoms: N_6  and  C_7 
REMARK    3  A    between atoms: C_7  and  C_8 
REMARK       I    between atoms: C_8  and  N_9 
REMARK    4  A    between atoms: N_9  and  C_10 
REMARK    5  A    between atoms: C_19  and  C_20 
ROOT
HETATM    1  N   UNL     1      26.645  43.995  52.354  1.00  0.00    -0.309 N 
HETATM    2  C   UNL     1      26.648  44.506  51.078  1.00  0.00     0.321 C 
HETATM    3  N   UNL     1      25.388  44.556  50.544  1.00  0.00    -0.334 N 
HETATM    4  O   UNL     1      27.632  44.903  50.467  1.00  0.00    -0.247 OA
HETATM    5  H   UNL     1      25.862  44.297  52.912  1.00  0.00     0.170 HD
HETATM    6  H   UNL     1      24.656  44.073  51.042  1.00  0.00     0.164 HD
ENDROOT
BRANCH   1   7
HETATM    7  C   UNL     1      27.815  43.611  53.049  1.00  0.00     0.043 A 
HETATM    8  C   UNL     1      28.632  42.582  52.544  1.00  0.00    -0.035 A 
HETATM    9  C   UNL     1      28.256  41.772  51.334  1.00  0.00     0.050 C 
HETATM   10  C   UNL     1      29.805  42.249  53.238  1.00  0.00     0.010 A 
HETATM   11  C   UNL     1      30.184  42.951  54.384  1.00  0.00     0.016 A 
HETATM   12  C   UNL     1      29.397  43.999  54.876  1.00  0.00     0.019 A 
HETATM   13  C   UNL     1      28.201  44.305  54.207  1.00  0.00     0.046 A 
BRANCH  12  14
HETATM   14  C   UNL     1      29.853  44.758  56.036  1.00  0.00     0.179 A 
HETATM   15  O   UNL     1      30.835  44.188  56.808  1.00  0.00    -0.302 OA
HETATM   16  C   UNL     1      31.021  45.075  57.823  1.00  0.00     0.163 A 
HETATM   17  C   UNL     1      30.163  46.126  57.630  1.00  0.00     0.144 A 
HETATM   18  N   UNL     1      29.422  45.921  56.494  1.00  0.00    -0.234 NA
ENDBRANCH  12  14
ENDBRANCH   1   7
BRANCH   3  19
HETATM   19  C   UNL     1      24.983  45.516  49.524  1.00  0.00     0.227 C 
BRANCH  19  20
HETATM   20  C   UNL     1      24.303  46.847  49.907  1.00  0.00     0.239 C 
HETATM   21  N   UNL     1      23.340  47.257  49.010  1.00  0.00    -0.326 N 
HETATM   22  H   UNL     1      23.060  46.567  48.310  1.00  0.00     0.169 HD
HETATM   23  O   UNL     1      24.749  47.512  50.842  1.00  0.00    -0.271 OA
BRANCH  21  24
HETATM   24  C   UNL     1      22.771  48.535  48.858  1.00  0.00     0.034 A 
HETATM   25  C   UNL     1      21.429  48.829  49.097  1.00  0.00     0.029 A 
HETATM   26  C   UNL     1      20.965  50.145  48.993  1.00  0.00     0.002 A 
HETATM   27  C   UNL     1      21.837  51.173  48.642  1.00  0.00     0.000 A 
HETATM   28  C   UNL     1      23.175  50.887  48.387  1.00  0.00     0.002 A 
HETATM   29  C   UNL     1      23.640  49.575  48.497  1.00  0.00     0.029 A 
ENDBRANCH  21  24
ENDBRANCH  19  20
ENDBRANCH   3  19
TORSDOF 5
ENDMDL
MODEL 7
REMARK VINA RESULT:      -8.4      1.587      2.220
REMARK  5 active torsions:
REMARK  status: ('A' for Active; 'I' for Inactive)
REMARK    1  A    between atoms: C_3  and  N_4 
REMARK       I    between atoms: N_4  and  C_5 
REMARK       I    between atoms: C_5  and  N_6 
REMARK    2  A    between atoms: N_6  and  C_7 
REMARK    3  A    between atoms: C_7  and  C_8 
REMARK       I    between atoms: C_8  and  N_9 
REMARK    4  A    between atoms: N_9  and  C_10 
REMARK    5  A    between atoms: C_19  and  C_20 
ROOT
HETATM    1  N   UNL     1      24.877  45.000  51.516  1.00  0.00    -0.309 N 
HETATM    2  C   UNL     1      25.147  46.068  50.694  1.00  0.00     0.321 C 
HETATM    3  N   UNL     1      24.003  46.624  50.185  1.00  0.00    -0.334 N 
HETATM    4  O   UNL     1      26.258  46.516  50.442  1.00  0.00    -0.247 OA
HETATM    5  H   UNL     1      24.065  45.130  52.099  1.00  0.00     0.170 HD
HETATM    6  H   UNL     1      23.144  46.111  50.313  1.00  0.00     0.164 HD
ENDROOT
BRANCH   1   7
HETATM    7  C   UNL     1      25.862  44.099  51.984  1.00  0.00     0.043 A 
HETATM    8  C   UNL     1      26.235  44.102  53.340  1.00  0.00    -0.035 A 
HETATM    9  C   UNL     1      25.712  45.115  54.321  1.00  0.00     0.050 C 
HETATM   10  C   UNL     1      27.189  43.172  53.781  1.00  0.00     0.010 A 
HETATM   11  C   UNL     1      27.728  42.228  52.903  1.00  0.00     0.016 A 
HETATM   12  C   UNL     1      27.338  42.194  51.560  1.00  0.00     0.019 A 
HETATM   13  C   UNL     1      26.416  43.152  51.108  1.00  0.00     0.046 A 
BRANCH  12  14
HETATM   14  C   UNL     1      27.868  41.154  50.682  1.00  0.00     0.179 A 
HETATM   15  O   UNL     1      27.646  41.303  49.336  1.00  0.00    -0.302 OA
HETATM   16  C   UNL     1      28.195  40.187  48.781  1.00  0.00     0.163 A 
HETATM   17  C   UNL     1      28.716  39.424  49.793  1.00  0.00     0.144 A 
HETATM   18  N   UNL     1      28.506  40.041  51.000  1.00  0.00    -0.234 NA
ENDBRANCH  12  14
ENDBRANCH   1   7
BRANCH   3  19
HETATM   19  C   UNL     1      23.895  48.022  49.789  1.00  0.00     0.227 C 
BRANCH  19  20
HETATM   20  C   UNL     1      22.613  48.567  49.126  1.00  0.00     0.239 C 
HETATM   21  N   UNL     1      22.177  49.762  49.656  1.00  0.00    -0.326 N 
HETATM   22  H   UNL     1      22.829  50.235  50.285  1.00  0.00     0.169 HD
HETATM   23  O   UNL     1      21.995  47.864  48.326  1.00  0.00    -0.271 OA
BRANCH  21  24
HETATM   24  C   UNL     1      20.910  50.363  49.538  1.00  0.00     0.034 A 
HETATM   25  C   UNL     1      19.792  49.988  50.284  1.00  0.00     0.029 A 
HETATM   26  C   UNL     1      18.590  50.691  50.156  1.00  0.00     0.002 A 
HETATM   27  C   UNL     1      18.494  51.767  49.276  1.00  0.00     0.000 A 
HETATM   28  C   UNL     1      19.599  52.140  48.517  1.00  0.00     0.002 A 
HETATM   29  C   UNL     1      20.802  51.442  48.649  1.00  0.00     0.029 A 
ENDBRANCH  21  24
ENDBRANCH  19  20
ENDBRANCH   3  19
TORSDOF 5
ENDMDL
MODEL 8
REMARK VINA RESULT:      -8.2      5.382      8.990
REMARK  5 active torsions:
REMARK  status: ('A' for Active; 'I' for Inactive)
REMARK    1  A    between atoms: C_3  and  N_4 
REMARK       I    between atoms: N_4  and  C_5 
REMARK       I    between atoms: C_5  and  N_6 
REMARK    2  A    between atoms: N_6  and  C_7 
REMARK    3  A    between atoms: C_7  and  C_8 
REMARK       I    between atoms: C_8  and  N_9 
REMARK    4  A    between atoms: N_9  and  C_10 
REMARK    5  A    between atoms: C_19  and  C_20 
ROOT
HETATM    1  N   UNL     1      26.385  43.716  53.166  1.00  0.00    -0.309 N 
HETATM    2  C   UNL     1      26.569  43.421  51.836  1.00  0.00     0.321 C 
HETATM    3  N   UNL     1      25.867  42.308  51.456  1.00  0.00    -0.334 N 
HETATM    4  O   UNL     1      27.249  44.064  51.046  1.00  0.00    -0.247 OA
HETATM    5  H   UNL     1      25.442  43.569  53.489  1.00  0.00     0.170 HD
HETATM    6  H   UNL     1      25.457  41.749  52.189  1.00  0.00     0.164 HD
ENDROOT
BRANCH   1   7
HETATM    7  C   UNL     1      27.165  44.656  53.877  1.00  0.00     0.043 A 
HETATM    8  C   UNL     1      26.806  46.017  53.877  1.00  0.00    -0.035 A 
HETATM    9  C   UNL     1      25.674  46.554  53.045  1.00  0.00     0.050 C 
HETATM   10  C   UNL     1      27.579  46.920  54.622  1.00  0.00     0.010 A 
HETATM   11  C   UNL     1      28.659  46.476  55.389  1.00  0.00     0.016 A 
HETATM   12  C   UNL     1      29.004  45.121  55.424  1.00  0.00     0.019 A 
HETATM   13  C   UNL     1      28.258  44.222  54.645  1.00  0.00     0.046 A 
BRANCH  12  14
HETATM   14  C   UNL     1      30.095  44.678  56.287  1.00  0.00     0.179 A 
HETATM   15  O   UNL     1      30.752  43.529  55.921  1.00  0.00    -0.302 OA
HETATM   16  C   UNL     1      31.665  43.335  56.912  1.00  0.00     0.163 A 
HETATM   17  C   UNL     1      31.528  44.352  57.819  1.00  0.00     0.144 A 
HETATM   18  N   UNL     1      30.529  45.203  57.419  1.00  0.00    -0.234 NA
ENDBRANCH  12  14
ENDBRANCH   1   7
BRANCH   3  19
HETATM   19  C   UNL     1      25.396  42.079  50.096  1.00  0.00     0.227 C 
BRANCH  19  20
HETATM   20  C   UNL     1      26.319  41.457  49.027  1.00  0.00     0.239 C 
HETATM   21  N   UNL     1      26.151  40.098  48.871  1.00  0.00    -0.326 N 
HETATM   22  H   UNL     1      25.334  39.693  49.333  1.00  0.00     0.169 HD
HETATM   23  O   UNL     1      27.214  42.136  48.526  1.00  0.00    -0.271 OA
BRANCH  21  24
HETATM   24  C   UNL     1      27.016  39.173  48.255  1.00  0.00     0.034 A 
HETATM   25  C   UNL     1      26.812  38.635  46.985  1.00  0.00     0.029 A 
HETATM   26  C   UNL     1      27.763  37.779  46.420  1.00  0.00     0.002 A 
HETATM   27  C   UNL     1      28.919  37.448  47.124  1.00  0.00     0.000 A 
HETATM   28  C   UNL     1      29.124  37.969  48.398  1.00  0.00     0.002 A 
HETATM   29  C   UNL     1      28.178  38.829  48.960  1.00  0.00     0.029 A 
ENDBRANCH  21  24
ENDBRANCH  19  20
ENDBRANCH   3  19
TORSDOF 5
ENDMDL
MODEL 9
REMARK VINA RESULT:      -8.1      5.353      8.946
REMARK  5 active torsions:
REMARK  status: ('A' for Active; 'I' for Inactive)
REMARK    1  A    between atoms: C_3  and  N_4 
REMARK       I    between atoms: N_4  and  C_5 
REMARK       I    between atoms: C_5  and  N_6 
REMARK    2  A    between atoms: N_6  and  C_7 
REMARK    3  A    between atoms: C_7  and  C_8 
REMARK       I    between atoms: C_8  and  N_9 
REMARK    4  A    between atoms: N_9  and  C_10 
REMARK    5  A    between atoms: C_19  and  C_20 
ROOT
HETATM    1  N   UNL     1      24.970  43.112  51.431  1.00  0.00    -0.309 N 
HETATM    2  C   UNL     1      25.936  44.069  51.629  1.00  0.00     0.321 C 
HETATM    3  N   UNL     1      25.559  44.990  52.570  1.00  0.00    -0.334 N 
HETATM    4  O   UNL     1      27.026  44.114  51.072  1.00  0.00    -0.247 OA
HETATM    5  H   UNL     1      24.504  42.822  52.276  1.00  0.00     0.170 HD
HETATM    6  H   UNL     1      24.596  44.976  52.869  1.00  0.00     0.164 HD
ENDROOT
BRANCH   1   7
HETATM    7  C   UNL     1      24.988  42.187  50.361  1.00  0.00     0.043 A 
HETATM    8  C   UNL     1      24.056  42.300  49.313  1.00  0.00    -0.035 A 
HETATM    9  C   UNL     1      22.940  43.309  49.328  1.00  0.00     0.050 C 
HETATM   10  C   UNL     1      24.123  41.389  48.248  1.00  0.00     0.010 A 
HETATM   11  C   UNL     1      25.121  40.414  48.201  1.00  0.00     0.016 A 
HETATM   12  C   UNL     1      26.074  40.314  49.221  1.00  0.00     0.019 A 
HETATM   13  C   UNL     1      25.983  41.197  50.308  1.00  0.00     0.046 A 
BRANCH  12  14
HETATM   14  C   UNL     1      27.146  39.329  49.111  1.00  0.00     0.179 A 
HETATM   15  O   UNL     1      26.955  38.126  49.745  1.00  0.00    -0.302 OA
HETATM   16  C   UNL     1      28.109  37.441  49.519  1.00  0.00     0.163 A 
HETATM   17  C   UNL     1      28.936  38.239  48.772  1.00  0.00     0.144 A 
HETATM   18  N   UNL     1      28.321  39.438  48.515  1.00  0.00    -0.234 NA
ENDBRANCH  12  14
ENDBRANCH   1   7
BRANCH   3  19
HETATM   19  C   UNL     1      26.504  45.735  53.392  1.00  0.00     0.227 C 
BRANCH  19  20
HETATM   20  C   UNL     1      27.138  45.105  54.650  1.00  0.00     0.239 C 
HETATM   21  N   UNL     1      28.311  45.711  55.044  1.00  0.00    -0.326 N 
HETATM   22  H   UNL     1      28.531  46.598  54.585  1.00  0.00     0.169 HD
HETATM   23  O   UNL     1      26.679  44.056  55.102  1.00  0.00    -0.271 OA
BRANCH  21  24
HETATM   24  C   UNL     1      29.305  45.217  55.910  1.00  0.00     0.034 A 
HETATM   25  C   UNL     1      30.209  44.210  55.574  1.00  0.00     0.029 A 
HETATM   26  C   UNL     1      31.213  43.833  56.472  1.00  0.00     0.002 A 
HETATM   27  C   UNL     1      31.314  44.454  57.715  1.00  0.00     0.000 A 
HETATM   28  C   UNL     1      30.408  45.450  58.066  1.00  0.00     0.002 A 
HETATM   29  C   UNL     1      29.409  45.831  57.167  1.00  0.00     0.029 A 
ENDBRANCH  21  24
ENDBRANCH  19  20
ENDBRANCH   3  19
TORSDOF 5
ENDMDL
MODEL 10
REMARK VINA RESULT:      -8.0      3.951     11.736
REMARK  5 active torsions:
REMARK  status: ('A' for Active; 'I' for Inactive)
REMARK    1  A    between atoms: C_3  and  N_4 
REMARK       I    between atoms: N_4  and  C_5 
REMARK       I    between atoms: C_5  and  N_6 
REMARK    2  A    between atoms: N_6  and  C_7 
REMARK    3  A    between atoms: C_7  and  C_8 
REMARK       I    between atoms: C_8  and  N_9 
REMARK    4  A    between atoms: N_9  and  C_10 
REMARK    5  A    between atoms: C_19  and  C_20 
ROOT
HETATM    1  N   UNL     1      18.989  50.641  49.798  1.00  0.00    -0.309 N 
HETATM    2  C   UNL     1      20.191  51.175  49.398  1.00  0.00     0.321 C 
HETATM    3  N   UNL     1      21.243  50.647  50.097  1.00  0.00    -0.334 N 
HETATM    4  O   UNL     1      20.348  52.005  48.511  1.00  0.00    -0.247 OA
HETATM    5  H   UNL     1      19.028  49.655  49.999  1.00  0.00     0.170 HD
HETATM    6  H   UNL     1      21.025  50.089  50.909  1.00  0.00     0.164 HD
ENDROOT
BRANCH   1   7
HETATM    7  C   UNL     1      17.731  51.167  49.421  1.00  0.00     0.043 A 
HETATM    8  C   UNL     1      16.920  50.471  48.505  1.00  0.00    -0.035 A 
HETATM    9  C   UNL     1      17.382  49.225  47.801  1.00  0.00     0.050 C 
HETATM   10  C   UNL     1      15.662  51.000  48.178  1.00  0.00     0.010 A 
HETATM   11  C   UNL     1      15.199  52.172  48.782  1.00  0.00     0.016 A 
HETATM   12  C   UNL     1      15.983  52.853  49.720  1.00  0.00     0.019 A 
HETATM   13  C   UNL     1      17.259  52.348  50.015  1.00  0.00     0.046 A 
BRANCH  12  14
HETATM   14  C   UNL     1      15.445  54.036  50.384  1.00  0.00     0.179 A 
HETATM   15  O   UNL     1      14.704  53.830  51.522  1.00  0.00    -0.302 OA
HETATM   16  C   UNL     1      14.299  55.077  51.888  1.00  0.00     0.163 A 
HETATM   17  C   UNL     1      14.799  55.970  50.977  1.00  0.00     0.144 A 
HETATM   18  N   UNL     1      15.526  55.305  50.022  1.00  0.00    -0.234 NA
ENDBRANCH  12  14
ENDBRANCH   1   7
BRANCH   3  19
HETATM   19  C   UNL     1      22.597  50.553  49.566  1.00  0.00     0.227 C 
BRANCH  19  20
HETATM   20  C   UNL     1      23.134  49.232  48.977  1.00  0.00     0.239 C 
HETATM   21  N   UNL     1      23.598  48.349  49.928  1.00  0.00    -0.326 N 
HETATM   22  H   UNL     1      23.376  48.580  50.898  1.00  0.00     0.169 HD
HETATM   23  O   UNL     1      23.265  49.117  47.759  1.00  0.00    -0.271 OA
BRANCH  21  24
HETATM   24  C   UNL     1      24.435  47.231  49.751  1.00  0.00     0.034 A 
HETATM   25  C   UNL     1      25.822  47.258  49.902  1.00  0.00     0.029 A 
HETATM   26  C   UNL     1      26.569  46.081  49.781  1.00  0.00     0.002 A 
HETATM   27  C   UNL     1      25.936  44.873  49.499  1.00  0.00     0.000 A 
HETATM   28  C   UNL     1      24.555  44.838  49.332  1.00  0.00     0.002 A 
HETATM   29  C   UNL     1      23.808  46.011  49.459  1.00  0.00     0.029 A 
ENDBRANCH  21  24
ENDBRANCH  19  20
ENDBRANCH   3  19
TORSDOF 5
ENDMDL
