MODEL 1
REMARK VINA RESULT:      -9.1      0.000      0.000
REMARK  2 active torsions:
REMARK  status: ('A' for Active; 'I' for Inactive)
REMARK    1  A    between atoms: C_6  and  N_7 
REMARK    2  A    between atoms: N_7  and  C_8 
ROOT
HETATM    1  C   UNL     1      28.396  39.858  50.521  1.00  0.00     0.093 C 
HETATM    2  C   UNL     1      28.201  41.129  51.289  1.00  0.00     0.125 A 
HETATM    3  N   UNL     1      29.056  41.386  52.278  1.00  0.00    -0.226 NA
HETATM    4  C   UNL     1      28.786  42.531  52.922  1.00  0.00     0.114 A 
HETATM    5  C   UNL     1      27.744  43.414  52.663  1.00  0.00     0.053 A 
HETATM    6  C   UNL     1      26.906  43.065  51.571  1.00  0.00     0.143 A 
HETATM    7  N   UNL     1      27.168  41.904  50.922  1.00  0.00    -0.215 NA
HETATM    8  S   UNL     1      29.793  43.028  54.200  1.00  0.00    -0.073 SA
HETATM    9  C   UNL     1      28.876  44.431  54.455  1.00  0.00    -0.008 A 
HETATM   10  C   UNL     1      27.783  44.521  53.609  1.00  0.00    -0.028 A 
HETATM   11  C   UNL     1      26.835  45.685  53.703  1.00  0.00     0.041 C 
HETATM   12  C   UNL     1      27.028  46.510  54.985  1.00  0.00     0.005 C 
HETATM   13  C   UNL     1      28.510  46.744  55.298  1.00  0.00     0.005 C 
HETATM   14  C   UNL     1      29.241  45.415  55.524  1.00  0.00     0.047 C 
ENDROOT
BRANCH   6  15
HETATM   15  N   UNL     1      25.827  43.867  51.165  1.00  0.00    -0.340 N 
HETATM   16  H   UNL     1      24.928  43.449  51.328  1.00  0.00     0.167 HD
BRANCH  15  17
HETATM   17  C   UNL     1      25.746  45.198  50.712  1.00  0.00     0.036 A 
HETATM   18  C   UNL     1      26.847  45.728  50.014  1.00  0.00     0.069 A 
HETATM   19  C   UNL     1      26.799  47.038  49.583  1.00  0.00     0.107 A 
HETATM   20  C   UNL     1      25.712  47.840  49.824  1.00  0.00     0.105 A 
HETATM   21  O   UNL     1      27.778  47.683  48.893  1.00  0.00    -0.323 OA
HETATM   22  O   UNL     1      25.864  49.090  49.316  1.00  0.00    -0.323 OA
HETATM   23  C   UNL     1      24.619  47.374  50.514  1.00  0.00     0.042 A 
HETATM   24  C   UNL     1      27.177  48.986  48.728  1.00  0.00     0.352 A 
HETATM   25  C   UNL     1      24.646  46.046  50.963  1.00  0.00     0.032 A 
ENDBRANCH  15  17
ENDBRANCH   6  15
TORSDOF 2
ENDMDL
MODEL 2
REMARK VINA RESULT:      -9.0      7.273     10.059
REMARK  2 active torsions:
REMARK  status: ('A' for Active; 'I' for Inactive)
REMARK    1  A    between atoms: C_6  and  N_7 
REMARK    2  A    between atoms: N_7  and  C_8 
ROOT
HETATM    1  C   UNL     1      18.978  44.738  47.641  1.00  0.00     0.093 C 
HETATM    2  C   UNL     1      18.779  46.161  48.062  1.00  0.00     0.125 A 
HETATM    3  N   UNL     1      17.575  46.695  47.872  1.00  0.00    -0.226 NA
HETATM    4  C   UNL     1      17.501  47.978  48.255  1.00  0.00     0.114 A 
HETATM    5  C   UNL     1      18.522  48.753  48.793  1.00  0.00     0.053 A 
HETATM    6  C   UNL     1      19.760  48.084  48.983  1.00  0.00     0.143 A 
HETATM    7  N   UNL     1      19.843  46.789  48.589  1.00  0.00    -0.215 NA
HETATM    8  S   UNL     1      16.026  48.813  48.106  1.00  0.00    -0.073 SA
HETATM    9  C   UNL     1      16.695  50.231  48.748  1.00  0.00    -0.008 A 
HETATM   10  C   UNL     1      18.042  50.105  49.045  1.00  0.00    -0.028 A 
HETATM   11  C   UNL     1      18.817  51.268  49.600  1.00  0.00     0.041 C 
HETATM   12  C   UNL     1      18.062  52.602  49.476  1.00  0.00     0.005 C 
HETATM   13  C   UNL     1      16.583  52.460  49.851  1.00  0.00     0.005 C 
HETATM   14  C   UNL     1      15.872  51.471  48.919  1.00  0.00     0.047 C 
ENDROOT
BRANCH   6  15
HETATM   15  N   UNL     1      20.881  48.719  49.542  1.00  0.00    -0.340 N 
HETATM   16  H   UNL     1      20.857  48.772  50.545  1.00  0.00     0.167 HD
BRANCH  15  17
HETATM   17  C   UNL     1      22.100  49.162  48.992  1.00  0.00     0.036 A 
HETATM   18  C   UNL     1      23.288  48.561  49.447  1.00  0.00     0.069 A 
HETATM   19  C   UNL     1      24.495  48.997  48.941  1.00  0.00     0.107 A 
HETATM   20  C   UNL     1      24.569  50.005  48.013  1.00  0.00     0.105 A 
HETATM   21  O   UNL     1      25.720  48.510  49.277  1.00  0.00    -0.323 OA
HETATM   22  O   UNL     1      25.847  50.281  47.644  1.00  0.00    -0.323 OA
HETATM   23  C   UNL     1      23.439  50.633  47.548  1.00  0.00     0.042 A 
HETATM   24  C   UNL     1      26.573  49.331  48.450  1.00  0.00     0.352 A 
HETATM   25  C   UNL     1      22.200  50.208  48.050  1.00  0.00     0.032 A 
ENDBRANCH  15  17
ENDBRANCH   6  15
TORSDOF 2
ENDMDL
MODEL 3
REMARK VINA RESULT:      -8.9      3.536      5.974
REMARK  2 active torsions:
REMARK  status: ('A' for Active; 'I' for Inactive)
REMARK    1  A    between atoms: C_6  and  N_7 
REMARK    2  A    between atoms: N_7  and  C_8 
ROOT
HETATM    1  C   UNL     1      24.657  45.527  51.643  1.00  0.00     0.093 C 
HETATM    2  C   UNL     1      25.815  45.112  52.498  1.00  0.00     0.125 A 
HETATM    3  N   UNL     1      26.345  46.032  53.301  1.00  0.00    -0.226 NA
HETATM    4  C   UNL     1      27.391  45.576  54.006  1.00  0.00     0.114 A 
HETATM    5  C   UNL     1      27.939  44.299  53.963  1.00  0.00     0.053 A 
HETATM    6  C   UNL     1      27.283  43.383  53.097  1.00  0.00     0.143 A 
HETATM    7  N   UNL     1      26.231  43.842  52.375  1.00  0.00    -0.215 NA
HETATM    8  S   UNL     1      28.177  46.613  55.103  1.00  0.00    -0.073 SA
HETATM    9  C   UNL     1      29.273  45.402  55.554  1.00  0.00    -0.008 A 
HETATM   10  C   UNL     1      29.084  44.218  54.859  1.00  0.00    -0.028 A 
HETATM   11  C   UNL     1      29.979  43.034  55.103  1.00  0.00     0.041 C 
HETATM   12  C   UNL     1      31.240  43.395  55.905  1.00  0.00     0.005 C 
HETATM   13  C   UNL     1      30.925  44.331  57.077  1.00  0.00     0.005 C 
HETATM   14  C   UNL     1      30.335  45.656  56.579  1.00  0.00     0.047 C 
ENDROOT
BRANCH   6  15
HETATM   15  N   UNL     1      27.697  42.048  52.963  1.00  0.00    -0.340 N 
HETATM   16  H   UNL     1      27.692  41.534  53.826  1.00  0.00     0.167 HD
BRANCH  15  17
HETATM   17  C   UNL     1      27.974  41.244  51.840  1.00  0.00     0.036 A 
HETATM   18  C   UNL     1      28.827  40.138  52.013  1.00  0.00     0.069 A 
HETATM   19  C   UNL     1      29.132  39.351  50.921  1.00  0.00     0.107 A 
HETATM   20  C   UNL     1      28.634  39.622  49.672  1.00  0.00     0.105 A 
HETATM   21  O   UNL     1      29.931  38.250  50.934  1.00  0.00    -0.323 OA
HETATM   22  O   UNL     1      29.052  38.727  48.739  1.00  0.00    -0.323 OA
HETATM   23  C   UNL     1      27.809  40.698  49.449  1.00  0.00     0.042 A 
HETATM   24  C   UNL     1      29.875  37.860  49.545  1.00  0.00     0.352 A 
HETATM   25  C   UNL     1      27.487  41.514  50.543  1.00  0.00     0.032 A 
ENDBRANCH  15  17
ENDBRANCH   6  15
TORSDOF 2
ENDMDL
MODEL 4
REMARK VINA RESULT:      -8.9      1.744      2.602
REMARK  2 active torsions:
REMARK  status: ('A' for Active; 'I' for Inactive)
REMARK    1  A    between atoms: C_6  and  N_7 
REMARK    2  A    between atoms: N_7  and  C_8 
ROOT
HETATM    1  C   UNL     1      25.201  41.840  49.465  1.00  0.00     0.093 C 
HETATM    2  C   UNL     1      25.718  42.796  50.496  1.00  0.00     0.125 A 
HETATM    3  N   UNL     1      26.646  42.348  51.339  1.00  0.00    -0.226 NA
HETATM    4  C   UNL     1      27.026  43.266  52.239  1.00  0.00     0.114 A 
HETATM    5  C   UNL     1      26.552  44.568  52.363  1.00  0.00     0.053 A 
HETATM    6  C   UNL     1      25.585  44.958  51.399  1.00  0.00     0.143 A 
HETATM    7  N   UNL     1      25.190  44.031  50.491  1.00  0.00    -0.215 NA
HETATM    8  S   UNL     1      28.224  42.871  53.382  1.00  0.00    -0.073 SA
HETATM    9  C   UNL     1      28.150  44.414  54.080  1.00  0.00    -0.008 A 
HETATM   10  C   UNL     1      27.199  45.228  53.488  1.00  0.00    -0.028 A 
HETATM   11  C   UNL     1      26.968  46.627  53.990  1.00  0.00     0.041 C 
HETATM   12  C   UNL     1      27.628  46.889  55.353  1.00  0.00     0.005 C 
HETATM   13  C   UNL     1      29.044  46.308  55.425  1.00  0.00     0.005 C 
HETATM   14  C   UNL     1      29.025  44.786  55.238  1.00  0.00     0.047 C 
ENDROOT
BRANCH   6  15
HETATM   15  N   UNL     1      25.030  46.247  51.370  1.00  0.00    -0.340 N 
HETATM   16  H   UNL     1      24.554  46.502  52.219  1.00  0.00     0.167 HD
BRANCH  15  17
HETATM   17  C   UNL     1      25.132  47.310  50.452  1.00  0.00     0.036 A 
HETATM   18  C   UNL     1      23.942  47.831  49.909  1.00  0.00     0.069 A 
HETATM   19  C   UNL     1      24.020  48.856  48.988  1.00  0.00     0.107 A 
HETATM   20  C   UNL     1      25.224  49.374  48.581  1.00  0.00     0.105 A 
HETATM   21  O   UNL     1      22.963  49.464  48.385  1.00  0.00    -0.323 OA
HETATM   22  O   UNL     1      25.081  50.374  47.673  1.00  0.00    -0.323 OA
HETATM   23  C   UNL     1      26.413  48.889  49.070  1.00  0.00     0.042 A 
HETATM   24  C   UNL     1      23.645  50.427  47.552  1.00  0.00     0.352 A 
HETATM   25  C   UNL     1      26.358  47.846  50.006  1.00  0.00     0.032 A 
ENDBRANCH  15  17
ENDBRANCH   6  15
TORSDOF 2
ENDMDL
MODEL 5
REMARK VINA RESULT:      -8.9      2.169      4.254
REMARK  2 active torsions:
REMARK  status: ('A' for Active; 'I' for Inactive)
REMARK    1  A    between atoms: C_6  and  N_7 
REMARK    2  A    between atoms: N_7  and  C_8 
ROOT
HETATM    1  C   UNL     1      26.143  49.174  55.975  1.00  0.00     0.093 C 
HETATM    2  C   UNL     1      26.641  47.934  55.297  1.00  0.00     0.125 A 
HETATM    3  N   UNL     1      27.602  47.244  55.908  1.00  0.00    -0.226 NA
HETATM    4  C   UNL     1      28.000  46.168  55.214  1.00  0.00     0.114 A 
HETATM    5  C   UNL     1      27.525  45.744  53.978  1.00  0.00     0.053 A 
HETATM    6  C   UNL     1      26.481  46.531  53.423  1.00  0.00     0.143 A 
HETATM    7  N   UNL     1      26.081  47.626  54.117  1.00  0.00    -0.215 NA
HETATM    8  S   UNL     1      29.207  45.156  55.859  1.00  0.00    -0.073 SA
HETATM    9  C   UNL     1      29.141  44.123  54.516  1.00  0.00    -0.008 A 
HETATM   10  C   UNL     1      28.241  44.548  53.553  1.00  0.00    -0.028 A 
HETATM   11  C   UNL     1      28.062  43.774  52.276  1.00  0.00     0.041 C 
HETATM   12  C   UNL     1      29.169  42.733  52.049  1.00  0.00     0.005 C 
HETATM   13  C   UNL     1      29.503  41.964  53.332  1.00  0.00     0.005 C 
HETATM   14  C   UNL     1      30.016  42.911  54.424  1.00  0.00     0.047 C 
ENDROOT
BRANCH   6  15
HETATM   15  N   UNL     1      25.875  46.219  52.196  1.00  0.00    -0.340 N 
HETATM   16  H   UNL     1      25.540  45.273  52.138  1.00  0.00     0.167 HD
BRANCH  15  17
HETATM   17  C   UNL     1      25.509  47.006  51.086  1.00  0.00     0.036 A 
HETATM   18  C   UNL     1      26.490  47.835  50.510  1.00  0.00     0.069 A 
HETATM   19  C   UNL     1      26.147  48.633  49.438  1.00  0.00     0.107 A 
HETATM   20  C   UNL     1      24.875  48.646  48.924  1.00  0.00     0.105 A 
HETATM   21  O   UNL     1      26.984  49.476  48.776  1.00  0.00    -0.323 OA
HETATM   22  O   UNL     1      24.747  49.496  47.872  1.00  0.00    -0.323 OA
HETATM   23  C   UNL     1      23.879  47.866  49.460  1.00  0.00     0.042 A 
HETATM   24  C   UNL     1      26.088  50.020  47.783  1.00  0.00     0.352 A 
HETATM   25  C   UNL     1      24.204  47.048  50.552  1.00  0.00     0.032 A 
ENDBRANCH  15  17
ENDBRANCH   6  15
TORSDOF 2
ENDMDL
MODEL 6
REMARK VINA RESULT:      -8.8      2.380      4.619
REMARK  2 active torsions:
REMARK  status: ('A' for Active; 'I' for Inactive)
REMARK    1  A    between atoms: C_6  and  N_7 
REMARK    2  A    between atoms: N_7  and  C_8 
ROOT
HETATM    1  C   UNL     1      26.477  48.406  55.401  1.00  0.00     0.093 C 
HETATM    2  C   UNL     1      26.541  47.229  54.477  1.00  0.00     0.125 A 
HETATM    3  N   UNL     1      27.231  46.165  54.885  1.00  0.00    -0.226 NA
HETATM    4  C   UNL     1      27.253  45.174  53.981  1.00  0.00     0.114 A 
HETATM    5  C   UNL     1      26.658  45.171  52.725  1.00  0.00     0.053 A 
HETATM    6  C   UNL     1      25.922  46.340  52.396  1.00  0.00     0.143 A 
HETATM    7  N   UNL     1      25.903  47.349  53.302  1.00  0.00    -0.215 NA
HETATM    8  S   UNL     1      28.070  43.727  54.347  1.00  0.00    -0.073 SA
HETATM    9  C   UNL     1      27.664  43.050  52.847  1.00  0.00    -0.008 A 
HETATM   10  C   UNL     1      26.943  43.917  52.042  1.00  0.00    -0.028 A 
HETATM   11  C   UNL     1      26.515  43.502  50.661  1.00  0.00     0.041 C 
HETATM   12  C   UNL     1      27.222  42.228  50.173  1.00  0.00     0.005 C 
HETATM   13  C   UNL     1      27.297  41.160  51.269  1.00  0.00     0.005 C 
HETATM   14  C   UNL     1      28.098  41.665  52.476  1.00  0.00     0.047 C 
ENDROOT
BRANCH   6  15
HETATM   15  N   UNL     1      25.239  46.481  51.177  1.00  0.00    -0.340 N 
HETATM   16  H   UNL     1      24.614  45.721  50.972  1.00  0.00     0.167 HD
BRANCH  15  17
HETATM   17  C   UNL     1      25.141  47.542  50.255  1.00  0.00     0.036 A 
HETATM   18  C   UNL     1      23.858  47.930  49.828  1.00  0.00     0.069 A 
HETATM   19  C   UNL     1      23.740  48.950  48.907  1.00  0.00     0.107 A 
HETATM   20  C   UNL     1      24.838  49.590  48.390  1.00  0.00     0.105 A 
HETATM   21  O   UNL     1      22.572  49.439  48.408  1.00  0.00    -0.323 OA
HETATM   22  O   UNL     1      24.505  50.563  47.502  1.00  0.00    -0.323 OA
HETATM   23  C   UNL     1      26.112  49.237  48.763  1.00  0.00     0.042 A 
HETATM   24  C   UNL     1      23.066  50.462  47.517  1.00  0.00     0.352 A 
HETATM   25  C   UNL     1      26.257  48.201  49.697  1.00  0.00     0.032 A 
ENDBRANCH  15  17
ENDBRANCH   6  15
TORSDOF 2
ENDMDL
MODEL 7
REMARK VINA RESULT:      -8.4      1.717      2.453
REMARK  2 active torsions:
REMARK  status: ('A' for Active; 'I' for Inactive)
REMARK    1  A    between atoms: C_6  and  N_7 
REMARK    2  A    between atoms: N_7  and  C_8 
ROOT
HETATM    1  C   UNL     1      25.043  40.944  48.588  1.00  0.00     0.093 C 
HETATM    2  C   UNL     1      25.608  41.767  49.705  1.00  0.00     0.125 A 
HETATM    3  N   UNL     1      26.581  41.226  50.436  1.00  0.00    -0.226 NA
HETATM    4  C   UNL     1      27.002  42.027  51.425  1.00  0.00     0.114 A 
HETATM    5  C   UNL     1      26.529  43.296  51.738  1.00  0.00     0.053 A 
HETATM    6  C   UNL     1      25.512  43.795  50.882  1.00  0.00     0.143 A 
HETATM    7  N   UNL     1      25.075  42.987  49.885  1.00  0.00    -0.215 NA
HETATM    8  S   UNL     1      28.260  41.503  52.446  1.00  0.00    -0.073 SA
HETATM    9  C   UNL     1      28.215  42.943  53.338  1.00  0.00    -0.008 A 
HETATM   10  C   UNL     1      27.231  43.816  52.904  1.00  0.00    -0.028 A 
HETATM   11  C   UNL     1      27.020  45.137  53.591  1.00  0.00     0.041 C 
HETATM   12  C   UNL     1      27.748  45.230  54.942  1.00  0.00     0.005 C 
HETATM   13  C   UNL     1      29.169  44.661  54.866  1.00  0.00     0.005 C 
HETATM   14  C   UNL     1      29.147  43.175  54.488  1.00  0.00     0.047 C 
ENDROOT
BRANCH   6  15
HETATM   15  N   UNL     1      24.950  45.071  51.047  1.00  0.00    -0.340 N 
HETATM   16  H   UNL     1      24.319  45.138  51.827  1.00  0.00     0.167 HD
BRANCH  15  17
HETATM   17  C   UNL     1      25.204  46.313  50.432  1.00  0.00     0.036 A 
HETATM   18  C   UNL     1      24.113  47.018  49.891  1.00  0.00     0.069 A 
HETATM   19  C   UNL     1      24.342  48.224  49.261  1.00  0.00     0.107 A 
HETATM   20  C   UNL     1      25.604  48.750  49.141  1.00  0.00     0.105 A 
HETATM   21  O   UNL     1      23.392  49.021  48.700  1.00  0.00    -0.323 OA
HETATM   22  O   UNL     1      25.612  49.943  48.492  1.00  0.00    -0.323 OA
HETATM   23  C   UNL     1      26.703  48.092  49.639  1.00  0.00     0.042 A 
HETATM   24  C   UNL     1      24.207  50.109  48.213  1.00  0.00     0.352 A 
HETATM   25  C   UNL     1      26.494  46.863  50.281  1.00  0.00     0.032 A 
ENDBRANCH  15  17
ENDBRANCH   6  15
TORSDOF 2
ENDMDL
MODEL 8
REMARK VINA RESULT:      -8.3      3.798      7.183
REMARK  2 active torsions:
REMARK  status: ('A' for Active; 'I' for Inactive)
REMARK    1  A    between atoms: C_6  and  N_7 
REMARK    2  A    between atoms: N_7  and  C_8 
ROOT
HETATM    1  C   UNL     1      25.749  47.582  54.040  1.00  0.00     0.093 C 
HETATM    2  C   UNL     1      26.085  46.283  53.376  1.00  0.00     0.125 A 
HETATM    3  N   UNL     1      25.215  45.803  52.489  1.00  0.00    -0.226 NA
HETATM    4  C   UNL     1      25.590  44.626  51.968  1.00  0.00     0.114 A 
HETATM    5  C   UNL     1      26.739  43.903  52.268  1.00  0.00     0.053 A 
HETATM    6  C   UNL     1      27.615  44.512  53.204  1.00  0.00     0.143 A 
HETATM    7  N   UNL     1      27.238  45.699  53.741  1.00  0.00    -0.215 NA
HETATM    8  S   UNL     1      24.606  43.878  50.798  1.00  0.00    -0.073 SA
HETATM    9  C   UNL     1      25.671  42.568  50.653  1.00  0.00    -0.008 A 
HETATM   10  C   UNL     1      26.757  42.660  51.509  1.00  0.00    -0.028 A 
HETATM   11  C   UNL     1      27.799  41.576  51.544  1.00  0.00     0.041 C 
HETATM   12  C   UNL     1      27.355  40.297  50.817  1.00  0.00     0.005 C 
HETATM   13  C   UNL     1      26.663  40.606  49.485  1.00  0.00     0.005 C 
HETATM   14  C   UNL     1      25.396  41.442  49.705  1.00  0.00     0.047 C 
ENDROOT
BRANCH   6  15
HETATM   15  N   UNL     1      28.830  43.924  53.591  1.00  0.00    -0.340 N 
HETATM   16  H   UNL     1      29.313  43.461  52.840  1.00  0.00     0.167 HD
BRANCH  15  17
HETATM   17  C   UNL     1      29.581  43.978  54.782  1.00  0.00     0.036 A 
HETATM   18  C   UNL     1      29.407  45.094  55.622  1.00  0.00     0.069 A 
HETATM   19  C   UNL     1      30.150  45.180  56.781  1.00  0.00     0.107 A 
HETATM   20  C   UNL     1      31.059  44.214  57.132  1.00  0.00     0.105 A 
HETATM   21  O   UNL     1      30.086  46.189  57.692  1.00  0.00    -0.323 OA
HETATM   22  O   UNL     1      31.682  44.487  58.308  1.00  0.00    -0.323 OA
HETATM   23  C   UNL     1      31.275  43.114  56.338  1.00  0.00     0.042 A 
HETATM   24  C   UNL     1      31.062  45.742  58.658  1.00  0.00     0.352 A 
HETATM   25  C   UNL     1      30.533  43.006  55.154  1.00  0.00     0.032 A 
ENDBRANCH  15  17
ENDBRANCH   6  15
TORSDOF 2
ENDMDL
MODEL 9
REMARK VINA RESULT:      -8.2      2.664      4.681
REMARK  2 active torsions:
REMARK  status: ('A' for Active; 'I' for Inactive)
REMARK    1  A    between atoms: C_6  and  N_7 
REMARK    2  A    between atoms: N_7  and  C_8 
ROOT
HETATM    1  C   UNL     1      25.770  49.155  55.898  1.00  0.00     0.093 C 
HETATM    2  C   UNL     1      26.486  47.926  55.431  1.00  0.00     0.125 A 
HETATM    3  N   UNL     1      27.575  47.557  56.102  1.00  0.00    -0.226 NA
HETATM    4  C   UNL     1      28.161  46.462  55.594  1.00  0.00     0.114 A 
HETATM    5  C   UNL     1      27.753  45.730  54.485  1.00  0.00     0.053 A 
HETATM    6  C   UNL     1      26.565  46.188  53.856  1.00  0.00     0.143 A 
HETATM    7  N   UNL     1      25.974  47.300  54.359  1.00  0.00    -0.215 NA
HETATM    8  S   UNL     1      29.554  45.835  56.344  1.00  0.00    -0.073 SA
HETATM    9  C   UNL     1      29.665  44.574  55.218  1.00  0.00    -0.008 A 
HETATM   10  C   UNL     1      28.679  44.632  54.245  1.00  0.00    -0.028 A 
HETATM   11  C   UNL     1      28.629  43.610  53.143  1.00  0.00     0.041 C 
HETATM   12  C   UNL     1      29.914  42.771  53.048  1.00  0.00     0.005 C 
HETATM   13  C   UNL     1      30.416  42.336  54.428  1.00  0.00     0.005 C 
HETATM   14  C   UNL     1      30.757  43.552  55.299  1.00  0.00     0.047 C 
ENDROOT
BRANCH   6  15
HETATM   15  N   UNL     1      26.008  45.541  52.741  1.00  0.00    -0.340 N 
HETATM   16  H   UNL     1      26.051  44.538  52.791  1.00  0.00     0.167 HD
BRANCH  15  17
HETATM   17  C   UNL     1      25.267  46.010  51.638  1.00  0.00     0.036 A 
HETATM   18  C   UNL     1      24.383  45.114  51.007  1.00  0.00     0.069 A 
HETATM   19  C   UNL     1      23.666  45.544  49.910  1.00  0.00     0.107 A 
HETATM   20  C   UNL     1      23.798  46.816  49.412  1.00  0.00     0.105 A 
HETATM   21  O   UNL     1      22.772  44.800  49.203  1.00  0.00    -0.323 OA
HETATM   22  O   UNL     1      23.004  47.037  48.332  1.00  0.00    -0.323 OA
HETATM   23  C   UNL     1      24.658  47.722  49.983  1.00  0.00     0.042 A 
HETATM   24  C   UNL     1      22.357  45.755  48.203  1.00  0.00     0.352 A 
HETATM   25  C   UNL     1      25.399  47.306  51.099  1.00  0.00     0.032 A 
ENDBRANCH  15  17
ENDBRANCH   6  15
TORSDOF 2
ENDMDL
MODEL 10
REMARK VINA RESULT:      -8.1      3.563      5.670
REMARK  2 active torsions:
REMARK  status: ('A' for Active; 'I' for Inactive)
REMARK    1  A    between atoms: C_6  and  N_7 
REMARK    2  A    between atoms: N_7  and  C_8 
ROOT
HETATM    1  C   UNL     1      25.702  48.013  54.299  1.00  0.00     0.093 C 
HETATM    2  C   UNL     1      26.798  47.058  54.658  1.00  0.00     0.125 A 
HETATM    3  N   UNL     1      27.362  47.192  55.856  1.00  0.00    -0.226 NA
HETATM    4  C   UNL     1      28.349  46.311  56.075  1.00  0.00     0.114 A 
HETATM    5  C   UNL     1      28.810  45.332  55.202  1.00  0.00     0.053 A 
HETATM    6  C   UNL     1      28.125  45.252  53.961  1.00  0.00     0.143 A 
HETATM    7  N   UNL     1      27.132  46.146  53.730  1.00  0.00    -0.215 NA
HETATM    8  S   UNL     1      29.166  46.323  57.568  1.00  0.00    -0.073 SA
HETATM    9  C   UNL     1      30.161  45.033  57.103  1.00  0.00    -0.008 A 
HETATM   10  C   UNL     1      29.916  44.605  55.808  1.00  0.00    -0.028 A 
HETATM   11  C   UNL     1      30.720  43.484  55.207  1.00  0.00     0.041 C 
HETATM   12  C   UNL     1      31.974  43.142  56.027  1.00  0.00     0.005 C 
HETATM   13  C   UNL     1      31.683  43.111  57.531  1.00  0.00     0.005 C 
HETATM   14  C   UNL     1      31.202  44.480  58.027  1.00  0.00     0.047 C 
ENDROOT
BRANCH   6  15
HETATM   15  N   UNL     1      28.451  44.299  52.982  1.00  0.00    -0.340 N 
HETATM   16  H   UNL     1      29.440  44.168  52.858  1.00  0.00     0.167 HD
BRANCH  15  17
HETATM   17  C   UNL     1      27.674  43.384  52.245  1.00  0.00     0.036 A 
HETATM   18  C   UNL     1      28.273  42.171  51.857  1.00  0.00     0.069 A 
HETATM   19  C   UNL     1      27.538  41.271  51.112  1.00  0.00     0.107 A 
HETATM   20  C   UNL     1      26.245  41.529  50.733  1.00  0.00     0.105 A 
HETATM   21  O   UNL     1      27.976  40.060  50.672  1.00  0.00    -0.323 OA
HETATM   22  O   UNL     1      25.702  40.516  50.010  1.00  0.00    -0.323 OA
HETATM   23  C   UNL     1      25.622  42.705  51.075  1.00  0.00     0.042 A 
HETATM   24  C   UNL     1      26.805  39.587  49.973  1.00  0.00     0.352 A 
HETATM   25  C   UNL     1      26.350  43.636  51.829  1.00  0.00     0.032 A 
ENDBRANCH  15  17
ENDBRANCH   6  15
TORSDOF 2
ENDMDL
