MODEL 1
REMARK VINA RESULT:      -9.2      0.000      0.000
REMARK  3 active torsions:
REMARK  status: ('A' for Active; 'I' for Inactive)
REMARK    1  A    between atoms: C_2  and  O_3 
REMARK    2  A    between atoms: O_3  and  C_4 
REMARK    3  A    between atoms: C_8  and  N_9 
REMARK       I    between atoms: N_9  and  C_10 
REMARK       I    between atoms: C_10  and  N_11 
ROOT
HETATM    1  N   UNL     1      24.695  46.239  50.003  1.00  0.00    -0.306 N 
HETATM    2  C   UNL     1      24.677  47.579  49.686  1.00  0.00     0.323 C 
HETATM    3  N   UNL     1      23.592  47.987  48.917  1.00  0.00    -0.328 N 
HETATM    4  C   UNL     1      23.536  49.413  48.560  1.00  0.00     0.185 C 
HETATM    5  C   UNL     1      22.114  49.858  48.575  1.00  0.00     0.035 A 
HETATM    6  C   UNL     1      20.993  49.057  48.657  1.00  0.00    -0.020 A 
HETATM    7  C   UNL     1      21.109  47.581  48.779  1.00  0.00     0.061 C 
HETATM    8  C   UNL     1      22.522  47.127  48.357  1.00  0.00     0.132 C 
HETATM    9  N   UNL     1      21.702  51.160  48.528  1.00  0.00    -0.357 N 
HETATM   10  H   UNL     1      22.307  51.968  48.489  1.00  0.00     0.166 HD
HETATM   11  C   UNL     1      20.325  51.217  48.566  1.00  0.00     0.043 A 
HETATM   12  C   UNL     1      19.852  49.903  48.642  1.00  0.00    -0.001 A 
HETATM   13  C   UNL     1      19.467  52.323  48.551  1.00  0.00     0.030 A 
HETATM   14  C   UNL     1      18.092  52.080  48.610  1.00  0.00     0.002 A 
HETATM   15  C   UNL     1      17.594  50.781  48.683  1.00  0.00     0.001 A 
HETATM   16  C   UNL     1      18.463  49.684  48.701  1.00  0.00     0.014 A 
HETATM   17  O   UNL     1      25.560  48.367  50.019  1.00  0.00    -0.247 OA
HETATM   18  H   UNL     1      24.372  45.626  49.276  1.00  0.00     0.171 HD
ENDROOT
BRANCH   1  19
HETATM   19  C   UNL     1      25.515  45.641  50.989  1.00  0.00     0.075 A 
HETATM   20  C   UNL     1      26.615  44.819  50.715  1.00  0.00     0.145 A 
HETATM   21  C   UNL     1      27.363  44.237  51.742  1.00  0.00     0.081 A 
HETATM   22  F   UNL     1      27.047  44.622  49.461  1.00  0.00    -0.204 F 
HETATM   23  C   UNL     1      27.030  44.486  53.069  1.00  0.00     0.072 A 
HETATM   24  C   UNL     1      25.981  45.362  53.355  1.00  0.00     0.039 A 
HETATM   25  C   UNL     1      25.226  45.935  52.326  1.00  0.00     0.035 A 
BRANCH  23  26
HETATM   26  O   UNL     1      27.670  43.980  54.164  1.00  0.00    -0.347 OA
BRANCH  26  27
HETATM   27  C   UNL     1      29.040  44.345  54.380  1.00  0.00     0.120 C 
HETATM   28  C   UNL     1      29.882  43.110  54.696  1.00  0.00     0.040 C 
HETATM   29  C   UNL     1      29.052  45.299  55.574  1.00  0.00     0.040 C 
ENDBRANCH  26  27
ENDBRANCH  23  26
ENDBRANCH   1  19
TORSDOF 3
ENDMDL
MODEL 2
REMARK VINA RESULT:      -8.8      4.624     10.832
REMARK  3 active torsions:
REMARK  status: ('A' for Active; 'I' for Inactive)
REMARK    1  A    between atoms: C_2  and  O_3 
REMARK    2  A    between atoms: O_3  and  C_4 
REMARK    3  A    between atoms: C_8  and  N_9 
REMARK       I    between atoms: N_9  and  C_10 
REMARK       I    between atoms: C_10  and  N_11 
ROOT
HETATM    1  N   UNL     1      18.559  50.634  48.351  1.00  0.00    -0.306 N 
HETATM    2  C   UNL     1      19.185  49.590  48.993  1.00  0.00     0.323 C 
HETATM    3  N   UNL     1      20.410  49.214  48.450  1.00  0.00    -0.328 N 
HETATM    4  C   UNL     1      21.111  48.102  49.111  1.00  0.00     0.185 C 
HETATM    5  C   UNL     1      22.576  48.368  49.077  1.00  0.00     0.035 A 
HETATM    6  C   UNL     1      23.228  49.342  48.348  1.00  0.00    -0.020 A 
HETATM    7  C   UNL     1      22.474  50.300  47.499  1.00  0.00     0.061 C 
HETATM    8  C   UNL     1      21.052  49.764  47.233  1.00  0.00     0.132 C 
HETATM    9  N   UNL     1      23.513  47.680  49.796  1.00  0.00    -0.357 N 
HETATM   10  H   UNL     1      23.323  46.924  50.439  1.00  0.00     0.166 HD
HETATM   11  C   UNL     1      24.769  48.187  49.535  1.00  0.00     0.043 A 
HETATM   12  C   UNL     1      24.617  49.233  48.620  1.00  0.00    -0.001 A 
HETATM   13  C   UNL     1      26.017  47.809  50.044  1.00  0.00     0.030 A 
HETATM   14  C   UNL     1      27.139  48.517  49.603  1.00  0.00     0.002 A 
HETATM   15  C   UNL     1      27.017  49.561  48.689  1.00  0.00     0.001 A 
HETATM   16  C   UNL     1      25.763  49.931  48.191  1.00  0.00     0.014 A 
HETATM   17  O   UNL     1      18.702  48.998  49.956  1.00  0.00    -0.247 OA
HETATM   18  H   UNL     1      18.655  50.636  47.350  1.00  0.00     0.171 HD
ENDROOT
BRANCH   1  19
HETATM   19  C   UNL     1      17.470  51.377  48.863  1.00  0.00     0.075 A 
HETATM   20  C   UNL     1      16.128  50.987  48.769  1.00  0.00     0.145 A 
HETATM   21  C   UNL     1      15.100  51.787  49.273  1.00  0.00     0.081 A 
HETATM   22  F   UNL     1      15.780  49.794  48.266  1.00  0.00    -0.204 F 
HETATM   23  C   UNL     1      15.402  52.991  49.900  1.00  0.00     0.072 A 
HETATM   24  C   UNL     1      16.740  53.355  50.065  1.00  0.00     0.039 A 
HETATM   25  C   UNL     1      17.768  52.558  49.551  1.00  0.00     0.035 A 
BRANCH  23  26
HETATM   26  O   UNL     1      14.499  53.868  50.430  1.00  0.00    -0.347 OA
BRANCH  26  27
HETATM   27  C   UNL     1      13.626  54.567  49.533  1.00  0.00     0.120 C 
HETATM   28  C   UNL     1      13.975  56.054  49.494  1.00  0.00     0.040 C 
HETATM   29  C   UNL     1      12.209  54.383  50.075  1.00  0.00     0.040 C 
ENDBRANCH  26  27
ENDBRANCH  23  26
ENDBRANCH   1  19
TORSDOF 3
ENDMDL
MODEL 3
REMARK VINA RESULT:      -8.7      7.266     10.464
REMARK  3 active torsions:
REMARK  status: ('A' for Active; 'I' for Inactive)
REMARK    1  A    between atoms: C_2  and  O_3 
REMARK    2  A    between atoms: O_3  and  C_4 
REMARK    3  A    between atoms: C_8  and  N_9 
REMARK       I    between atoms: N_9  and  C_10 
REMARK       I    between atoms: C_10  and  N_11 
ROOT
HETATM    1  N   UNL     1      26.986  40.967  49.502  1.00  0.00    -0.306 N 
HETATM    2  C   UNL     1      26.603  42.108  50.171  1.00  0.00     0.323 C 
HETATM    3  N   UNL     1      26.948  42.143  51.518  1.00  0.00    -0.328 N 
HETATM    4  C   UNL     1      26.558  43.348  52.267  1.00  0.00     0.185 C 
HETATM    5  C   UNL     1      27.625  43.666  53.257  1.00  0.00     0.035 A 
HETATM    6  C   UNL     1      28.689  42.865  53.620  1.00  0.00    -0.020 A 
HETATM    7  C   UNL     1      28.901  41.536  52.990  1.00  0.00     0.061 C 
HETATM    8  C   UNL     1      27.604  41.068  52.300  1.00  0.00     0.132 C 
HETATM    9  N   UNL     1      27.719  44.837  53.955  1.00  0.00    -0.357 N 
HETATM   10  H   UNL     1      27.089  45.623  53.876  1.00  0.00     0.166 HD
HETATM   11  C   UNL     1      28.826  44.804  54.778  1.00  0.00     0.043 A 
HETATM   12  C   UNL     1      29.452  43.568  54.589  1.00  0.00    -0.001 A 
HETATM   13  C   UNL     1      29.323  45.771  55.660  1.00  0.00     0.030 A 
HETATM   14  C   UNL     1      30.488  45.465  56.369  1.00  0.00     0.002 A 
HETATM   15  C   UNL     1      31.130  44.239  56.203  1.00  0.00     0.001 A 
HETATM   16  C   UNL     1      30.624  43.283  55.316  1.00  0.00     0.014 A 
HETATM   17  O   UNL     1      25.975  43.023  49.645  1.00  0.00    -0.247 OA
HETATM   18  H   UNL     1      26.912  40.117  50.033  1.00  0.00     0.171 HD
ENDROOT
BRANCH   1  19
HETATM   19  C   UNL     1      27.010  40.810  48.096  1.00  0.00     0.075 A 
HETATM   20  C   UNL     1      25.898  40.466  47.316  1.00  0.00     0.145 A 
HETATM   21  C   UNL     1      26.002  40.299  45.933  1.00  0.00     0.081 A 
HETATM   22  F   UNL     1      24.673  40.362  47.851  1.00  0.00    -0.204 F 
HETATM   23  C   UNL     1      27.226  40.494  45.301  1.00  0.00     0.072 A 
HETATM   24  C   UNL     1      28.324  40.909  46.058  1.00  0.00     0.039 A 
HETATM   25  C   UNL     1      28.221  41.065  47.444  1.00  0.00     0.035 A 
BRANCH  23  26
HETATM   26  O   UNL     1      27.467  40.359  43.964  1.00  0.00    -0.347 OA
BRANCH  26  27
HETATM   27  C   UNL     1      28.314  41.324  43.326  1.00  0.00     0.120 C 
HETATM   28  C   UNL     1      27.512  42.179  42.346  1.00  0.00     0.040 C 
HETATM   29  C   UNL     1      29.380  40.533  42.569  1.00  0.00     0.040 C 
ENDBRANCH  26  27
ENDBRANCH  23  26
ENDBRANCH   1  19
TORSDOF 3
ENDMDL
MODEL 4
REMARK VINA RESULT:      -8.2      4.300      5.463
REMARK  3 active torsions:
REMARK  status: ('A' for Active; 'I' for Inactive)
REMARK    1  A    between atoms: C_2  and  O_3 
REMARK    2  A    between atoms: O_3  and  C_4 
REMARK    3  A    between atoms: C_8  and  N_9 
REMARK       I    between atoms: N_9  and  C_10 
REMARK       I    between atoms: C_10  and  N_11 
ROOT
HETATM    1  N   UNL     1      26.440  42.875  52.359  1.00  0.00    -0.306 N 
HETATM    2  C   UNL     1      26.510  42.730  50.992  1.00  0.00     0.323 C 
HETATM    3  N   UNL     1      25.282  42.683  50.341  1.00  0.00    -0.328 N 
HETATM    4  C   UNL     1      25.317  42.532  48.878  1.00  0.00     0.185 C 
HETATM    5  C   UNL     1      24.206  43.329  48.286  1.00  0.00     0.035 A 
HETATM    6  C   UNL     1      23.153  43.917  48.957  1.00  0.00    -0.020 A 
HETATM    7  C   UNL     1      23.042  43.833  50.436  1.00  0.00     0.061 C 
HETATM    8  C   UNL     1      23.939  42.696  50.968  1.00  0.00     0.132 C 
HETATM    9  N   UNL     1      24.073  43.617  46.956  1.00  0.00    -0.357 N 
HETATM   10  H   UNL     1      24.713  43.336  46.226  1.00  0.00     0.166 HD
HETATM   11  C   UNL     1      22.940  44.376  46.752  1.00  0.00     0.043 A 
HETATM   12  C   UNL     1      22.338  44.576  47.998  1.00  0.00    -0.001 A 
HETATM   13  C   UNL     1      22.412  44.908  45.570  1.00  0.00     0.030 A 
HETATM   14  C   UNL     1      21.236  45.659  45.664  1.00  0.00     0.002 A 
HETATM   15  C   UNL     1      20.614  45.869  46.892  1.00  0.00     0.001 A 
HETATM   16  C   UNL     1      21.155  45.335  48.067  1.00  0.00     0.014 A 
HETATM   17  O   UNL     1      27.568  42.617  50.376  1.00  0.00    -0.247 OA
HETATM   18  H   UNL     1      25.688  42.375  52.801  1.00  0.00     0.171 HD
ENDROOT
BRANCH   1  19
HETATM   19  C   UNL     1      27.518  43.228  53.204  1.00  0.00     0.075 A 
HETATM   20  C   UNL     1      28.498  42.336  53.657  1.00  0.00     0.145 A 
HETATM   21  C   UNL     1      29.519  42.751  54.515  1.00  0.00     0.081 A 
HETATM   22  F   UNL     1      28.544  41.068  53.224  1.00  0.00    -0.204 F 
HETATM   23  C   UNL     1      29.589  44.080  54.920  1.00  0.00     0.072 A 
HETATM   24  C   UNL     1      28.661  44.994  54.415  1.00  0.00     0.039 A 
HETATM   25  C   UNL     1      27.632  44.575  53.565  1.00  0.00     0.035 A 
BRANCH  23  26
HETATM   26  O   UNL     1      30.527  44.615  55.755  1.00  0.00    -0.347 OA
BRANCH  26  27
HETATM   27  C   UNL     1      30.623  44.097  57.089  1.00  0.00     0.120 C 
HETATM   28  C   UNL     1      30.633  45.236  58.108  1.00  0.00     0.040 C 
HETATM   29  C   UNL     1      31.941  43.327  57.161  1.00  0.00     0.040 C 
ENDBRANCH  26  27
ENDBRANCH  23  26
ENDBRANCH   1  19
TORSDOF 3
ENDMDL
MODEL 5
REMARK VINA RESULT:      -8.0     19.731     22.240
REMARK  3 active torsions:
REMARK  status: ('A' for Active; 'I' for Inactive)
REMARK    1  A    between atoms: C_2  and  O_3 
REMARK    2  A    between atoms: O_3  and  C_4 
REMARK    3  A    between atoms: C_8  and  N_9 
REMARK       I    between atoms: N_9  and  C_10 
REMARK       I    between atoms: C_10  and  N_11 
ROOT
HETATM    1  N   UNL     1      37.508  47.449  64.950  1.00  0.00    -0.306 N 
HETATM    2  C   UNL     1      37.345  46.314  65.711  1.00  0.00     0.323 C 
HETATM    3  N   UNL     1      37.134  45.145  64.987  1.00  0.00    -0.328 N 
HETATM    4  C   UNL     1      36.957  43.909  65.766  1.00  0.00     0.185 C 
HETATM    5  C   UNL     1      37.600  42.783  65.033  1.00  0.00     0.035 A 
HETATM    6  C   UNL     1      38.069  42.794  63.735  1.00  0.00    -0.020 A 
HETATM    7  C   UNL     1      38.004  44.024  62.905  1.00  0.00     0.061 C 
HETATM    8  C   UNL     1      36.997  45.019  63.516  1.00  0.00     0.132 C 
HETATM    9  N   UNL     1      37.841  41.544  65.560  1.00  0.00    -0.357 N 
HETATM   10  H   UNL     1      37.624  41.253  66.502  1.00  0.00     0.166 HD
HETATM   11  C   UNL     1      38.452  40.745  64.615  1.00  0.00     0.043 A 
HETATM   12  C   UNL     1      38.603  41.508  63.454  1.00  0.00    -0.001 A 
HETATM   13  C   UNL     1      38.890  39.419  64.705  1.00  0.00     0.030 A 
HETATM   14  C   UNL     1      39.493  38.856  63.576  1.00  0.00     0.002 A 
HETATM   15  C   UNL     1      39.652  39.593  62.405  1.00  0.00     0.001 A 
HETATM   16  C   UNL     1      39.214  40.920  62.330  1.00  0.00     0.014 A 
HETATM   17  O   UNL     1      37.348  46.315  66.940  1.00  0.00    -0.247 OA
HETATM   18  H   UNL     1      36.930  47.498  64.129  1.00  0.00     0.171 HD
ENDROOT
BRANCH   1  19
HETATM   19  C   UNL     1      38.009  48.686  65.419  1.00  0.00     0.075 A 
HETATM   20  C   UNL     1      39.230  49.249  65.026  1.00  0.00     0.145 A 
HETATM   21  C   UNL     1      39.675  50.464  65.554  1.00  0.00     0.081 A 
HETATM   22  F   UNL     1      39.982  48.690  64.068  1.00  0.00    -0.204 F 
HETATM   23  C   UNL     1      38.891  51.148  66.477  1.00  0.00     0.072 A 
HETATM   24  C   UNL     1      37.639  50.633  66.821  1.00  0.00     0.039 A 
HETATM   25  C   UNL     1      37.200  49.412  66.300  1.00  0.00     0.035 A 
BRANCH  23  26
HETATM   26  O   UNL     1      39.207  52.335  67.073  1.00  0.00    -0.347 OA
BRANCH  26  27
HETATM   27  C   UNL     1      38.138  53.160  67.555  1.00  0.00     0.120 C 
HETATM   28  C   UNL     1      37.772  54.224  66.520  1.00  0.00     0.040 C 
HETATM   29  C   UNL     1      38.647  53.831  68.829  1.00  0.00     0.040 C 
ENDBRANCH  26  27
ENDBRANCH  23  26
ENDBRANCH   1  19
TORSDOF 3
ENDMDL
MODEL 6
REMARK VINA RESULT:      -7.8     13.928     15.050
REMARK  3 active torsions:
REMARK  status: ('A' for Active; 'I' for Inactive)
REMARK    1  A    between atoms: C_2  and  O_3 
REMARK    2  A    between atoms: O_3  and  C_4 
REMARK    3  A    between atoms: C_8  and  N_9 
REMARK       I    between atoms: N_9  and  C_10 
REMARK       I    between atoms: C_10  and  N_11 
ROOT
HETATM    1  N   UNL     1      35.877  51.780  43.871  1.00  0.00    -0.306 N 
HETATM    2  C   UNL     1      35.721  51.290  42.594  1.00  0.00     0.323 C 
HETATM    3  N   UNL     1      34.411  50.986  42.236  1.00  0.00    -0.328 N 
HETATM    4  C   UNL     1      34.204  50.462  40.877  1.00  0.00     0.185 C 
HETATM    5  C   UNL     1      32.918  50.994  40.347  1.00  0.00     0.035 A 
HETATM    6  C   UNL     1      31.937  51.659  41.055  1.00  0.00    -0.020 A 
HETATM    7  C   UNL     1      32.101  51.955  42.502  1.00  0.00     0.061 C 
HETATM    8  C   UNL     1      33.209  51.064  43.100  1.00  0.00     0.132 C 
HETATM    9  N   UNL     1      32.517  50.915  39.042  1.00  0.00    -0.357 N 
HETATM   10  H   UNL     1      33.046  50.501  38.288  1.00  0.00     0.166 HD
HETATM   11  C   UNL     1      31.282  51.511  38.895  1.00  0.00     0.043 A 
HETATM   12  C   UNL     1      30.891  51.984  40.152  1.00  0.00    -0.001 A 
HETATM   13  C   UNL     1      30.492  51.677  37.752  1.00  0.00     0.030 A 
HETATM   14  C   UNL     1      29.269  52.339  37.897  1.00  0.00     0.002 A 
HETATM   15  C   UNL     1      28.854  52.816  39.139  1.00  0.00     0.001 A 
HETATM   16  C   UNL     1      29.655  52.647  40.273  1.00  0.00     0.014 A 
HETATM   17  O   UNL     1      36.658  51.098  41.823  1.00  0.00    -0.247 OA
HETATM   18  H   UNL     1      35.281  51.359  44.563  1.00  0.00     0.171 HD
ENDROOT
BRANCH   1  19
HETATM   19  C   UNL     1      37.037  52.419  44.369  1.00  0.00     0.075 A 
HETATM   20  C   UNL     1      38.260  51.778  44.597  1.00  0.00     0.145 A 
HETATM   21  C   UNL     1      39.357  52.467  45.120  1.00  0.00     0.081 A 
HETATM   22  F   UNL     1      38.456  50.497  44.250  1.00  0.00    -0.204 F 
HETATM   23  C   UNL     1      39.252  53.825  45.405  1.00  0.00     0.072 A 
HETATM   24  C   UNL     1      38.060  54.490  45.112  1.00  0.00     0.039 A 
HETATM   25  C   UNL     1      36.959  53.796  44.600  1.00  0.00     0.035 A 
BRANCH  23  26
HETATM   26  O   UNL     1      40.240  54.614  45.921  1.00  0.00    -0.347 OA
BRANCH  26  27
HETATM   27  C   UNL     1      40.903  54.178  47.114  1.00  0.00     0.120 C 
HETATM   28  C   UNL     1      39.898  53.991  48.250  1.00  0.00     0.040 C 
HETATM   29  C   UNL     1      41.900  55.277  47.482  1.00  0.00     0.040 C 
ENDBRANCH  26  27
ENDBRANCH  23  26
ENDBRANCH   1  19
TORSDOF 3
ENDMDL
MODEL 7
REMARK VINA RESULT:      -7.6      5.222      6.353
REMARK  3 active torsions:
REMARK  status: ('A' for Active; 'I' for Inactive)
REMARK    1  A    between atoms: C_2  and  O_3 
REMARK    2  A    between atoms: O_3  and  C_4 
REMARK    3  A    between atoms: C_8  and  N_9 
REMARK       I    between atoms: N_9  and  C_10 
REMARK       I    between atoms: C_10  and  N_11 
ROOT
HETATM    1  N   UNL     1      26.417  42.911  52.472  1.00  0.00    -0.306 N 
HETATM    2  C   UNL     1      26.579  42.287  51.256  1.00  0.00     0.323 C 
HETATM    3  N   UNL     1      25.427  42.199  50.481  1.00  0.00    -0.328 N 
HETATM    4  C   UNL     1      25.562  41.540  49.172  1.00  0.00     0.185 C 
HETATM    5  C   UNL     1      24.682  42.235  48.191  1.00  0.00     0.035 A 
HETATM    6  C   UNL     1      23.707  43.172  48.466  1.00  0.00    -0.020 A 
HETATM    7  C   UNL     1      23.451  43.630  49.855  1.00  0.00     0.061 C 
HETATM    8  C   UNL     1      24.062  42.632  50.860  1.00  0.00     0.132 C 
HETATM    9  N   UNL     1      24.726  42.053  46.837  1.00  0.00    -0.357 N 
HETATM   10  H   UNL     1      25.361  41.442  46.345  1.00  0.00     0.166 HD
HETATM   11  C   UNL     1      23.782  42.854  46.227  1.00  0.00     0.043 A 
HETATM   12  C   UNL     1      23.121  43.565  47.233  1.00  0.00    -0.001 A 
HETATM   13  C   UNL     1      23.472  43.009  44.871  1.00  0.00     0.030 A 
HETATM   14  C   UNL     1      22.460  43.912  44.535  1.00  0.00     0.002 A 
HETATM   15  C   UNL     1      21.783  44.631  45.518  1.00  0.00     0.001 A 
HETATM   16  C   UNL     1      22.105  44.469  46.870  1.00  0.00     0.014 A 
HETATM   17  O   UNL     1      27.646  41.808  50.877  1.00  0.00    -0.247 OA
HETATM   18  H   UNL     1      25.546  42.717  52.936  1.00  0.00     0.171 HD
ENDROOT
BRANCH   1  19
HETATM   19  C   UNL     1      27.464  43.373  53.303  1.00  0.00     0.075 A 
HETATM   20  C   UNL     1      27.618  44.701  53.723  1.00  0.00     0.145 A 
HETATM   21  C   UNL     1      28.695  45.091  54.521  1.00  0.00     0.081 A 
HETATM   22  F   UNL     1      26.697  45.634  53.445  1.00  0.00    -0.204 F 
HETATM   23  C   UNL     1      29.632  44.149  54.932  1.00  0.00     0.072 A 
HETATM   24  C   UNL     1      29.449  42.810  54.581  1.00  0.00     0.039 A 
HETATM   25  C   UNL     1      28.375  42.422  53.773  1.00  0.00     0.035 A 
BRANCH  23  26
HETATM   26  O   UNL     1      30.731  44.395  55.706  1.00  0.00    -0.347 OA
BRANCH  26  27
HETATM   27  C   UNL     1      30.727  43.924  57.060  1.00  0.00     0.120 C 
HETATM   28  C   UNL     1      30.799  45.096  58.037  1.00  0.00     0.040 C 
HETATM   29  C   UNL     1      31.966  43.043  57.216  1.00  0.00     0.040 C 
ENDBRANCH  26  27
ENDBRANCH  23  26
ENDBRANCH   1  19
TORSDOF 3
ENDMDL
MODEL 8
REMARK VINA RESULT:      -7.6     19.808     21.538
REMARK  3 active torsions:
REMARK  status: ('A' for Active; 'I' for Inactive)
REMARK    1  A    between atoms: C_2  and  O_3 
REMARK    2  A    between atoms: O_3  and  C_4 
REMARK    3  A    between atoms: C_8  and  N_9 
REMARK       I    between atoms: N_9  and  C_10 
REMARK       I    between atoms: C_10  and  N_11 
ROOT
HETATM    1  N   UNL     1      38.093  41.890  64.257  1.00  0.00    -0.306 N 
HETATM    2  C   UNL     1      38.297  43.102  63.638  1.00  0.00     0.323 C 
HETATM    3  N   UNL     1      37.493  44.140  64.098  1.00  0.00    -0.328 N 
HETATM    4  C   UNL     1      37.683  45.454  63.462  1.00  0.00     0.185 C 
HETATM    5  C   UNL     1      37.515  46.516  64.493  1.00  0.00     0.035 A 
HETATM    6  C   UNL     1      37.021  46.364  65.772  1.00  0.00    -0.020 A 
HETATM    7  C   UNL     1      36.616  45.030  66.286  1.00  0.00     0.061 C 
HETATM    8  C   UNL     1      36.414  44.052  65.111  1.00  0.00     0.132 C 
HETATM    9  N   UNL     1      37.852  47.830  64.323  1.00  0.00    -0.357 N 
HETATM   10  H   UNL     1      38.261  48.230  63.490  1.00  0.00     0.166 HD
HETATM   11  C   UNL     1      37.572  48.537  65.473  1.00  0.00     0.043 A 
HETATM   12  C   UNL     1      37.042  47.637  66.402  1.00  0.00    -0.001 A 
HETATM   13  C   UNL     1      37.757  49.894  65.764  1.00  0.00     0.030 A 
HETATM   14  C   UNL     1      37.387  50.342  67.036  1.00  0.00     0.002 A 
HETATM   15  C   UNL     1      36.852  49.466  67.979  1.00  0.00     0.001 A 
HETATM   16  C   UNL     1      36.676  48.111  67.676  1.00  0.00     0.014 A 
HETATM   17  O   UNL     1      39.100  43.270  62.723  1.00  0.00    -0.247 OA
HETATM   18  H   UNL     1      37.135  41.684  64.483  1.00  0.00     0.171 HD
ENDROOT
BRANCH   1  19
HETATM   19  C   UNL     1      38.957  40.772  64.176  1.00  0.00     0.075 A 
HETATM   20  C   UNL     1      39.253  40.081  62.994  1.00  0.00     0.145 A 
HETATM   21  C   UNL     1      40.094  38.966  62.995  1.00  0.00     0.081 A 
HETATM   22  F   UNL     1      38.810  40.509  61.803  1.00  0.00    -0.204 F 
HETATM   23  C   UNL     1      40.671  38.532  64.184  1.00  0.00     0.072 A 
HETATM   24  C   UNL     1      40.441  39.257  65.355  1.00  0.00     0.039 A 
HETATM   25  C   UNL     1      39.591  40.367  65.355  1.00  0.00     0.035 A 
BRANCH  23  26
HETATM   26  O   UNL     1      41.503  37.458  64.326  1.00  0.00    -0.347 OA
BRANCH  26  27
HETATM   27  C   UNL     1      42.505  37.507  65.350  1.00  0.00     0.120 C 
HETATM   28  C   UNL     1      43.833  38.003  64.779  1.00  0.00     0.040 C 
HETATM   29  C   UNL     1      42.666  36.078  65.868  1.00  0.00     0.040 C 
ENDBRANCH  26  27
ENDBRANCH  23  26
ENDBRANCH   1  19
TORSDOF 3
ENDMDL
MODEL 9
REMARK VINA RESULT:      -7.5     20.391     22.938
REMARK  3 active torsions:
REMARK  status: ('A' for Active; 'I' for Inactive)
REMARK    1  A    between atoms: C_2  and  O_3 
REMARK    2  A    between atoms: O_3  and  C_4 
REMARK    3  A    between atoms: C_8  and  N_9 
REMARK       I    between atoms: N_9  and  C_10 
REMARK       I    between atoms: C_10  and  N_11 
ROOT
HETATM    1  N   UNL     1      39.053  46.836  64.425  1.00  0.00    -0.306 N 
HETATM    2  C   UNL     1      38.191  45.766  64.517  1.00  0.00     0.323 C 
HETATM    3  N   UNL     1      38.678  44.572  63.996  1.00  0.00    -0.328 N 
HETATM    4  C   UNL     1      37.785  43.404  64.078  1.00  0.00     0.185 C 
HETATM    5  C   UNL     1      38.606  42.190  64.344  1.00  0.00     0.035 A 
HETATM    6  C   UNL     1      39.980  42.083  64.282  1.00  0.00    -0.020 A 
HETATM    7  C   UNL     1      40.828  43.259  63.957  1.00  0.00     0.061 C 
HETATM    8  C   UNL     1      39.971  44.362  63.302  1.00  0.00     0.132 C 
HETATM    9  N   UNL     1      38.103  40.973  64.715  1.00  0.00    -0.357 N 
HETATM   10  H   UNL     1      37.127  40.760  64.862  1.00  0.00     0.166 HD
HETATM   11  C   UNL     1      39.135  40.073  64.884  1.00  0.00     0.043 A 
HETATM   12  C   UNL     1      40.329  40.747  64.613  1.00  0.00    -0.001 A 
HETATM   13  C   UNL     1      39.102  38.727  65.267  1.00  0.00     0.030 A 
HETATM   14  C   UNL     1      40.322  38.051  65.369  1.00  0.00     0.002 A 
HETATM   15  C   UNL     1      41.526  38.698  65.100  1.00  0.00     0.001 A 
HETATM   16  C   UNL     1      41.545  40.045  64.723  1.00  0.00     0.014 A 
HETATM   17  O   UNL     1      37.059  45.846  64.989  1.00  0.00    -0.247 OA
HETATM   18  H   UNL     1      39.596  46.873  63.580  1.00  0.00     0.171 HD
ENDROOT
BRANCH   1  19
HETATM   19  C   UNL     1      38.917  48.061  65.119  1.00  0.00     0.075 A 
HETATM   20  C   UNL     1      37.938  49.024  64.846  1.00  0.00     0.145 A 
HETATM   21  C   UNL     1      37.882  50.227  65.554  1.00  0.00     0.081 A 
HETATM   22  F   UNL     1      36.965  48.799  63.950  1.00  0.00    -0.204 F 
HETATM   23  C   UNL     1      38.800  50.478  66.569  1.00  0.00     0.072 A 
HETATM   24  C   UNL     1      39.734  49.494  66.900  1.00  0.00     0.039 A 
HETATM   25  C   UNL     1      39.796  48.295  66.182  1.00  0.00     0.035 A 
BRANCH  23  26
HETATM   26  O   UNL     1      38.860  51.609  67.332  1.00  0.00    -0.347 OA
BRANCH  26  27
HETATM   27  C   UNL     1      37.775  52.542  67.251  1.00  0.00     0.120 C 
HETATM   28  C   UNL     1      38.273  53.903  66.764  1.00  0.00     0.040 C 
HETATM   29  C   UNL     1      37.209  52.674  68.664  1.00  0.00     0.040 C 
ENDBRANCH  26  27
ENDBRANCH  23  26
ENDBRANCH   1  19
TORSDOF 3
ENDMDL
MODEL 10
REMARK VINA RESULT:      -7.5      3.355      9.929
REMARK  3 active torsions:
REMARK  status: ('A' for Active; 'I' for Inactive)
REMARK    1  A    between atoms: C_2  and  O_3 
REMARK    2  A    between atoms: O_3  and  C_4 
REMARK    3  A    between atoms: C_8  and  N_9 
REMARK       I    between atoms: N_9  and  C_10 
REMARK       I    between atoms: C_10  and  N_11 
ROOT
HETATM    1  N   UNL     1      23.425  45.929  48.722  1.00  0.00    -0.306 N 
HETATM    2  C   UNL     1      24.253  44.830  48.704  1.00  0.00     0.323 C 
HETATM    3  N   UNL     1      25.456  44.988  49.383  1.00  0.00    -0.328 N 
HETATM    4  C   UNL     1      26.368  43.833  49.389  1.00  0.00     0.185 C 
HETATM    5  C   UNL     1      27.054  43.767  50.710  1.00  0.00     0.035 A 
HETATM    6  C   UNL     1      27.058  44.734  51.694  1.00  0.00    -0.020 A 
HETATM    7  C   UNL     1      26.301  46.002  51.530  1.00  0.00     0.061 C 
HETATM    8  C   UNL     1      25.953  46.219  50.043  1.00  0.00     0.132 C 
HETATM    9  N   UNL     1      27.784  42.702  51.159  1.00  0.00    -0.357 N 
HETATM   10  H   UNL     1      27.934  41.838  50.658  1.00  0.00     0.166 HD
HETATM   11  C   UNL     1      28.273  42.970  52.421  1.00  0.00     0.043 A 
HETATM   12  C   UNL     1      27.834  44.248  52.779  1.00  0.00    -0.001 A 
HETATM   13  C   UNL     1      29.056  42.179  53.270  1.00  0.00     0.030 A 
HETATM   14  C   UNL     1      29.402  42.710  54.516  1.00  0.00     0.002 A 
HETATM   15  C   UNL     1      28.981  43.982  54.897  1.00  0.00     0.001 A 
HETATM   16  C   UNL     1      28.196  44.761  54.040  1.00  0.00     0.014 A 
HETATM   17  O   UNL     1      23.984  43.787  48.110  1.00  0.00    -0.247 OA
HETATM   18  H   UNL     1      23.894  46.816  48.655  1.00  0.00     0.171 HD
ENDROOT
BRANCH   1  19
HETATM   19  C   UNL     1      22.057  45.932  48.360  1.00  0.00     0.075 A 
HETATM   20  C   UNL     1      21.093  45.068  48.893  1.00  0.00     0.145 A 
HETATM   21  C   UNL     1      19.763  45.108  48.466  1.00  0.00     0.081 A 
HETATM   22  F   UNL     1      21.386  44.222  49.892  1.00  0.00    -0.204 F 
HETATM   23  C   UNL     1      19.371  46.034  47.505  1.00  0.00     0.072 A 
HETATM   24  C   UNL     1      20.308  46.950  47.021  1.00  0.00     0.039 A 
HETATM   25  C   UNL     1      21.641  46.901  47.441  1.00  0.00     0.035 A 
BRANCH  23  26
HETATM   26  O   UNL     1      18.111  46.177  46.997  1.00  0.00    -0.347 OA
BRANCH  26  27
HETATM   27  C   UNL     1      17.371  47.356  47.341  1.00  0.00     0.120 C 
HETATM   28  C   UNL     1      16.660  47.172  48.681  1.00  0.00     0.040 C 
HETATM   29  C   UNL     1      16.339  47.558  46.232  1.00  0.00     0.040 C 
ENDBRANCH  26  27
ENDBRANCH  23  26
ENDBRANCH   1  19
TORSDOF 3
ENDMDL
