MODEL 1
REMARK VINA RESULT:      -9.5      0.000      0.000
REMARK  4 active torsions:
REMARK  status: ('A' for Active; 'I' for Inactive)
REMARK    1  A    between atoms: C_4  and  C_5 
REMARK       I    between atoms: C_5  and  N_6 
REMARK    2  A    between atoms: N_6  and  C_7 
REMARK    3  A    between atoms: C_20  and  C_21 
REMARK    4  A    between atoms: C_24  and  O_25 
ROOT
HETATM    1  C   UNL     1      26.301  45.015  50.357  1.00  0.00     0.263 C 
HETATM    2  N   UNL     1      25.933  46.274  50.809  1.00  0.00    -0.323 N 
HETATM    3  O   UNL     1      25.968  44.560  49.264  1.00  0.00    -0.267 OA
HETATM    4  H   UNL     1      26.155  46.460  51.781  1.00  0.00     0.169 HD
ENDROOT
BRANCH   1   5
HETATM    5  C   UNL     1      27.109  44.242  51.295  1.00  0.00     0.074 A 
HETATM    6  S   UNL     1      27.233  42.540  51.203  1.00  0.00    -0.089 SA
HETATM    7  C   UNL     1      28.161  42.442  52.641  1.00  0.00    -0.009 A 
HETATM    8  C   UNL     1      28.520  41.089  53.171  1.00  0.00     0.057 C 
HETATM    9  C   UNL     1      28.461  43.700  53.142  1.00  0.00    -0.012 A 
HETATM   10  C   UNL     1      27.823  44.728  52.372  1.00  0.00     0.038 A 
BRANCH   9  11
HETATM   11  C   UNL     1      29.257  43.908  54.349  1.00  0.00    -0.025 A 
HETATM   12  C   UNL     1      28.965  44.976  55.203  1.00  0.00     0.015 A 
HETATM   13  C   UNL     1      29.716  45.177  56.365  1.00  0.00     0.037 A 
HETATM   14  C   UNL     1      30.762  44.313  56.694  1.00  0.00     0.068 A 
HETATM   15  C   UNL     1      31.076  43.262  55.833  1.00  0.00     0.037 A 
HETATM   16  C   UNL     1      30.332  43.067  54.662  1.00  0.00     0.015 A 
BRANCH  14  17
HETATM   17  O   UNL     1      31.403  44.608  57.866  1.00  0.00    -0.356 OA
HETATM   18  C   UNL     1      30.902  45.715  58.606  1.00  0.00     0.210 C 
ENDBRANCH  14  17
ENDBRANCH   9  11
ENDBRANCH   1   5
BRANCH   2  19
HETATM   19  C   UNL     1      25.291  47.299  50.090  1.00  0.00     0.035 A 
HETATM   20  C   UNL     1      23.908  47.350  49.894  1.00  0.00     0.039 A 
HETATM   21  C   UNL     1      23.380  48.372  49.120  1.00  0.00    -0.022 A 
HETATM   22  C   UNL     1      24.197  49.356  48.556  1.00  0.00    -0.025 A 
HETATM   23  C   UNL     1      21.951  48.618  48.772  1.00  0.00     0.274 C 
HETATM   24  C   UNL     1      23.371  50.340  47.798  1.00  0.00     0.273 C 
HETATM   25  C   UNL     1      25.567  49.334  48.751  1.00  0.00     0.012 A 
HETATM   26  N   UNL     1      22.015  49.661  47.663  1.00  0.00    -0.067 N 
HETATM   27  H   UNL     1      22.057  49.127  46.787  1.00  0.00     0.280 HD
HETATM   28  C   UNL     1      20.853  50.582  47.604  1.00  0.00     0.270 C 
HETATM   29  C   UNL     1      26.109  48.291  49.512  1.00  0.00     0.030 A 
ENDBRANCH   2  19
TORSDOF 4
ENDMDL
MODEL 2
REMARK VINA RESULT:      -9.1      3.469      6.312
REMARK  4 active torsions:
REMARK  status: ('A' for Active; 'I' for Inactive)
REMARK    1  A    between atoms: C_4  and  C_5 
REMARK       I    between atoms: C_5  and  N_6 
REMARK    2  A    between atoms: N_6  and  C_7 
REMARK    3  A    between atoms: C_20  and  C_21 
REMARK    4  A    between atoms: C_24  and  O_25 
ROOT
HETATM    1  C   UNL     1      22.591  49.451  48.409  1.00  0.00     0.263 C 
HETATM    2  N   UNL     1      21.534  49.234  49.280  1.00  0.00    -0.323 N 
HETATM    3  O   UNL     1      22.465  49.967  47.301  1.00  0.00    -0.267 OA
HETATM    4  H   UNL     1      21.759  48.672  50.094  1.00  0.00     0.169 HD
ENDROOT
BRANCH   1   5
HETATM    5  C   UNL     1      23.889  48.996  48.900  1.00  0.00     0.074 A 
HETATM    6  S   UNL     1      25.352  49.752  48.441  1.00  0.00    -0.089 SA
HETATM    7  C   UNL     1      26.310  48.595  49.269  1.00  0.00    -0.009 A 
HETATM    8  C   UNL     1      27.799  48.678  49.143  1.00  0.00     0.057 C 
HETATM    9  C   UNL     1      25.527  47.692  49.972  1.00  0.00    -0.012 A 
HETATM   10  C   UNL     1      24.132  47.917  49.727  1.00  0.00     0.038 A 
BRANCH   9  11
HETATM   11  C   UNL     1      26.087  46.613  50.781  1.00  0.00    -0.025 A 
HETATM   12  C   UNL     1      26.058  46.699  52.177  1.00  0.00     0.015 A 
HETATM   13  C   UNL     1      26.583  45.666  52.959  1.00  0.00     0.037 A 
HETATM   14  C   UNL     1      27.136  44.532  52.362  1.00  0.00     0.068 A 
HETATM   15  C   UNL     1      27.192  44.452  50.971  1.00  0.00     0.037 A 
HETATM   16  C   UNL     1      26.678  45.491  50.185  1.00  0.00     0.015 A 
BRANCH  14  17
HETATM   17  O   UNL     1      27.595  43.588  53.238  1.00  0.00    -0.356 OA
HETATM   18  C   UNL     1      28.349  44.060  54.348  1.00  0.00     0.210 C 
ENDBRANCH  14  17
ENDBRANCH   9  11
ENDBRANCH   1   5
BRANCH   2  19
HETATM   19  C   UNL     1      20.207  49.689  49.162  1.00  0.00     0.035 A 
HETATM   20  C   UNL     1      19.792  50.960  49.568  1.00  0.00     0.039 A 
HETATM   21  C   UNL     1      18.449  51.290  49.463  1.00  0.00    -0.022 A 
HETATM   22  C   UNL     1      17.516  50.389  48.940  1.00  0.00    -0.025 A 
HETATM   23  C   UNL     1      17.785  52.570  49.840  1.00  0.00     0.274 C 
HETATM   24  C   UNL     1      16.159  51.007  48.920  1.00  0.00     0.273 C 
HETATM   25  C   UNL     1      17.909  49.133  48.516  1.00  0.00     0.012 A 
HETATM   26  N   UNL     1      16.297  52.238  49.805  1.00  0.00    -0.067 N 
HETATM   27  H   UNL     1      16.063  51.926  50.754  1.00  0.00     0.280 HD
HETATM   28  C   UNL     1      15.413  53.375  49.446  1.00  0.00     0.270 C 
HETATM   29  C   UNL     1      19.260  48.784  48.642  1.00  0.00     0.030 A 
ENDBRANCH   2  19
TORSDOF 4
ENDMDL
MODEL 3
REMARK VINA RESULT:      -9.0      2.475      4.044
REMARK  4 active torsions:
REMARK  status: ('A' for Active; 'I' for Inactive)
REMARK    1  A    between atoms: C_4  and  C_5 
REMARK       I    between atoms: C_5  and  N_6 
REMARK    2  A    between atoms: N_6  and  C_7 
REMARK    3  A    between atoms: C_20  and  C_21 
REMARK    4  A    between atoms: C_24  and  O_25 
ROOT
HETATM    1  C   UNL     1      23.998  48.011  49.748  1.00  0.00     0.263 C 
HETATM    2  N   UNL     1      22.625  48.015  49.553  1.00  0.00    -0.323 N 
HETATM    3  O   UNL     1      24.712  48.998  49.581  1.00  0.00    -0.267 OA
HETATM    4  H   UNL     1      22.186  47.100  49.586  1.00  0.00     0.169 HD
ENDROOT
BRANCH   1   5
HETATM    5  C   UNL     1      24.553  46.722  50.152  1.00  0.00     0.074 A 
HETATM    6  S   UNL     1      23.906  45.239  49.603  1.00  0.00    -0.089 SA
HETATM    7  C   UNL     1      24.954  44.313  50.595  1.00  0.00    -0.009 A 
HETATM    8  C   UNL     1      24.783  42.827  50.626  1.00  0.00     0.057 C 
HETATM    9  C   UNL     1      25.860  45.118  51.271  1.00  0.00    -0.012 A 
HETATM   10  C   UNL     1      25.598  46.507  51.029  1.00  0.00     0.038 A 
BRANCH   9  11
HETATM   11  C   UNL     1      26.881  44.587  52.170  1.00  0.00    -0.025 A 
HETATM   12  C   UNL     1      26.780  44.803  53.548  1.00  0.00     0.015 A 
HETATM   13  C   UNL     1      27.749  44.289  54.415  1.00  0.00     0.037 A 
HETATM   14  C   UNL     1      28.825  43.548  53.923  1.00  0.00     0.068 A 
HETATM   15  C   UNL     1      28.945  43.352  52.548  1.00  0.00     0.037 A 
HETATM   16  C   UNL     1      27.983  43.876  51.676  1.00  0.00     0.015 A 
BRANCH  14  17
HETATM   17  O   UNL     1      29.688  43.087  54.878  1.00  0.00    -0.356 OA
HETATM   18  C   UNL     1      30.448  44.065  55.578  1.00  0.00     0.210 C 
ENDBRANCH  14  17
ENDBRANCH   9  11
ENDBRANCH   1   5
BRANCH   2  19
HETATM   19  C   UNL     1      21.788  49.120  49.310  1.00  0.00     0.035 A 
HETATM   20  C   UNL     1      20.510  49.250  49.862  1.00  0.00     0.039 A 
HETATM   21  C   UNL     1      19.741  50.350  49.513  1.00  0.00    -0.022 A 
HETATM   22  C   UNL     1      20.227  51.334  48.645  1.00  0.00    -0.025 A 
HETATM   23  C   UNL     1      18.361  50.688  49.965  1.00  0.00     0.274 C 
HETATM   24  C   UNL     1      19.208  52.408  48.463  1.00  0.00     0.273 C 
HETATM   25  C   UNL     1      21.495  51.232  48.103  1.00  0.00     0.012 A 
HETATM   26  N   UNL     1      17.927  51.806  49.024  1.00  0.00    -0.067 N 
HETATM   27  H   UNL     1      17.471  51.337  48.233  1.00  0.00     0.280 HD
HETATM   28  C   UNL     1      16.977  52.782  49.612  1.00  0.00     0.270 C 
HETATM   29  C   UNL     1      22.267  50.111  48.431  1.00  0.00     0.030 A 
ENDBRANCH   2  19
TORSDOF 4
ENDMDL
MODEL 4
REMARK VINA RESULT:      -8.9      3.372      6.302
REMARK  4 active torsions:
REMARK  status: ('A' for Active; 'I' for Inactive)
REMARK    1  A    between atoms: C_4  and  C_5 
REMARK       I    between atoms: C_5  and  N_6 
REMARK    2  A    between atoms: N_6  and  C_7 
REMARK    3  A    between atoms: C_20  and  C_21 
REMARK    4  A    between atoms: C_24  and  O_25 
ROOT
HETATM    1  C   UNL     1      23.117  49.924  47.963  1.00  0.00     0.263 C 
HETATM    2  N   UNL     1      21.911  49.701  48.611  1.00  0.00    -0.323 N 
HETATM    3  O   UNL     1      23.219  50.556  46.914  1.00  0.00    -0.267 OA
HETATM    4  H   UNL     1      21.957  49.045  49.384  1.00  0.00     0.169 HD
ENDROOT
BRANCH   1   5
HETATM    5  C   UNL     1      24.280  49.327  48.615  1.00  0.00     0.074 A 
HETATM    6  S   UNL     1      25.876  49.833  48.272  1.00  0.00    -0.089 SA
HETATM    7  C   UNL     1      26.567  48.616  49.262  1.00  0.00    -0.009 A 
HETATM    8  C   UNL     1      28.058  48.478  49.291  1.00  0.00     0.057 C 
HETATM    9  C   UNL     1      25.595  47.886  49.928  1.00  0.00    -0.012 A 
HETATM   10  C   UNL     1      24.279  48.287  49.524  1.00  0.00     0.038 A 
BRANCH   9  11
HETATM   11  C   UNL     1      25.908  46.800  50.853  1.00  0.00    -0.025 A 
HETATM   12  C   UNL     1      26.003  47.056  52.225  1.00  0.00     0.015 A 
HETATM   13  C   UNL     1      26.292  46.020  53.118  1.00  0.00     0.037 A 
HETATM   14  C   UNL     1      26.483  44.716  52.658  1.00  0.00     0.068 A 
HETATM   15  C   UNL     1      26.416  44.459  51.289  1.00  0.00     0.037 A 
HETATM   16  C   UNL     1      26.138  45.497  50.391  1.00  0.00     0.015 A 
BRANCH  14  17
HETATM   17  O   UNL     1      26.739  43.795  53.635  1.00  0.00    -0.356 OA
HETATM   18  C   UNL     1      27.678  42.774  53.321  1.00  0.00     0.210 C 
ENDBRANCH  14  17
ENDBRANCH   9  11
ENDBRANCH   1   5
BRANCH   2  19
HETATM   19  C   UNL     1      20.654  50.263  48.320  1.00  0.00     0.035 A 
HETATM   20  C   UNL     1      19.714  49.649  47.486  1.00  0.00     0.039 A 
HETATM   21  C   UNL     1      18.528  50.313  47.215  1.00  0.00    -0.022 A 
HETATM   22  C   UNL     1      18.248  51.564  47.774  1.00  0.00    -0.025 A 
HETATM   23  C   UNL     1      17.396  49.860  46.355  1.00  0.00     0.274 C 
HETATM   24  C   UNL     1      16.902  52.034  47.337  1.00  0.00     0.273 C 
HETATM   25  C   UNL     1      19.157  52.180  48.615  1.00  0.00     0.012 A 
HETATM   26  N   UNL     1      16.542  51.110  46.181  1.00  0.00    -0.067 N 
HETATM   27  H   UNL     1      16.899  51.571  45.336  1.00  0.00     0.280 HD
HETATM   28  C   UNL     1      15.091  50.855  46.006  1.00  0.00     0.270 C 
HETATM   29  C   UNL     1      20.368  51.526  48.874  1.00  0.00     0.030 A 
ENDBRANCH   2  19
TORSDOF 4
ENDMDL
MODEL 5
REMARK VINA RESULT:      -8.9      3.629     10.807
REMARK  4 active torsions:
REMARK  status: ('A' for Active; 'I' for Inactive)
REMARK    1  A    between atoms: C_4  and  C_5 
REMARK       I    between atoms: C_5  and  N_6 
REMARK    2  A    between atoms: N_6  and  C_7 
REMARK    3  A    between atoms: C_20  and  C_21 
REMARK    4  A    between atoms: C_24  and  O_25 
ROOT
HETATM    1  C   UNL     1      24.192  47.437  49.656  1.00  0.00     0.263 C 
HETATM    2  N   UNL     1      24.191  46.232  50.342  1.00  0.00    -0.323 N 
HETATM    3  O   UNL     1      25.194  48.131  49.501  1.00  0.00    -0.267 OA
HETATM    4  H   UNL     1      23.271  45.840  50.516  1.00  0.00     0.169 HD
ENDROOT
BRANCH   1   5
HETATM    5  C   UNL     1      22.889  47.845  49.138  1.00  0.00     0.074 A 
HETATM    6  S   UNL     1      22.103  46.996  47.879  1.00  0.00    -0.089 SA
HETATM    7  C   UNL     1      20.825  48.135  47.790  1.00  0.00    -0.009 A 
HETATM    8  C   UNL     1      19.792  47.970  46.720  1.00  0.00     0.057 C 
HETATM    9  C   UNL     1      20.938  49.107  48.773  1.00  0.00    -0.012 A 
HETATM   10  C   UNL     1      22.149  48.944  49.525  1.00  0.00     0.038 A 
BRANCH   9  11
HETATM   11  C   UNL     1      19.971  50.189  48.939  1.00  0.00    -0.025 A 
HETATM   12  C   UNL     1      18.866  50.017  49.778  1.00  0.00     0.015 A 
HETATM   13  C   UNL     1      17.941  51.052  49.949  1.00  0.00     0.037 A 
HETATM   14  C   UNL     1      18.109  52.272  49.293  1.00  0.00     0.068 A 
HETATM   15  C   UNL     1      19.195  52.441  48.434  1.00  0.00     0.037 A 
HETATM   16  C   UNL     1      20.116  51.402  48.252  1.00  0.00     0.015 A 
BRANCH  14  17
HETATM   17  O   UNL     1      17.147  53.205  49.562  1.00  0.00    -0.356 OA
HETATM   18  C   UNL     1      15.897  52.716  50.033  1.00  0.00     0.210 C 
ENDBRANCH  14  17
ENDBRANCH   9  11
ENDBRANCH   1   5
BRANCH   2  19
HETATM   19  C   UNL     1      25.298  45.508  50.823  1.00  0.00     0.035 A 
HETATM   20  C   UNL     1      25.736  45.566  52.149  1.00  0.00     0.039 A 
HETATM   21  C   UNL     1      26.874  44.859  52.509  1.00  0.00    -0.022 A 
HETATM   22  C   UNL     1      27.570  44.078  51.581  1.00  0.00    -0.025 A 
HETATM   23  C   UNL     1      27.523  44.783  53.849  1.00  0.00     0.274 C 
HETATM   24  C   UNL     1      28.732  43.413  52.238  1.00  0.00     0.273 C 
HETATM   25  C   UNL     1      27.143  43.993  50.268  1.00  0.00     0.012 A 
HETATM   26  N   UNL     1      28.877  44.143  53.566  1.00  0.00    -0.067 N 
HETATM   27  H   UNL     1      29.518  44.925  53.385  1.00  0.00     0.280 HD
HETATM   28  C   UNL     1      29.425  43.326  54.677  1.00  0.00     0.270 C 
HETATM   29  C   UNL     1      26.009  44.724  49.892  1.00  0.00     0.030 A 
ENDBRANCH   2  19
TORSDOF 4
ENDMDL
MODEL 6
REMARK VINA RESULT:      -8.8      2.730     10.005
REMARK  4 active torsions:
REMARK  status: ('A' for Active; 'I' for Inactive)
REMARK    1  A    between atoms: C_4  and  C_5 
REMARK       I    between atoms: C_5  and  N_6 
REMARK    2  A    between atoms: N_6  and  C_7 
REMARK    3  A    between atoms: C_20  and  C_21 
REMARK    4  A    between atoms: C_24  and  O_25 
ROOT
HETATM    1  C   UNL     1      26.391  45.406  50.511  1.00  0.00     0.263 C 
HETATM    2  N   UNL     1      26.343  45.247  51.888  1.00  0.00    -0.323 N 
HETATM    3  O   UNL     1      27.399  45.204  49.837  1.00  0.00    -0.267 OA
HETATM    4  H   UNL     1      25.493  45.586  52.328  1.00  0.00     0.169 HD
ENDROOT
BRANCH   1   5
HETATM    5  C   UNL     1      25.141  45.858  49.905  1.00  0.00     0.074 A 
HETATM    6  S   UNL     1      24.112  44.801  49.042  1.00  0.00    -0.089 SA
HETATM    7  C   UNL     1      23.054  46.068  48.579  1.00  0.00    -0.009 A 
HETATM    8  C   UNL     1      21.920  45.752  47.655  1.00  0.00     0.057 C 
HETATM    9  C   UNL     1      23.422  47.276  49.153  1.00  0.00    -0.012 A 
HETATM   10  C   UNL     1      24.644  47.146  49.892  1.00  0.00     0.038 A 
BRANCH   9  11
HETATM   11  C   UNL     1      22.680  48.517  48.943  1.00  0.00    -0.025 A 
HETATM   12  C   UNL     1      21.315  48.573  49.238  1.00  0.00     0.015 A 
HETATM   13  C   UNL     1      20.600  49.760  49.049  1.00  0.00     0.037 A 
HETATM   14  C   UNL     1      21.237  50.906  48.570  1.00  0.00     0.068 A 
HETATM   15  C   UNL     1      22.593  50.849  48.248  1.00  0.00     0.037 A 
HETATM   16  C   UNL     1      23.308  49.657  48.426  1.00  0.00     0.015 A 
BRANCH  14  17
HETATM   17  O   UNL     1      20.430  52.003  48.450  1.00  0.00    -0.356 OA
HETATM   18  C   UNL     1      19.029  51.763  48.411  1.00  0.00     0.210 C 
ENDBRANCH  14  17
ENDBRANCH   9  11
ENDBRANCH   1   5
BRANCH   2  19
HETATM   19  C   UNL     1      27.323  44.689  52.730  1.00  0.00     0.035 A 
HETATM   20  C   UNL     1      27.846  45.354  53.844  1.00  0.00     0.039 A 
HETATM   21  C   UNL     1      28.852  44.740  54.575  1.00  0.00    -0.022 A 
HETATM   22  C   UNL     1      29.330  43.471  54.236  1.00  0.00    -0.025 A 
HETATM   23  C   UNL     1      29.558  45.259  55.782  1.00  0.00     0.274 C 
HETATM   24  C   UNL     1      30.386  43.044  55.199  1.00  0.00     0.273 C 
HETATM   25  C   UNL     1      28.813  42.790  53.148  1.00  0.00     0.012 A 
HETATM   26  N   UNL     1      30.748  44.320  55.945  1.00  0.00    -0.067 N 
HETATM   27  H   UNL     1      31.511  44.749  55.407  1.00  0.00     0.280 HD
HETATM   28  C   UNL     1      31.202  44.126  57.344  1.00  0.00     0.270 C 
HETATM   29  C   UNL     1      27.815  43.414  52.390  1.00  0.00     0.030 A 
ENDBRANCH   2  19
TORSDOF 4
ENDMDL
MODEL 7
REMARK VINA RESULT:      -8.4      3.524     10.411
REMARK  4 active torsions:
REMARK  status: ('A' for Active; 'I' for Inactive)
REMARK    1  A    between atoms: C_4  and  C_5 
REMARK       I    between atoms: C_5  and  N_6 
REMARK    2  A    between atoms: N_6  and  C_7 
REMARK    3  A    between atoms: C_20  and  C_21 
REMARK    4  A    between atoms: C_24  and  O_25 
ROOT
HETATM    1  C   UNL     1      25.421  44.516  51.795  1.00  0.00     0.263 C 
HETATM    2  N   UNL     1      26.771  44.831  51.827  1.00  0.00    -0.323 N 
HETATM    3  O   UNL     1      24.895  43.696  52.545  1.00  0.00    -0.267 OA
HETATM    4  H   UNL     1      27.092  45.413  51.060  1.00  0.00     0.169 HD
ENDROOT
BRANCH   1   5
HETATM    5  C   UNL     1      24.653  45.225  50.775  1.00  0.00     0.074 A 
HETATM    6  S   UNL     1      24.824  46.904  50.509  1.00  0.00    -0.089 SA
HETATM    7  C   UNL     1      23.558  46.939  49.353  1.00  0.00    -0.009 A 
HETATM    8  C   UNL     1      23.142  48.261  48.788  1.00  0.00     0.057 C 
HETATM    9  C   UNL     1      23.067  45.668  49.095  1.00  0.00    -0.012 A 
HETATM   10  C   UNL     1      23.687  44.692  49.944  1.00  0.00     0.038 A 
BRANCH   9  11
HETATM   11  C   UNL     1      21.998  45.406  48.135  1.00  0.00    -0.025 A 
HETATM   12  C   UNL     1      20.680  45.259  48.580  1.00  0.00     0.015 A 
HETATM   13  C   UNL     1      19.650  45.018  47.667  1.00  0.00     0.037 A 
HETATM   14  C   UNL     1      19.917  44.928  46.300  1.00  0.00     0.068 A 
HETATM   15  C   UNL     1      21.232  45.047  45.852  1.00  0.00     0.037 A 
HETATM   16  C   UNL     1      22.268  45.277  46.767  1.00  0.00     0.015 A 
BRANCH  14  17
HETATM   17  O   UNL     1      18.819  44.711  45.514  1.00  0.00    -0.356 OA
HETATM   18  C   UNL     1      17.558  44.682  46.172  1.00  0.00     0.210 C 
ENDBRANCH  14  17
ENDBRANCH   9  11
ENDBRANCH   1   5
BRANCH   2  19
HETATM   19  C   UNL     1      27.731  44.436  52.778  1.00  0.00     0.035 A 
HETATM   20  C   UNL     1      27.985  45.148  53.954  1.00  0.00     0.039 A 
HETATM   21  C   UNL     1      28.993  44.706  54.797  1.00  0.00    -0.022 A 
HETATM   22  C   UNL     1      29.737  43.558  54.506  1.00  0.00    -0.025 A 
HETATM   23  C   UNL     1      29.442  45.306  56.086  1.00  0.00     0.274 C 
HETATM   24  C   UNL     1      30.732  43.301  55.587  1.00  0.00     0.273 C 
HETATM   25  C   UNL     1      29.489  42.830  53.356  1.00  0.00     0.012 A 
HETATM   26  N   UNL     1      30.758  44.598  56.384  1.00  0.00    -0.067 N 
HETATM   27  H   UNL     1      31.486  45.177  55.950  1.00  0.00     0.280 HD
HETATM   28  C   UNL     1      31.071  44.444  57.827  1.00  0.00     0.270 C 
HETATM   29  C   UNL     1      28.489  43.284  52.487  1.00  0.00     0.030 A 
ENDBRANCH   2  19
TORSDOF 4
ENDMDL
MODEL 8
REMARK VINA RESULT:      -8.3      3.108     10.485
REMARK  4 active torsions:
REMARK  status: ('A' for Active; 'I' for Inactive)
REMARK    1  A    between atoms: C_4  and  C_5 
REMARK       I    between atoms: C_5  and  N_6 
REMARK    2  A    between atoms: N_6  and  C_7 
REMARK    3  A    between atoms: C_20  and  C_21 
REMARK    4  A    between atoms: C_24  and  O_25 
ROOT
HETATM    1  C   UNL     1      25.605  47.181  50.908  1.00  0.00     0.263 C 
HETATM    2  N   UNL     1      25.505  46.579  52.153  1.00  0.00    -0.323 N 
HETATM    3  O   UNL     1      26.614  47.760  50.511  1.00  0.00    -0.267 OA
HETATM    4  H   UNL     1      24.572  46.266  52.403  1.00  0.00     0.169 HD
ENDROOT
BRANCH   1   5
HETATM    5  C   UNL     1      24.398  47.096  50.090  1.00  0.00     0.074 A 
HETATM    6  S   UNL     1      23.983  45.683  49.223  1.00  0.00    -0.089 SA
HETATM    7  C   UNL     1      22.631  46.431  48.479  1.00  0.00    -0.009 A 
HETATM    8  C   UNL     1      21.862  45.661  47.451  1.00  0.00     0.057 C 
HETATM    9  C   UNL     1      22.434  47.719  48.955  1.00  0.00    -0.012 A 
HETATM   10  C   UNL     1      23.477  48.100  49.863  1.00  0.00     0.038 A 
BRANCH   9  11
HETATM   11  C   UNL     1      21.340  48.576  48.506  1.00  0.00    -0.025 A 
HETATM   12  C   UNL     1      20.022  48.267  48.855  1.00  0.00     0.015 A 
HETATM   13  C   UNL     1      18.970  49.088  48.437  1.00  0.00     0.037 A 
HETATM   14  C   UNL     1      19.218  50.229  47.673  1.00  0.00     0.068 A 
HETATM   15  C   UNL     1      20.528  50.528  47.299  1.00  0.00     0.037 A 
HETATM   16  C   UNL     1      21.582  49.701  47.707  1.00  0.00     0.015 A 
BRANCH  14  17
HETATM   17  O   UNL     1      18.106  50.955  47.348  1.00  0.00    -0.356 OA
HETATM   18  C   UNL     1      17.861  51.162  45.962  1.00  0.00     0.210 C 
ENDBRANCH  14  17
ENDBRANCH   9  11
ENDBRANCH   1   5
BRANCH   2  19
HETATM   19  C   UNL     1      26.528  46.364  53.096  1.00  0.00     0.035 A 
HETATM   20  C   UNL     1      27.291  45.193  53.147  1.00  0.00     0.039 A 
HETATM   21  C   UNL     1      28.236  45.056  54.153  1.00  0.00    -0.022 A 
HETATM   22  C   UNL     1      28.452  46.068  55.093  1.00  0.00    -0.025 A 
HETATM   23  C   UNL     1      29.147  43.904  54.406  1.00  0.00     0.274 C 
HETATM   24  C   UNL     1      29.534  45.669  56.039  1.00  0.00     0.273 C 
HETATM   25  C   UNL     1      27.720  47.241  55.049  1.00  0.00     0.012 A 
HETATM   26  N   UNL     1      29.709  44.176  55.797  1.00  0.00    -0.067 N 
HETATM   27  H   UNL     1      29.066  43.712  56.448  1.00  0.00     0.280 HD
HETATM   28  C   UNL     1      31.079  43.656  56.029  1.00  0.00     0.270 C 
HETATM   29  C   UNL     1      26.747  47.376  54.052  1.00  0.00     0.030 A 
ENDBRANCH   2  19
TORSDOF 4
ENDMDL
MODEL 9
REMARK VINA RESULT:      -8.2      3.181      9.605
REMARK  4 active torsions:
REMARK  status: ('A' for Active; 'I' for Inactive)
REMARK    1  A    between atoms: C_4  and  C_5 
REMARK       I    between atoms: C_5  and  N_6 
REMARK    2  A    between atoms: N_6  and  C_7 
REMARK    3  A    between atoms: C_20  and  C_21 
REMARK    4  A    between atoms: C_24  and  O_25 
ROOT
HETATM    1  C   UNL     1      26.643  42.652  51.406  1.00  0.00     0.263 C 
HETATM    2  N   UNL     1      27.268  43.777  51.924  1.00  0.00    -0.323 N 
HETATM    3  O   UNL     1      26.931  41.503  51.734  1.00  0.00    -0.267 OA
HETATM    4  H   UNL     1      27.032  44.649  51.461  1.00  0.00     0.169 HD
ENDROOT
BRANCH   1   5
HETATM    5  C   UNL     1      25.614  42.931  50.409  1.00  0.00     0.074 A 
HETATM    6  S   UNL     1      25.420  41.971  49.008  1.00  0.00    -0.089 SA
HETATM    7  C   UNL     1      24.205  42.997  48.367  1.00  0.00    -0.009 A 
HETATM    8  C   UNL     1      23.670  42.705  47.000  1.00  0.00     0.057 C 
HETATM    9  C   UNL     1      23.876  44.014  49.251  1.00  0.00    -0.012 A 
HETATM   10  C   UNL     1      24.717  43.981  50.413  1.00  0.00     0.038 A 
BRANCH   9  11
HETATM   11  C   UNL     1      22.855  45.019  48.966  1.00  0.00    -0.025 A 
HETATM   12  C   UNL     1      21.514  44.640  48.851  1.00  0.00     0.015 A 
HETATM   13  C   UNL     1      20.530  45.598  48.587  1.00  0.00     0.037 A 
HETATM   14  C   UNL     1      20.868  46.944  48.444  1.00  0.00     0.068 A 
HETATM   15  C   UNL     1      22.206  47.325  48.531  1.00  0.00     0.037 A 
HETATM   16  C   UNL     1      23.195  46.365  48.783  1.00  0.00     0.015 A 
BRANCH  14  17
HETATM   17  O   UNL     1      19.810  47.779  48.209  1.00  0.00    -0.356 OA
HETATM   18  C   UNL     1      18.696  47.658  49.084  1.00  0.00     0.210 C 
ENDBRANCH  14  17
ENDBRANCH   9  11
ENDBRANCH   1   5
BRANCH   2  19
HETATM   19  C   UNL     1      28.180  43.846  52.994  1.00  0.00     0.035 A 
HETATM   20  C   UNL     1      28.036  44.726  54.071  1.00  0.00     0.039 A 
HETATM   21  C   UNL     1      29.022  44.757  55.045  1.00  0.00    -0.022 A 
HETATM   22  C   UNL     1      30.137  43.915  54.981  1.00  0.00    -0.025 A 
HETATM   23  C   UNL     1      29.083  45.613  56.264  1.00  0.00     0.274 C 
HETATM   24  C   UNL     1      31.020  44.139  56.161  1.00  0.00     0.273 C 
HETATM   25  C   UNL     1      30.290  43.025  53.933  1.00  0.00     0.012 A 
HETATM   26  N   UNL     1      30.514  45.443  56.763  1.00  0.00    -0.067 N 
HETATM   27  H   UNL     1      31.054  46.188  56.307  1.00  0.00     0.280 HD
HETATM   28  C   UNL     1      30.681  45.566  58.232  1.00  0.00     0.270 C 
HETATM   29  C   UNL     1      29.310  43.006  52.933  1.00  0.00     0.030 A 
ENDBRANCH   2  19
TORSDOF 4
ENDMDL
MODEL 10
REMARK VINA RESULT:      -8.2      3.691     10.517
REMARK  4 active torsions:
REMARK  status: ('A' for Active; 'I' for Inactive)
REMARK    1  A    between atoms: C_4  and  C_5 
REMARK       I    between atoms: C_5  and  N_6 
REMARK    2  A    between atoms: N_6  and  C_7 
REMARK    3  A    between atoms: C_20  and  C_21 
REMARK    4  A    between atoms: C_24  and  O_25 
ROOT
HETATM    1  C   UNL     1      25.339  47.546  50.217  1.00  0.00     0.263 C 
HETATM    2  N   UNL     1      25.055  46.991  51.456  1.00  0.00    -0.323 N 
HETATM    3  O   UNL     1      26.479  47.768  49.815  1.00  0.00    -0.267 OA
HETATM    4  H   UNL     1      24.074  46.999  51.713  1.00  0.00     0.169 HD
ENDROOT
BRANCH   1   5
HETATM    5  C   UNL     1      24.165  47.875  49.413  1.00  0.00     0.074 A 
HETATM    6  S   UNL     1      23.853  49.464  48.865  1.00  0.00    -0.089 SA
HETATM    7  C   UNL     1      22.336  49.028  48.195  1.00  0.00    -0.009 A 
HETATM    8  C   UNL     1      21.476  50.105  47.611  1.00  0.00     0.057 C 
HETATM    9  C   UNL     1      22.105  47.665  48.298  1.00  0.00    -0.012 A 
HETATM   10  C   UNL     1      23.154  47.016  49.029  1.00  0.00     0.038 A 
BRANCH   9  11
HETATM   11  C   UNL     1      20.896  47.021  47.790  1.00  0.00    -0.025 A 
HETATM   12  C   UNL     1      19.802  46.819  48.637  1.00  0.00     0.015 A 
HETATM   13  C   UNL     1      18.639  46.212  48.155  1.00  0.00     0.037 A 
HETATM   14  C   UNL     1      18.547  45.806  46.823  1.00  0.00     0.068 A 
HETATM   15  C   UNL     1      19.644  45.979  45.980  1.00  0.00     0.037 A 
HETATM   16  C   UNL     1      20.815  46.576  46.464  1.00  0.00     0.015 A 
BRANCH  14  17
HETATM   17  O   UNL     1      17.349  45.245  46.476  1.00  0.00    -0.356 OA
HETATM   18  C   UNL     1      17.356  44.365  45.358  1.00  0.00     0.210 C 
ENDBRANCH  14  17
ENDBRANCH   9  11
ENDBRANCH   1   5
BRANCH   2  19
HETATM   19  C   UNL     1      25.957  46.438  52.384  1.00  0.00     0.035 A 
HETATM   20  C   UNL     1      26.409  47.122  53.517  1.00  0.00     0.039 A 
HETATM   21  C   UNL     1      27.343  46.509  54.338  1.00  0.00    -0.022 A 
HETATM   22  C   UNL     1      27.820  45.223  54.068  1.00  0.00    -0.025 A 
HETATM   23  C   UNL     1      27.968  47.048  55.581  1.00  0.00     0.274 C 
HETATM   24  C   UNL     1      28.791  44.802  55.119  1.00  0.00     0.273 C 
HETATM   25  C   UNL     1      27.372  44.523  52.962  1.00  0.00     0.012 A 
HETATM   26  N   UNL     1      29.122  46.092  55.857  1.00  0.00    -0.067 N 
HETATM   27  H   UNL     1      29.932  46.491  55.369  1.00  0.00     0.280 HD
HETATM   28  C   UNL     1      29.465  45.926  57.291  1.00  0.00     0.270 C 
HETATM   29  C   UNL     1      26.447  45.145  52.115  1.00  0.00     0.030 A 
ENDBRANCH   2  19
TORSDOF 4
ENDMDL
