MODEL 1
REMARK VINA RESULT:      -9.0      0.000      0.000
REMARK  3 active torsions:
REMARK  status: ('A' for Active; 'I' for Inactive)
REMARK    1  A    between atoms: C_2  and  C_3 
REMARK    2  A    between atoms: C_6  and  N_7 
REMARK    3  A    between atoms: C_14  and  C_15 
REMARK       I    between atoms: C_15  and  N_16 
ROOT
HETATM    1  N   UNL     1      26.679  42.762  50.188  1.00  0.00    -0.252 N 
HETATM    2  C   UNL     1      27.051  44.085  50.062  1.00  0.00     0.238 C 
HETATM    3  O   UNL     1      26.909  44.867  49.133  1.00  0.00    -0.272 OA
HETATM    4  C   UNL     1      27.551  44.582  51.387  1.00  0.00     0.135 C 
HETATM    5  C   UNL     1      27.845  43.303  52.126  1.00  0.00     0.130 C 
HETATM    6  C   UNL     1      26.931  42.316  51.470  1.00  0.00     0.238 C 
HETATM    7  O   UNL     1      26.543  41.324  52.063  1.00  0.00    -0.272 OA
HETATM    8  C   UNL     1      26.495  45.329  52.190  1.00  0.00     0.298 C 
HETATM    9  N   UNL     1      26.438  44.592  53.550  1.00  0.00    -0.028 N 
HETATM   10  H   UNL     1      25.524  44.088  53.535  1.00  0.00     0.287 HD
HETATM   11  C   UNL     1      27.517  43.521  53.599  1.00  0.00     0.242 C 
HETATM   12  C   UNL     1      26.383  45.510  54.646  1.00  0.00     0.203 C 
HETATM   13  C   UNL     1      27.445  45.716  55.429  1.00  0.00     0.037 C 
HETATM   14  C   UNL     1      28.689  44.970  55.291  1.00  0.00    -0.026 A 
HETATM   15  C   UNL     1      28.741  43.880  54.412  1.00  0.00    -0.016 A 
HETATM   16  C   UNL     1      29.797  45.289  56.084  1.00  0.00     0.012 A 
HETATM   17  C   UNL     1      30.954  44.515  56.018  1.00  0.00     0.001 A 
HETATM   18  C   UNL     1      31.003  43.410  55.177  1.00  0.00     0.001 A 
HETATM   19  C   UNL     1      29.900  43.086  54.386  1.00  0.00     0.010 A 
ENDROOT
BRANCH   1  20
HETATM   20  C   UNL     1      26.035  41.991  49.165  1.00  0.00     0.045 A 
HETATM   21  C   UNL     1      26.773  41.274  48.206  1.00  0.00     0.031 A 
HETATM   22  C   UNL     1      26.147  40.486  47.224  1.00  0.00     0.017 A 
HETATM   23  C   UNL     1      24.757  40.399  47.176  1.00  0.00     0.009 A 
HETATM   24  C   UNL     1      24.005  41.117  48.106  1.00  0.00     0.017 A 
HETATM   25  C   UNL     1      24.637  41.891  49.089  1.00  0.00     0.031 A 
BRANCH  23  26
HETATM   26  C   UNL     1      24.036  39.574  46.169  1.00  0.00     0.155 C 
HETATM   27  C   UNL     1      22.678  39.021  46.509  1.00  0.00     0.096 C 
HETATM   28  O   UNL     1      24.565  39.359  45.081  1.00  0.00    -0.293 OA
ENDBRANCH  23  26
ENDBRANCH   1  20
BRANCH   8  29
HETATM   29  C   UNL     1      25.065  45.340  51.614  1.00  0.00     0.248 C 
HETATM   30  N   UNL     1      24.707  46.328  50.760  1.00  0.00    -0.368 N 
HETATM   31  H   UNL     1      25.382  46.806  50.163  1.00  0.00     0.159 HD
HETATM   32  H   UNL     1      23.776  46.263  50.353  1.00  0.00     0.159 HD
HETATM   33  O   UNL     1      24.281  44.456  51.961  1.00  0.00    -0.271 OA
ENDBRANCH   8  29
TORSDOF 3
ENDMDL
MODEL 2
REMARK VINA RESULT:      -8.8      0.746      1.214
REMARK  3 active torsions:
REMARK  status: ('A' for Active; 'I' for Inactive)
REMARK    1  A    between atoms: C_2  and  C_3 
REMARK    2  A    between atoms: C_6  and  N_7 
REMARK    3  A    between atoms: C_14  and  C_15 
REMARK       I    between atoms: C_15  and  N_16 
ROOT
HETATM    1  N   UNL     1      27.040  42.415  50.361  1.00  0.00    -0.252 N 
HETATM    2  C   UNL     1      27.286  43.763  50.189  1.00  0.00     0.238 C 
HETATM    3  O   UNL     1      27.096  44.489  49.224  1.00  0.00    -0.272 OA
HETATM    4  C   UNL     1      27.693  44.359  51.504  1.00  0.00     0.135 C 
HETATM    5  C   UNL     1      28.088  43.145  52.305  1.00  0.00     0.130 C 
HETATM    6  C   UNL     1      27.295  42.048  51.667  1.00  0.00     0.238 C 
HETATM    7  O   UNL     1      26.988  41.046  52.291  1.00  0.00    -0.272 OA
HETATM    8  C   UNL     1      26.545  45.029  52.246  1.00  0.00     0.298 C 
HETATM    9  N   UNL     1      26.519  44.345  53.634  1.00  0.00    -0.028 N 
HETATM   10  H   UNL     1      25.659  43.753  53.616  1.00  0.00     0.287 HD
HETATM   11  C   UNL     1      27.695  43.389  53.757  1.00  0.00     0.242 C 
HETATM   12  C   UNL     1      26.340  45.296  54.688  1.00  0.00     0.203 C 
HETATM   13  C   UNL     1      27.352  45.637  55.490  1.00  0.00     0.037 C 
HETATM   14  C   UNL     1      28.667  45.013  55.417  1.00  0.00    -0.026 A 
HETATM   15  C   UNL     1      28.852  43.900  54.587  1.00  0.00    -0.016 A 
HETATM   16  C   UNL     1      29.714  45.471  56.225  1.00  0.00     0.012 A 
HETATM   17  C   UNL     1      30.943  44.814  56.223  1.00  0.00     0.001 A 
HETATM   18  C   UNL     1      31.126  43.686  55.431  1.00  0.00     0.001 A 
HETATM   19  C   UNL     1      30.084  43.223  54.625  1.00  0.00     0.010 A 
ENDROOT
BRANCH   1  20
HETATM   20  C   UNL     1      26.507  41.544  49.355  1.00  0.00     0.045 A 
HETATM   21  C   UNL     1      25.179  41.662  48.905  1.00  0.00     0.031 A 
HETATM   22  C   UNL     1      24.663  40.834  47.892  1.00  0.00     0.017 A 
HETATM   23  C   UNL     1      25.468  39.861  47.303  1.00  0.00     0.009 A 
HETATM   24  C   UNL     1      26.781  39.714  47.748  1.00  0.00     0.017 A 
HETATM   25  C   UNL     1      27.293  40.550  48.750  1.00  0.00     0.031 A 
BRANCH  23  26
HETATM   26  C   UNL     1      24.983  38.963  46.220  1.00  0.00     0.155 C 
HETATM   27  C   UNL     1      25.943  37.991  45.587  1.00  0.00     0.096 C 
HETATM   28  O   UNL     1      23.809  39.033  45.863  1.00  0.00    -0.293 OA
ENDBRANCH  23  26
ENDBRANCH   1  20
BRANCH   8  29
HETATM   29  C   UNL     1      25.139  44.876  51.632  1.00  0.00     0.248 C 
HETATM   30  N   UNL     1      24.688  45.823  50.776  1.00  0.00    -0.368 N 
HETATM   31  H   UNL     1      25.316  46.383  50.199  1.00  0.00     0.159 HD
HETATM   32  H   UNL     1      23.782  45.651  50.343  1.00  0.00     0.159 HD
HETATM   33  O   UNL     1      24.458  43.901  51.952  1.00  0.00    -0.271 OA
ENDBRANCH   8  29
TORSDOF 3
ENDMDL
MODEL 3
REMARK VINA RESULT:      -8.7      8.674     12.287
REMARK  3 active torsions:
REMARK  status: ('A' for Active; 'I' for Inactive)
REMARK    1  A    between atoms: C_2  and  C_3 
REMARK    2  A    between atoms: C_6  and  N_7 
REMARK    3  A    between atoms: C_14  and  C_15 
REMARK       I    between atoms: C_15  and  N_16 
ROOT
HETATM    1  N   UNL     1      21.088  49.545  48.107  1.00  0.00    -0.252 N 
HETATM    2  C   UNL     1      20.075  48.614  47.985  1.00  0.00     0.238 C 
HETATM    3  O   UNL     1      20.084  47.404  48.152  1.00  0.00    -0.272 OA
HETATM    4  C   UNL     1      18.773  49.330  47.773  1.00  0.00     0.135 C 
HETATM    5  C   UNL     1      19.221  50.701  47.337  1.00  0.00     0.130 C 
HETATM    6  C   UNL     1      20.584  50.820  47.946  1.00  0.00     0.238 C 
HETATM    7  O   UNL     1      21.063  51.910  48.209  1.00  0.00    -0.272 OA
HETATM    8  C   UNL     1      17.967  49.510  49.052  1.00  0.00     0.298 C 
HETATM    9  N   UNL     1      17.708  51.033  49.145  1.00  0.00    -0.028 N 
HETATM   10  H   UNL     1      18.313  51.352  49.933  1.00  0.00     0.287 HD
HETATM   11  C   UNL     1      18.235  51.721  47.895  1.00  0.00     0.242 C 
HETATM   12  C   UNL     1      16.358  51.317  49.524  1.00  0.00     0.203 C 
HETATM   13  C   UNL     1      15.474  51.781  48.636  1.00  0.00     0.037 C 
HETATM   14  C   UNL     1      15.831  52.117  47.263  1.00  0.00    -0.026 A 
HETATM   15  C   UNL     1      17.179  52.109  46.884  1.00  0.00    -0.016 A 
HETATM   16  C   UNL     1      14.844  52.517  46.355  1.00  0.00     0.012 A 
HETATM   17  C   UNL     1      15.198  52.928  45.070  1.00  0.00     0.001 A 
HETATM   18  C   UNL     1      16.536  52.960  44.695  1.00  0.00     0.001 A 
HETATM   19  C   UNL     1      17.523  52.564  45.599  1.00  0.00     0.010 A 
ENDROOT
BRANCH   1  20
HETATM   20  C   UNL     1      22.446  49.239  48.446  1.00  0.00     0.045 A 
HETATM   21  C   UNL     1      23.521  49.991  47.938  1.00  0.00     0.031 A 
HETATM   22  C   UNL     1      24.853  49.718  48.297  1.00  0.00     0.017 A 
HETATM   23  C   UNL     1      25.143  48.677  49.178  1.00  0.00     0.009 A 
HETATM   24  C   UNL     1      24.094  47.907  49.678  1.00  0.00     0.017 A 
HETATM   25  C   UNL     1      22.767  48.192  49.325  1.00  0.00     0.031 A 
BRANCH  23  26
HETATM   26  C   UNL     1      26.530  48.347  49.605  1.00  0.00     0.155 C 
HETATM   27  C   UNL     1      27.679  49.146  49.050  1.00  0.00     0.096 C 
HETATM   28  O   UNL     1      26.709  47.427  50.400  1.00  0.00    -0.293 OA
ENDBRANCH  23  26
ENDBRANCH   1  20
BRANCH   8  29
HETATM   29  C   UNL     1      18.647  49.078  50.367  1.00  0.00     0.248 C 
HETATM   30  N   UNL     1      18.599  47.776  50.735  1.00  0.00    -0.368 N 
HETATM   31  H   UNL     1      18.525  47.018  50.057  1.00  0.00     0.159 HD
HETATM   32  H   UNL     1      19.115  47.522  51.576  1.00  0.00     0.159 HD
HETATM   33  O   UNL     1      19.200  49.936  51.055  1.00  0.00    -0.271 OA
ENDBRANCH   8  29
TORSDOF 3
ENDMDL
MODEL 4
REMARK VINA RESULT:      -8.6      3.024      4.395
REMARK  3 active torsions:
REMARK  status: ('A' for Active; 'I' for Inactive)
REMARK    1  A    between atoms: C_2  and  C_3 
REMARK    2  A    between atoms: C_6  and  N_7 
REMARK    3  A    between atoms: C_14  and  C_15 
REMARK       I    between atoms: C_15  and  N_16 
ROOT
HETATM    1  N   UNL     1      24.366  44.892  50.178  1.00  0.00    -0.252 N 
HETATM    2  C   UNL     1      24.208  43.829  51.045  1.00  0.00     0.238 C 
HETATM    3  O   UNL     1      23.450  42.872  50.999  1.00  0.00    -0.272 OA
HETATM    4  C   UNL     1      25.296  43.872  52.078  1.00  0.00     0.135 C 
HETATM    5  C   UNL     1      25.788  45.293  51.974  1.00  0.00     0.130 C 
HETATM    6  C   UNL     1      25.437  45.671  50.569  1.00  0.00     0.238 C 
HETATM    7  O   UNL     1      26.059  46.534  49.974  1.00  0.00    -0.272 OA
HETATM    8  C   UNL     1      26.475  42.966  51.751  1.00  0.00     0.298 C 
HETATM    9  N   UNL     1      27.709  43.900  51.776  1.00  0.00    -0.028 N 
HETATM   10  H   UNL     1      27.989  43.988  50.774  1.00  0.00     0.287 HD
HETATM   11  C   UNL     1      27.292  45.292  52.226  1.00  0.00     0.242 C 
HETATM   12  C   UNL     1      28.813  43.299  52.458  1.00  0.00     0.203 C 
HETATM   13  C   UNL     1      29.175  43.704  53.679  1.00  0.00     0.037 C 
HETATM   14  C   UNL     1      28.546  44.829  54.359  1.00  0.00    -0.026 A 
HETATM   15  C   UNL     1      27.633  45.630  53.660  1.00  0.00    -0.016 A 
HETATM   16  C   UNL     1      28.908  45.154  55.672  1.00  0.00     0.012 A 
HETATM   17  C   UNL     1      28.376  46.285  56.288  1.00  0.00     0.001 A 
HETATM   18  C   UNL     1      27.498  47.107  55.590  1.00  0.00     0.001 A 
HETATM   19  C   UNL     1      27.136  46.790  54.281  1.00  0.00     0.010 A 
ENDROOT
BRANCH   1  20
HETATM   20  C   UNL     1      23.592  45.103  48.990  1.00  0.00     0.045 A 
HETATM   21  C   UNL     1      22.784  46.244  48.828  1.00  0.00     0.031 A 
HETATM   22  C   UNL     1      22.053  46.473  47.650  1.00  0.00     0.017 A 
HETATM   23  C   UNL     1      22.110  45.560  46.599  1.00  0.00     0.009 A 
HETATM   24  C   UNL     1      22.890  44.413  46.746  1.00  0.00     0.017 A 
HETATM   25  C   UNL     1      23.625  44.196  47.919  1.00  0.00     0.031 A 
BRANCH  23  26
HETATM   26  C   UNL     1      21.368  45.753  45.323  1.00  0.00     0.155 C 
HETATM   27  C   UNL     1      19.870  45.891  45.359  1.00  0.00     0.096 C 
HETATM   28  O   UNL     1      21.994  45.794  44.266  1.00  0.00    -0.293 OA
ENDBRANCH  23  26
ENDBRANCH   1  20
BRANCH   8  29
HETATM   29  C   UNL     1      26.454  42.268  50.377  1.00  0.00     0.248 C 
HETATM   30  N   UNL     1      25.845  41.065  50.260  1.00  0.00    -0.368 N 
HETATM   31  H   UNL     1      25.073  40.782  50.863  1.00  0.00     0.159 HD
HETATM   32  H   UNL     1      25.797  40.668  49.323  1.00  0.00     0.159 HD
HETATM   33  O   UNL     1      27.009  42.819  49.426  1.00  0.00    -0.271 OA
ENDBRANCH   8  29
TORSDOF 3
ENDMDL
MODEL 5
REMARK VINA RESULT:      -8.6     17.194     18.829
REMARK  3 active torsions:
REMARK  status: ('A' for Active; 'I' for Inactive)
REMARK    1  A    between atoms: C_2  and  C_3 
REMARK    2  A    between atoms: C_6  and  N_7 
REMARK    3  A    between atoms: C_14  and  C_15 
REMARK       I    between atoms: C_15  and  N_16 
ROOT
HETATM    1  N   UNL     1      37.851  44.765  64.872  1.00  0.00    -0.252 N 
HETATM    2  C   UNL     1      36.561  45.252  64.799  1.00  0.00     0.238 C 
HETATM    3  O   UNL     1      35.549  44.756  64.328  1.00  0.00    -0.272 OA
HETATM    4  C   UNL     1      36.470  46.520  65.598  1.00  0.00     0.135 C 
HETATM    5  C   UNL     1      37.915  46.924  65.735  1.00  0.00     0.130 C 
HETATM    6  C   UNL     1      38.643  45.622  65.609  1.00  0.00     0.238 C 
HETATM    7  O   UNL     1      39.743  45.463  66.111  1.00  0.00    -0.272 OA
HETATM    8  C   UNL     1      35.929  46.310  67.006  1.00  0.00     0.298 C 
HETATM    9  N   UNL     1      37.009  46.911  67.937  1.00  0.00    -0.028 N 
HETATM   10  H   UNL     1      37.450  46.082  68.393  1.00  0.00     0.287 HD
HETATM   11  C   UNL     1      38.097  47.571  67.104  1.00  0.00     0.242 C 
HETATM   12  C   UNL     1      36.427  47.694  68.984  1.00  0.00     0.203 C 
HETATM   13  C   UNL     1      36.490  49.028  68.966  1.00  0.00     0.037 C 
HETATM   14  C   UNL     1      37.222  49.774  67.950  1.00  0.00    -0.026 A 
HETATM   15  C   UNL     1      38.028  49.080  67.038  1.00  0.00    -0.016 A 
HETATM   16  C   UNL     1      37.180  51.173  67.933  1.00  0.00     0.012 A 
HETATM   17  C   UNL     1      37.955  51.887  67.020  1.00  0.00     0.001 A 
HETATM   18  C   UNL     1      38.787  51.210  66.136  1.00  0.00     0.001 A 
HETATM   19  C   UNL     1      38.833  49.815  66.150  1.00  0.00     0.010 A 
ENDROOT
BRANCH   1  20
HETATM   20  C   UNL     1      38.282  43.506  64.341  1.00  0.00     0.045 A 
HETATM   21  C   UNL     1      38.914  43.410  63.087  1.00  0.00     0.031 A 
HETATM   22  C   UNL     1      39.372  42.182  62.579  1.00  0.00     0.017 A 
HETATM   23  C   UNL     1      39.206  41.011  63.316  1.00  0.00     0.009 A 
HETATM   24  C   UNL     1      38.565  41.080  64.553  1.00  0.00     0.017 A 
HETATM   25  C   UNL     1      38.121  42.310  65.058  1.00  0.00     0.031 A 
BRANCH  23  26
HETATM   26  C   UNL     1      39.680  39.684  62.837  1.00  0.00     0.155 C 
HETATM   27  C   UNL     1      40.375  38.761  63.802  1.00  0.00     0.096 C 
HETATM   28  O   UNL     1      39.495  39.369  61.664  1.00  0.00    -0.293 OA
ENDBRANCH  23  26
ENDBRANCH   1  20
BRANCH   8  29
HETATM   29  C   UNL     1      35.699  44.852  67.450  1.00  0.00     0.248 C 
HETATM   30  N   UNL     1      34.505  44.267  67.195  1.00  0.00    -0.368 N 
HETATM   31  H   UNL     1      33.919  44.541  66.406  1.00  0.00     0.159 HD
HETATM   32  H   UNL     1      34.416  43.284  67.447  1.00  0.00     0.159 HD
HETATM   33  O   UNL     1      36.606  44.265  68.041  1.00  0.00    -0.271 OA
ENDBRANCH   8  29
TORSDOF 3
ENDMDL
MODEL 6
REMARK VINA RESULT:      -8.5     11.882     15.080
REMARK  3 active torsions:
REMARK  status: ('A' for Active; 'I' for Inactive)
REMARK    1  A    between atoms: C_2  and  C_3 
REMARK    2  A    between atoms: C_6  and  N_7 
REMARK    3  A    between atoms: C_14  and  C_15 
REMARK       I    between atoms: C_15  and  N_16 
ROOT
HETATM    1  N   UNL     1      29.832  50.470  41.219  1.00  0.00    -0.252 N 
HETATM    2  C   UNL     1      28.826  51.407  41.088  1.00  0.00     0.238 C 
HETATM    3  O   UNL     1      28.845  52.619  41.239  1.00  0.00    -0.272 OA
HETATM    4  C   UNL     1      27.610  50.744  40.510  1.00  0.00     0.135 C 
HETATM    5  C   UNL     1      27.885  49.284  40.759  1.00  0.00     0.130 C 
HETATM    6  C   UNL     1      29.379  49.227  40.823  1.00  0.00     0.238 C 
HETATM    7  O   UNL     1      29.984  48.203  40.553  1.00  0.00    -0.272 OA
HETATM    8  C   UNL     1      27.483  50.924  39.003  1.00  0.00     0.298 C 
HETATM    9  N   UNL     1      27.376  49.486  38.441  1.00  0.00    -0.028 N 
HETATM   10  H   UNL     1      28.289  49.326  37.962  1.00  0.00     0.287 HD
HETATM   11  C   UNL     1      27.315  48.489  39.589  1.00  0.00     0.242 C 
HETATM   12  C   UNL     1      26.362  49.385  37.437  1.00  0.00     0.203 C 
HETATM   13  C   UNL     1      25.199  48.779  37.688  1.00  0.00     0.037 C 
HETATM   14  C   UNL     1      24.911  48.106  38.948  1.00  0.00    -0.026 A 
HETATM   15  C   UNL     1      25.938  47.938  39.886  1.00  0.00    -0.016 A 
HETATM   16  C   UNL     1      23.643  47.563  39.187  1.00  0.00     0.012 A 
HETATM   17  C   UNL     1      23.397  46.837  40.351  1.00  0.00     0.001 A 
HETATM   18  C   UNL     1      24.420  46.634  41.271  1.00  0.00     0.001 A 
HETATM   19  C   UNL     1      25.686  47.170  41.037  1.00  0.00     0.010 A 
ENDROOT
BRANCH   1  20
HETATM   20  C   UNL     1      31.178  50.762  41.615  1.00  0.00     0.045 A 
HETATM   21  C   UNL     1      31.562  50.778  42.969  1.00  0.00     0.031 A 
HETATM   22  C   UNL     1      32.889  51.028  43.361  1.00  0.00     0.017 A 
HETATM   23  C   UNL     1      33.870  51.271  42.401  1.00  0.00     0.009 A 
HETATM   24  C   UNL     1      33.507  51.279  41.055  1.00  0.00     0.017 A 
HETATM   25  C   UNL     1      32.185  51.018  40.671  1.00  0.00     0.031 A 
BRANCH  23  26
HETATM   26  C   UNL     1      35.293  51.530  42.753  1.00  0.00     0.155 C 
HETATM   27  C   UNL     1      36.347  50.547  42.317  1.00  0.00     0.096 C 
HETATM   28  O   UNL     1      35.578  52.539  43.393  1.00  0.00    -0.293 OA
ENDBRANCH  23  26
ENDBRANCH   1  20
BRANCH   8  29
HETATM   29  C   UNL     1      28.660  51.612  38.285  1.00  0.00     0.248 C 
HETATM   30  N   UNL     1      28.677  52.963  38.195  1.00  0.00    -0.368 N 
HETATM   31  H   UNL     1      28.226  53.563  38.886  1.00  0.00     0.159 HD
HETATM   32  H   UNL     1      29.503  53.381  37.770  1.00  0.00     0.159 HD
HETATM   33  O   UNL     1      29.546  50.910  37.797  1.00  0.00    -0.271 OA
ENDBRANCH   8  29
TORSDOF 3
ENDMDL
MODEL 7
REMARK VINA RESULT:      -8.3     13.770     15.383
REMARK  3 active torsions:
REMARK  status: ('A' for Active; 'I' for Inactive)
REMARK    1  A    between atoms: C_2  and  C_3 
REMARK    2  A    between atoms: C_6  and  N_7 
REMARK    3  A    between atoms: C_14  and  C_15 
REMARK       I    between atoms: C_15  and  N_16 
ROOT
HETATM    1  N   UNL     1      30.565  51.031  39.610  1.00  0.00    -0.252 N 
HETATM    2  C   UNL     1      30.805  51.296  40.943  1.00  0.00     0.238 C 
HETATM    3  O   UNL     1      30.094  51.138  41.925  1.00  0.00    -0.272 OA
HETATM    4  C   UNL     1      32.245  51.679  41.117  1.00  0.00     0.135 C 
HETATM    5  C   UNL     1      32.658  52.040  39.713  1.00  0.00     0.130 C 
HETATM    6  C   UNL     1      31.709  51.250  38.868  1.00  0.00     0.238 C 
HETATM    7  O   UNL     1      32.003  50.916  37.732  1.00  0.00    -0.272 OA
HETATM    8  C   UNL     1      33.130  50.521  41.558  1.00  0.00     0.298 C 
HETATM    9  N   UNL     1      34.252  50.454  40.495  1.00  0.00    -0.028 N 
HETATM   10  H   UNL     1      34.044  49.588  39.951  1.00  0.00     0.287 HD
HETATM   11  C   UNL     1      34.110  51.616  39.523  1.00  0.00     0.242 C 
HETATM   12  C   UNL     1      35.537  50.261  41.095  1.00  0.00     0.203 C 
HETATM   13  C   UNL     1      36.423  51.258  41.165  1.00  0.00     0.037 C 
HETATM   14  C   UNL     1      36.194  52.567  40.566  1.00  0.00    -0.026 A 
HETATM   15  C   UNL     1      35.076  52.758  39.745  1.00  0.00    -0.016 A 
HETATM   16  C   UNL     1      37.122  53.599  40.746  1.00  0.00     0.012 A 
HETATM   17  C   UNL     1      36.950  54.820  40.097  1.00  0.00     0.001 A 
HETATM   18  C   UNL     1      35.863  55.008  39.250  1.00  0.00     0.001 A 
HETATM   19  C   UNL     1      34.936  53.981  39.065  1.00  0.00     0.010 A 
ENDROOT
BRANCH   1  20
HETATM   20  C   UNL     1      29.337  50.512  39.085  1.00  0.00     0.045 A 
HETATM   21  C   UNL     1      29.125  49.129  38.931  1.00  0.00     0.031 A 
HETATM   22  C   UNL     1      27.908  48.614  38.452  1.00  0.00     0.017 A 
HETATM   23  C   UNL     1      26.867  49.475  38.110  1.00  0.00     0.009 A 
HETATM   24  C   UNL     1      27.063  50.850  38.236  1.00  0.00     0.017 A 
HETATM   25  C   UNL     1      28.275  51.357  38.725  1.00  0.00     0.031 A 
BRANCH  23  26
HETATM   26  C   UNL     1      25.552  48.990  37.608  1.00  0.00     0.155 C 
HETATM   27  C   UNL     1      24.289  49.505  38.244  1.00  0.00     0.096 C 
HETATM   28  O   UNL     1      25.525  48.178  36.686  1.00  0.00    -0.293 OA
ENDBRANCH  23  26
ENDBRANCH   1  20
BRANCH   8  29
HETATM   29  C   UNL     1      32.470  49.129  41.619  1.00  0.00     0.248 C 
HETATM   30  N   UNL     1      31.881  48.730  42.771  1.00  0.00    -0.368 N 
HETATM   31  H   UNL     1      31.482  49.390  43.438  1.00  0.00     0.159 HD
HETATM   32  H   UNL     1      31.402  47.831  42.749  1.00  0.00     0.159 HD
HETATM   33  O   UNL     1      32.514  48.411  40.619  1.00  0.00    -0.271 OA
ENDBRANCH   8  29
TORSDOF 3
ENDMDL
MODEL 8
REMARK VINA RESULT:      -8.1     16.791     20.193
REMARK  3 active torsions:
REMARK  status: ('A' for Active; 'I' for Inactive)
REMARK    1  A    between atoms: C_2  and  C_3 
REMARK    2  A    between atoms: C_6  and  N_7 
REMARK    3  A    between atoms: C_14  and  C_15 
REMARK       I    between atoms: C_15  and  N_16 
ROOT
HETATM    1  N   UNL     1      38.930  46.350  66.115  1.00  0.00    -0.252 N 
HETATM    2  C   UNL     1      38.015  45.427  66.579  1.00  0.00     0.238 C 
HETATM    3  O   UNL     1      36.971  45.582  67.196  1.00  0.00    -0.272 OA
HETATM    4  C   UNL     1      38.374  44.070  66.047  1.00  0.00     0.135 C 
HETATM    5  C   UNL     1      39.810  44.253  65.628  1.00  0.00     0.130 C 
HETATM    6  C   UNL     1      39.898  45.722  65.357  1.00  0.00     0.238 C 
HETATM    7  O   UNL     1      40.726  46.172  64.582  1.00  0.00    -0.272 OA
HETATM    8  C   UNL     1      37.590  43.684  64.799  1.00  0.00     0.298 C 
HETATM    9  N   UNL     1      38.671  43.346  63.744  1.00  0.00    -0.028 N 
HETATM   10  H   UNL     1      38.627  44.137  63.064  1.00  0.00     0.287 HD
HETATM   11  C   UNL     1      40.050  43.408  64.382  1.00  0.00     0.242 C 
HETATM   12  C   UNL     1      38.344  42.160  63.014  1.00  0.00     0.203 C 
HETATM   13  C   UNL     1      38.991  41.013  63.235  1.00  0.00     0.037 C 
HETATM   14  C   UNL     1      40.120  40.902  64.149  1.00  0.00    -0.026 A 
HETATM   15  C   UNL     1      40.665  42.065  64.710  1.00  0.00    -0.016 A 
HETATM   16  C   UNL     1      40.704  39.656  64.405  1.00  0.00     0.012 A 
HETATM   17  C   UNL     1      41.841  39.564  65.206  1.00  0.00     0.001 A 
HETATM   18  C   UNL     1      42.412  40.716  65.736  1.00  0.00     0.001 A 
HETATM   19  C   UNL     1      41.835  41.961  65.482  1.00  0.00     0.010 A 
ENDROOT
BRANCH   1  20
HETATM   20  C   UNL     1      38.836  47.767  66.310  1.00  0.00     0.045 A 
HETATM   21  C   UNL     1      39.587  48.428  67.300  1.00  0.00     0.031 A 
HETATM   22  C   UNL     1      39.526  49.822  67.470  1.00  0.00     0.017 A 
HETATM   23  C   UNL     1      38.705  50.594  66.651  1.00  0.00     0.009 A 
HETATM   24  C   UNL     1      37.937  49.957  65.676  1.00  0.00     0.017 A 
HETATM   25  C   UNL     1      38.011  48.568  65.504  1.00  0.00     0.031 A 
BRANCH  23  26
HETATM   26  C   UNL     1      38.606  52.074  66.774  1.00  0.00     0.155 C 
HETATM   27  C   UNL     1      37.462  52.671  67.550  1.00  0.00     0.096 C 
HETATM   28  O   UNL     1      39.459  52.779  66.240  1.00  0.00    -0.293 OA
ENDBRANCH  23  26
ENDBRANCH   1  20
BRANCH   8  29
HETATM   29  C   UNL     1      36.677  44.767  64.192  1.00  0.00     0.248 C 
HETATM   30  N   UNL     1      35.409  44.891  64.651  1.00  0.00    -0.368 N 
HETATM   31  H   UNL     1      35.144  44.633  65.601  1.00  0.00     0.159 HD
HETATM   32  H   UNL     1      34.860  45.660  64.269  1.00  0.00     0.159 HD
HETATM   33  O   UNL     1      37.122  45.478  63.290  1.00  0.00    -0.271 OA
ENDBRANCH   8  29
TORSDOF 3
ENDMDL
MODEL 9
REMARK VINA RESULT:      -7.8     10.443     13.933
REMARK  3 active torsions:
REMARK  status: ('A' for Active; 'I' for Inactive)
REMARK    1  A    between atoms: C_2  and  C_3 
REMARK    2  A    between atoms: C_6  and  N_7 
REMARK    3  A    between atoms: C_14  and  C_15 
REMARK       I    between atoms: C_15  and  N_16 
ROOT
HETATM    1  N   UNL     1      16.924  51.379  48.076  1.00  0.00    -0.252 N 
HETATM    2  C   UNL     1      18.253  51.725  47.934  1.00  0.00     0.238 C 
HETATM    3  O   UNL     1      18.843  52.754  48.232  1.00  0.00    -0.272 OA
HETATM    4  C   UNL     1      19.029  50.521  47.488  1.00  0.00     0.135 C 
HETATM    5  C   UNL     1      17.948  49.612  46.963  1.00  0.00     0.130 C 
HETATM    6  C   UNL     1      16.735  50.060  47.716  1.00  0.00     0.238 C 
HETATM    7  O   UNL     1      15.800  49.302  47.915  1.00  0.00    -0.272 OA
HETATM    8  C   UNL     1      19.714  49.785  48.632  1.00  0.00     0.298 C 
HETATM    9  N   UNL     1      19.204  48.328  48.525  1.00  0.00    -0.028 N 
HETATM   10  H   UNL     1      18.563  48.216  49.342  1.00  0.00     0.287 HD
HETATM   11  C   UNL     1      18.342  48.174  47.281  1.00  0.00     0.242 C 
HETATM   12  C   UNL     1      20.264  47.383  48.703  1.00  0.00     0.203 C 
HETATM   13  C   UNL     1      20.761  46.699  47.669  1.00  0.00     0.037 C 
HETATM   14  C   UNL     1      20.213  46.789  46.322  1.00  0.00    -0.026 A 
HETATM   15  C   UNL     1      19.020  47.494  46.112  1.00  0.00    -0.016 A 
HETATM   16  C   UNL     1      20.829  46.115  45.261  1.00  0.00     0.012 A 
HETATM   17  C   UNL     1      20.252  46.125  43.992  1.00  0.00     0.001 A 
HETATM   18  C   UNL     1      19.048  46.790  43.782  1.00  0.00     0.001 A 
HETATM   19  C   UNL     1      18.429  47.461  44.837  1.00  0.00     0.010 A 
ENDROOT
BRANCH   1  20
HETATM   20  C   UNL     1      15.907  52.236  48.609  1.00  0.00     0.045 A 
HETATM   21  C   UNL     1      15.148  53.085  47.783  1.00  0.00     0.031 A 
HETATM   22  C   UNL     1      14.124  53.900  48.297  1.00  0.00     0.017 A 
HETATM   23  C   UNL     1      13.833  53.886  49.660  1.00  0.00     0.009 A 
HETATM   24  C   UNL     1      14.585  53.065  50.500  1.00  0.00     0.017 A 
HETATM   25  C   UNL     1      15.598  52.248  49.979  1.00  0.00     0.031 A 
BRANCH  23  26
HETATM   26  C   UNL     1      12.754  54.716  50.262  1.00  0.00     0.155 C 
HETATM   27  C   UNL     1      12.927  56.209  50.328  1.00  0.00     0.096 C 
HETATM   28  O   UNL     1      11.744  54.164  50.694  1.00  0.00    -0.293 OA
ENDBRANCH  23  26
ENDBRANCH   1  20
BRANCH   8  29
HETATM   29  C   UNL     1      19.402  50.278  50.058  1.00  0.00     0.248 C 
HETATM   30  N   UNL     1      20.200  51.216  50.620  1.00  0.00    -0.368 N 
HETATM   31  H   UNL     1      20.713  51.901  50.064  1.00  0.00     0.159 HD
HETATM   32  H   UNL     1      19.923  51.561  51.537  1.00  0.00     0.159 HD
HETATM   33  O   UNL     1      18.442  49.789  50.656  1.00  0.00    -0.271 OA
ENDBRANCH   8  29
TORSDOF 3
ENDMDL
MODEL 10
REMARK VINA RESULT:      -7.6     11.207     14.451
REMARK  3 active torsions:
REMARK  status: ('A' for Active; 'I' for Inactive)
REMARK    1  A    between atoms: C_2  and  C_3 
REMARK    2  A    between atoms: C_6  and  N_7 
REMARK    3  A    between atoms: C_14  and  C_15 
REMARK       I    between atoms: C_15  and  N_16 
ROOT
HETATM    1  N   UNL     1      29.685  49.242  41.266  1.00  0.00    -0.252 N 
HETATM    2  C   UNL     1      28.450  49.851  41.371  1.00  0.00     0.238 C 
HETATM    3  O   UNL     1      28.150  50.990  41.696  1.00  0.00    -0.272 OA
HETATM    4  C   UNL     1      27.400  48.931  40.818  1.00  0.00     0.135 C 
HETATM    5  C   UNL     1      28.101  47.597  40.822  1.00  0.00     0.130 C 
HETATM    6  C   UNL     1      29.547  47.974  40.736  1.00  0.00     0.238 C 
HETATM    7  O   UNL     1      30.371  47.211  40.262  1.00  0.00    -0.272 OA
HETATM    8  C   UNL     1      27.029  49.237  39.374  1.00  0.00     0.298 C 
HETATM    9  N   UNL     1      27.252  47.905  38.618  1.00  0.00    -0.028 N 
HETATM   10  H   UNL     1      28.102  48.075  38.036  1.00  0.00     0.287 HD
HETATM   11  C   UNL     1      27.624  46.809  39.607  1.00  0.00     0.242 C 
HETATM   12  C   UNL     1      26.182  47.626  37.710  1.00  0.00     0.203 C 
HETATM   13  C   UNL     1      25.277  46.681  37.978  1.00  0.00     0.037 C 
HETATM   14  C   UNL     1      25.359  45.813  39.147  1.00  0.00    -0.026 A 
HETATM   15  C   UNL     1      26.507  45.849  39.948  1.00  0.00    -0.016 A 
HETATM   16  C   UNL     1      24.335  44.899  39.421  1.00  0.00     0.012 A 
HETATM   17  C   UNL     1      24.457  44.006  40.484  1.00  0.00     0.001 A 
HETATM   18  C   UNL     1      25.609  44.007  41.263  1.00  0.00     0.001 A 
HETATM   19  C   UNL     1      26.634  44.915  40.992  1.00  0.00     0.010 A 
ENDROOT
BRANCH   1  20
HETATM   20  C   UNL     1      30.936  49.868  41.572  1.00  0.00     0.045 A 
HETATM   21  C   UNL     1      31.666  50.577  40.600  1.00  0.00     0.031 A 
HETATM   22  C   UNL     1      32.876  51.225  40.905  1.00  0.00     0.017 A 
HETATM   23  C   UNL     1      33.390  51.177  42.200  1.00  0.00     0.009 A 
HETATM   24  C   UNL     1      32.693  50.464  43.175  1.00  0.00     0.017 A 
HETATM   25  C   UNL     1      31.481  49.830  42.866  1.00  0.00     0.031 A 
BRANCH  23  26
HETATM   26  C   UNL     1      34.659  51.852  42.587  1.00  0.00     0.155 C 
HETATM   27  C   UNL     1      34.922  52.140  44.041  1.00  0.00     0.096 C 
HETATM   28  O   UNL     1      35.465  52.160  41.713  1.00  0.00    -0.293 OA
ENDBRANCH  23  26
ENDBRANCH   1  20
BRANCH   8  29
HETATM   29  C   UNL     1      27.863  50.317  38.657  1.00  0.00     0.248 C 
HETATM   30  N   UNL     1      27.485  51.613  38.757  1.00  0.00    -0.368 N 
HETATM   31  H   UNL     1      26.974  51.973  39.563  1.00  0.00     0.159 HD
HETATM   32  H   UNL     1      28.098  52.301  38.323  1.00  0.00     0.159 HD
HETATM   33  O   UNL     1      28.841  49.967  37.996  1.00  0.00    -0.271 OA
ENDBRANCH   8  29
TORSDOF 3
ENDMDL
