MODEL 1
REMARK VINA RESULT:      -8.2      0.000      0.000
REMARK  7 active torsions:
REMARK  status: ('A' for Active; 'I' for Inactive)
REMARK    1  A    between atoms: C_2  and  C_3 
REMARK    2  A    between atoms: C_3  and  N_4 
REMARK    3  A    between atoms: C_3  and  C_20 
REMARK       I    between atoms: N_4  and  C_5 
REMARK       I    between atoms: C_5  and  N_6 
REMARK    4  A    between atoms: N_6  and  C_7 
REMARK    5  A    between atoms: C_7  and  C_8 
REMARK    6  A    between atoms: C_10  and  O_11 
REMARK    7  A    between atoms: O_11  and  C_12 
ROOT
HETATM    1  N   UNL     1      27.499  44.305  52.436  1.00  0.00    -0.334 N 
HETATM    2  C   UNL     1      26.349  45.042  52.353  1.00  0.00     0.316 C 
HETATM    3  N   UNL     1      26.354  45.843  51.240  1.00  0.00    -0.339 N 
HETATM    4  O   UNL     1      25.429  44.986  53.156  1.00  0.00    -0.247 OA
HETATM    5  H   UNL     1      28.277  44.607  51.874  1.00  0.00     0.165 HD
HETATM    6  H   UNL     1      26.958  45.546  50.490  1.00  0.00     0.164 HD
ENDROOT
BRANCH   3   7
HETATM    7  C   UNL     1      25.167  46.571  50.846  1.00  0.00     0.163 C 
BRANCH   7   8
HETATM    8  C   UNL     1      25.541  47.732  49.964  1.00  0.00    -0.035 A 
HETATM    9  C   UNL     1      24.562  48.405  49.227  1.00  0.00     0.066 A 
HETATM   10  C   UNL     1      24.961  49.404  48.356  1.00  0.00     0.164 A 
HETATM   11  N   UNL     1      26.243  49.786  48.178  1.00  0.00    -0.237 NA
HETATM   12  C   UNL     1      27.170  49.134  48.909  1.00  0.00     0.120 A 
HETATM   13  C   UNL     1      26.876  48.110  49.798  1.00  0.00     0.028 A 
BRANCH  10  14
HETATM   14  O   UNL     1      23.967  50.027  47.628  1.00  0.00    -0.329 OA
BRANCH  14  15
HETATM   15  C   UNL     1      22.653  50.014  48.225  1.00  0.00     0.130 C 
HETATM   16  C   UNL     1      22.244  51.282  49.023  1.00  0.00     0.032 C 
HETATM   17  C   UNL     1      20.841  51.147  48.406  1.00  0.00     0.005 C 
HETATM   18  C   UNL     1      21.494  50.363  47.254  1.00  0.00     0.032 C 
ENDBRANCH  14  15
ENDBRANCH  10  14
ENDBRANCH   7   8
ENDBRANCH   3   7
BRANCH   1  19
HETATM   19  C   UNL     1      27.774  43.415  53.555  1.00  0.00     0.119 C 
BRANCH  19  20
HETATM   20  C   UNL     1      28.096  41.994  53.046  1.00  0.00     0.025 C 
HETATM   21  C   UNL     1      27.914  41.790  51.546  1.00  0.00     0.007 C 
ENDBRANCH  19  20
BRANCH  19  22
HETATM   22  C   UNL     1      28.840  43.950  54.500  1.00  0.00    -0.033 A 
HETATM   23  C   UNL     1      28.625  45.174  55.149  1.00  0.00     0.028 A 
HETATM   24  C   UNL     1      29.581  45.648  56.035  1.00  0.00     0.116 A 
HETATM   25  N   UNL     1      30.726  44.996  56.322  1.00  0.00    -0.273 NA
HETATM   26  C   UNL     1      30.926  43.824  55.685  1.00  0.00     0.116 A 
HETATM   27  C   UNL     1      30.029  43.268  54.784  1.00  0.00     0.028 A 
ENDBRANCH  19  22
ENDBRANCH   1  19
TORSDOF 7
ENDMDL
MODEL 2
REMARK VINA RESULT:      -8.0      3.484      5.204
REMARK  7 active torsions:
REMARK  status: ('A' for Active; 'I' for Inactive)
REMARK    1  A    between atoms: C_2  and  C_3 
REMARK    2  A    between atoms: C_3  and  N_4 
REMARK    3  A    between atoms: C_3  and  C_20 
REMARK       I    between atoms: N_4  and  C_5 
REMARK       I    between atoms: C_5  and  N_6 
REMARK    4  A    between atoms: N_6  and  C_7 
REMARK    5  A    between atoms: C_7  and  C_8 
REMARK    6  A    between atoms: C_10  and  O_11 
REMARK    7  A    between atoms: O_11  and  C_12 
ROOT
HETATM    1  N   UNL     1      28.245  43.962  54.430  1.00  0.00    -0.334 N 
HETATM    2  C   UNL     1      28.557  43.114  53.402  1.00  0.00     0.316 C 
HETATM    3  N   UNL     1      27.633  42.106  53.294  1.00  0.00    -0.339 N 
HETATM    4  O   UNL     1      29.524  43.243  52.665  1.00  0.00    -0.247 OA
HETATM    5  H   UNL     1      27.585  43.628  55.112  1.00  0.00     0.165 HD
HETATM    6  H   UNL     1      26.726  42.300  53.685  1.00  0.00     0.164 HD
ENDROOT
BRANCH   3   7
HETATM    7  C   UNL     1      27.655  41.200  52.165  1.00  0.00     0.163 C 
BRANCH   7   8
HETATM    8  C   UNL     1      26.643  41.630  51.138  1.00  0.00    -0.035 A 
HETATM    9  C   UNL     1      26.170  42.946  51.117  1.00  0.00     0.066 A 
HETATM   10  C   UNL     1      25.170  43.274  50.219  1.00  0.00     0.164 A 
HETATM   11  N   UNL     1      24.622  42.405  49.343  1.00  0.00    -0.237 NA
HETATM   12  C   UNL     1      25.103  41.144  49.370  1.00  0.00     0.120 A 
HETATM   13  C   UNL     1      26.092  40.711  50.240  1.00  0.00     0.028 A 
BRANCH  10  14
HETATM   14  O   UNL     1      24.713  44.577  50.246  1.00  0.00    -0.329 OA
BRANCH  14  15
HETATM   15  C   UNL     1      25.636  45.552  50.776  1.00  0.00     0.130 C 
HETATM   16  C   UNL     1      26.496  46.323  49.738  1.00  0.00     0.032 C 
HETATM   17  C   UNL     1      26.274  47.590  50.583  1.00  0.00     0.005 C 
HETATM   18  C   UNL     1      25.001  46.922  51.131  1.00  0.00     0.032 C 
ENDBRANCH  14  15
ENDBRANCH  10  14
ENDBRANCH   7   8
ENDBRANCH   3   7
BRANCH   1  19
HETATM   19  C   UNL     1      29.094  45.084  54.799  1.00  0.00     0.119 C 
BRANCH  19  20
HETATM   20  C   UNL     1      28.242  46.347  55.042  1.00  0.00     0.025 C 
HETATM   21  C   UNL     1      26.891  46.360  54.333  1.00  0.00     0.007 C 
ENDBRANCH  19  20
BRANCH  19  22
HETATM   22  C   UNL     1      30.024  44.778  55.963  1.00  0.00    -0.033 A 
HETATM   23  C   UNL     1      29.976  45.588  57.107  1.00  0.00     0.028 A 
HETATM   24  C   UNL     1      30.800  45.291  58.182  1.00  0.00     0.116 A 
HETATM   25  N   UNL     1      31.661  44.253  58.203  1.00  0.00    -0.273 NA
HETATM   26  C   UNL     1      31.705  43.487  57.094  1.00  0.00     0.116 A 
HETATM   27  C   UNL     1      30.920  43.702  55.971  1.00  0.00     0.028 A 
ENDBRANCH  19  22
ENDBRANCH   1  19
TORSDOF 7
ENDMDL
MODEL 3
REMARK VINA RESULT:      -7.9      0.783      1.220
REMARK  7 active torsions:
REMARK  status: ('A' for Active; 'I' for Inactive)
REMARK    1  A    between atoms: C_2  and  C_3 
REMARK    2  A    between atoms: C_3  and  N_4 
REMARK    3  A    between atoms: C_3  and  C_20 
REMARK       I    between atoms: N_4  and  C_5 
REMARK       I    between atoms: C_5  and  N_6 
REMARK    4  A    between atoms: N_6  and  C_7 
REMARK    5  A    between atoms: C_7  and  C_8 
REMARK    6  A    between atoms: C_10  and  O_11 
REMARK    7  A    between atoms: O_11  and  C_12 
ROOT
HETATM    1  N   UNL     1      27.434  44.990  52.191  1.00  0.00    -0.334 N 
HETATM    2  C   UNL     1      26.140  45.254  51.831  1.00  0.00     0.316 C 
HETATM    3  N   UNL     1      26.025  46.506  51.282  1.00  0.00    -0.339 N 
HETATM    4  O   UNL     1      25.209  44.473  51.966  1.00  0.00    -0.247 OA
HETATM    5  H   UNL     1      28.056  45.776  52.265  1.00  0.00     0.165 HD
HETATM    6  H   UNL     1      26.870  46.891  50.892  1.00  0.00     0.164 HD
ENDROOT
BRANCH   3   7
HETATM    7  C   UNL     1      24.789  46.929  50.659  1.00  0.00     0.163 C 
BRANCH   7   8
HETATM    8  C   UNL     1      25.057  48.045  49.685  1.00  0.00    -0.035 A 
HETATM    9  C   UNL     1      24.006  48.630  48.972  1.00  0.00     0.066 A 
HETATM   10  C   UNL     1      24.308  49.586  48.017  1.00  0.00     0.164 A 
HETATM   11  N   UNL     1      25.558  50.006  47.734  1.00  0.00    -0.237 NA
HETATM   12  C   UNL     1      26.556  49.440  48.443  1.00  0.00     0.120 A 
HETATM   13  C   UNL     1      26.362  48.464  49.410  1.00  0.00     0.028 A 
BRANCH  10  14
HETATM   14  O   UNL     1      23.244  50.121  47.316  1.00  0.00    -0.329 OA
BRANCH  14  15
HETATM   15  C   UNL     1      21.968  50.081  47.990  1.00  0.00     0.130 C 
HETATM   16  C   UNL     1      21.399  51.444  48.471  1.00  0.00     0.032 C 
HETATM   17  C   UNL     1      20.013  50.961  48.011  1.00  0.00     0.005 C 
HETATM   18  C   UNL     1      20.738  50.004  47.049  1.00  0.00     0.032 C 
ENDBRANCH  14  15
ENDBRANCH  10  14
ENDBRANCH   7   8
ENDBRANCH   3   7
BRANCH   1  19
HETATM   19  C   UNL     1      27.821  43.752  52.851  1.00  0.00     0.119 C 
BRANCH  19  20
HETATM   20  C   UNL     1      28.380  42.746  51.824  1.00  0.00     0.025 C 
HETATM   21  C   UNL     1      27.481  41.548  51.539  1.00  0.00     0.007 C 
ENDBRANCH  19  20
BRANCH  19  22
HETATM   22  C   UNL     1      28.763  43.967  54.027  1.00  0.00    -0.033 A 
HETATM   23  C   UNL     1      29.693  42.967  54.348  1.00  0.00     0.028 A 
HETATM   24  C   UNL     1      30.574  43.175  55.399  1.00  0.00     0.116 A 
HETATM   25  N   UNL     1      30.598  44.297  56.147  1.00  0.00    -0.273 NA
HETATM   26  C   UNL     1      29.694  45.247  55.834  1.00  0.00     0.116 A 
HETATM   27  C   UNL     1      28.774  45.132  54.801  1.00  0.00     0.028 A 
ENDBRANCH  19  22
ENDBRANCH   1  19
TORSDOF 7
ENDMDL
MODEL 4
REMARK VINA RESULT:      -7.8      2.613      9.760
REMARK  7 active torsions:
REMARK  status: ('A' for Active; 'I' for Inactive)
REMARK    1  A    between atoms: C_2  and  C_3 
REMARK    2  A    between atoms: C_3  and  N_4 
REMARK    3  A    between atoms: C_3  and  C_20 
REMARK       I    between atoms: N_4  and  C_5 
REMARK       I    between atoms: C_5  and  N_6 
REMARK    4  A    between atoms: N_6  and  C_7 
REMARK    5  A    between atoms: C_7  and  C_8 
REMARK    6  A    between atoms: C_10  and  O_11 
REMARK    7  A    between atoms: O_11  and  C_12 
ROOT
HETATM    1  N   UNL     1      22.568  48.278  49.614  1.00  0.00    -0.334 N 
HETATM    2  C   UNL     1      23.871  47.919  49.829  1.00  0.00     0.316 C 
HETATM    3  N   UNL     1      23.965  46.607  50.219  1.00  0.00    -0.339 N 
HETATM    4  O   UNL     1      24.830  48.663  49.680  1.00  0.00    -0.247 OA
HETATM    5  H   UNL     1      21.860  47.678  50.000  1.00  0.00     0.165 HD
HETATM    6  H   UNL     1      23.193  46.017  49.955  1.00  0.00     0.164 HD
ENDROOT
BRANCH   3   7
HETATM    7  C   UNL     1      25.253  45.956  50.321  1.00  0.00     0.163 C 
BRANCH   7   8
HETATM    8  C   UNL     1      25.762  46.038  51.736  1.00  0.00    -0.035 A 
HETATM    9  C   UNL     1      26.482  44.975  52.291  1.00  0.00     0.066 A 
HETATM   10  C   UNL     1      26.848  45.051  53.624  1.00  0.00     0.164 A 
HETATM   11  N   UNL     1      26.566  46.097  54.429  1.00  0.00    -0.237 NA
HETATM   12  C   UNL     1      25.884  47.117  53.869  1.00  0.00     0.120 A 
HETATM   13  C   UNL     1      25.459  47.133  52.549  1.00  0.00     0.028 A 
BRANCH  10  14
HETATM   14  O   UNL     1      27.535  43.971  54.142  1.00  0.00    -0.329 OA
BRANCH  14  15
HETATM   15  C   UNL     1      28.975  44.058  54.080  1.00  0.00     0.130 C 
HETATM   16  C   UNL     1      29.709  44.330  55.421  1.00  0.00     0.032 C 
HETATM   17  C   UNL     1      30.777  43.318  54.975  1.00  0.00     0.005 C 
HETATM   18  C   UNL     1      29.709  42.692  54.062  1.00  0.00     0.032 C 
ENDBRANCH  14  15
ENDBRANCH  10  14
ENDBRANCH   7   8
ENDBRANCH   3   7
BRANCH   1  19
HETATM   19  C   UNL     1      22.185  49.634  49.249  1.00  0.00     0.119 C 
BRANCH  19  20
HETATM   20  C   UNL     1      22.497  49.900  47.762  1.00  0.00     0.025 C 
HETATM   21  C   UNL     1      23.660  50.853  47.507  1.00  0.00     0.007 C 
ENDBRANCH  19  20
BRANCH  19  22
HETATM   22  C   UNL     1      20.745  49.969  49.610  1.00  0.00    -0.033 A 
HETATM   23  C   UNL     1      20.339  51.312  49.621  1.00  0.00     0.028 A 
HETATM   24  C   UNL     1      19.020  51.617  49.919  1.00  0.00     0.116 A 
HETATM   25  N   UNL     1      18.081  50.691  50.201  1.00  0.00    -0.273 NA
HETATM   26  C   UNL     1      18.485  49.405  50.196  1.00  0.00     0.116 A 
HETATM   27  C   UNL     1      19.781  49.000  49.910  1.00  0.00     0.028 A 
ENDBRANCH  19  22
ENDBRANCH   1  19
TORSDOF 7
ENDMDL
MODEL 5
REMARK VINA RESULT:      -7.7      2.479      8.631
REMARK  7 active torsions:
REMARK  status: ('A' for Active; 'I' for Inactive)
REMARK    1  A    between atoms: C_2  and  C_3 
REMARK    2  A    between atoms: C_3  and  N_4 
REMARK    3  A    between atoms: C_3  and  C_20 
REMARK       I    between atoms: N_4  and  C_5 
REMARK       I    between atoms: C_5  and  N_6 
REMARK    4  A    between atoms: N_6  and  C_7 
REMARK    5  A    between atoms: C_7  and  C_8 
REMARK    6  A    between atoms: C_10  and  O_11 
REMARK    7  A    between atoms: O_11  and  C_12 
ROOT
HETATM    1  N   UNL     1      26.060  45.866  49.745  1.00  0.00    -0.334 N 
HETATM    2  C   UNL     1      25.496  44.632  49.924  1.00  0.00     0.316 C 
HETATM    3  N   UNL     1      26.152  43.677  49.189  1.00  0.00    -0.339 N 
HETATM    4  O   UNL     1      24.542  44.404  50.654  1.00  0.00    -0.247 OA
HETATM    5  H   UNL     1      26.665  45.980  48.950  1.00  0.00     0.165 HD
HETATM    6  H   UNL     1      27.102  43.896  48.937  1.00  0.00     0.164 HD
ENDROOT
BRANCH   3   7
HETATM    7  C   UNL     1      25.850  42.273  49.364  1.00  0.00     0.163 C 
BRANCH   7   8
HETATM    8  C   UNL     1      26.813  41.654  50.341  1.00  0.00    -0.035 A 
HETATM    9  C   UNL     1      26.929  42.162  51.638  1.00  0.00     0.066 A 
HETATM   10  C   UNL     1      27.894  41.627  52.473  1.00  0.00     0.164 A 
HETATM   11  N   UNL     1      28.732  40.629  52.121  1.00  0.00    -0.237 NA
HETATM   12  C   UNL     1      28.594  40.144  50.870  1.00  0.00     0.120 A 
HETATM   13  C   UNL     1      27.669  40.619  49.953  1.00  0.00     0.028 A 
BRANCH  10  14
HETATM   14  O   UNL     1      27.994  42.173  53.738  1.00  0.00    -0.329 OA
BRANCH  14  15
HETATM   15  C   UNL     1      28.956  43.239  53.885  1.00  0.00     0.130 C 
HETATM   16  C   UNL     1      28.545  44.418  54.809  1.00  0.00     0.032 C 
HETATM   17  C   UNL     1      29.988  44.428  55.340  1.00  0.00     0.005 C 
HETATM   18  C   UNL     1      30.090  42.956  54.905  1.00  0.00     0.032 C 
ENDBRANCH  14  15
ENDBRANCH  10  14
ENDBRANCH   7   8
ENDBRANCH   3   7
BRANCH   1  19
HETATM   19  C   UNL     1      25.520  47.066  50.366  1.00  0.00     0.119 C 
BRANCH  19  20
HETATM   20  C   UNL     1      26.274  47.382  51.675  1.00  0.00     0.025 C 
HETATM   21  C   UNL     1      25.601  46.873  52.946  1.00  0.00     0.007 C 
ENDBRANCH  19  20
BRANCH  19  22
HETATM   22  C   UNL     1      25.468  48.259  49.424  1.00  0.00    -0.033 A 
HETATM   23  C   UNL     1      26.665  48.885  49.048  1.00  0.00     0.028 A 
HETATM   24  C   UNL     1      26.622  49.953  48.164  1.00  0.00     0.116 A 
HETATM   25  N   UNL     1      25.484  50.438  47.628  1.00  0.00    -0.273 NA
HETATM   26  C   UNL     1      24.338  49.834  48.004  1.00  0.00     0.116 A 
HETATM   27  C   UNL     1      24.279  48.760  48.880  1.00  0.00     0.028 A 
ENDBRANCH  19  22
ENDBRANCH   1  19
TORSDOF 7
ENDMDL
MODEL 6
REMARK VINA RESULT:      -7.6      2.123      9.361
REMARK  7 active torsions:
REMARK  status: ('A' for Active; 'I' for Inactive)
REMARK    1  A    between atoms: C_2  and  C_3 
REMARK    2  A    between atoms: C_3  and  N_4 
REMARK    3  A    between atoms: C_3  and  C_20 
REMARK       I    between atoms: N_4  and  C_5 
REMARK       I    between atoms: C_5  and  N_6 
REMARK    4  A    between atoms: N_6  and  C_7 
REMARK    5  A    between atoms: C_7  and  C_8 
REMARK    6  A    between atoms: C_10  and  O_11 
REMARK    7  A    between atoms: O_11  and  C_12 
ROOT
HETATM    1  N   UNL     1      25.805  46.709  50.646  1.00  0.00    -0.334 N 
HETATM    2  C   UNL     1      25.775  46.554  52.005  1.00  0.00     0.316 C 
HETATM    3  N   UNL     1      25.597  45.238  52.350  1.00  0.00    -0.339 N 
HETATM    4  O   UNL     1      25.903  47.465  52.811  1.00  0.00    -0.247 OA
HETATM    5  H   UNL     1      25.447  45.950  50.092  1.00  0.00     0.165 HD
HETATM    6  H   UNL     1      25.869  44.564  51.653  1.00  0.00     0.164 HD
ENDROOT
BRANCH   3   7
HETATM    7  C   UNL     1      25.719  44.811  53.727  1.00  0.00     0.163 C 
BRANCH   7   8
HETATM    8  C   UNL     1      27.011  44.064  53.924  1.00  0.00    -0.035 A 
HETATM    9  C   UNL     1      28.067  44.651  54.628  1.00  0.00     0.066 A 
HETATM   10  C   UNL     1      29.269  43.969  54.704  1.00  0.00     0.164 A 
HETATM   11  N   UNL     1      29.491  42.759  54.149  1.00  0.00    -0.237 NA
HETATM   12  C   UNL     1      28.454  42.205  53.487  1.00  0.00     0.120 A 
HETATM   13  C   UNL     1      27.215  42.810  53.341  1.00  0.00     0.028 A 
BRANCH  10  14
HETATM   14  O   UNL     1      30.295  44.593  55.386  1.00  0.00    -0.329 OA
BRANCH  14  15
HETATM   15  C   UNL     1      30.230  44.509  56.826  1.00  0.00     0.130 C 
HETATM   16  C   UNL     1      31.532  44.072  57.552  1.00  0.00     0.032 C 
HETATM   17  C   UNL     1      31.218  45.127  58.626  1.00  0.00     0.005 C 
HETATM   18  C   UNL     1      30.383  45.864  57.564  1.00  0.00     0.032 C 
ENDBRANCH  14  15
ENDBRANCH  10  14
ENDBRANCH   7   8
ENDBRANCH   3   7
BRANCH   1  19
HETATM   19  C   UNL     1      25.924  48.015  50.014  1.00  0.00     0.119 C 
BRANCH  19  20
HETATM   20  C   UNL     1      27.208  48.084  49.160  1.00  0.00     0.025 C 
HETATM   21  C   UNL     1      27.931  49.427  49.192  1.00  0.00     0.007 C 
ENDBRANCH  19  20
BRANCH  19  22
HETATM   22  C   UNL     1      24.684  48.419  49.231  1.00  0.00    -0.033 A 
HETATM   23  C   UNL     1      24.661  49.662  48.584  1.00  0.00     0.028 A 
HETATM   24  C   UNL     1      23.543  50.019  47.844  1.00  0.00     0.116 A 
HETATM   25  N   UNL     1      22.456  49.234  47.700  1.00  0.00    -0.273 NA
HETATM   26  C   UNL     1      22.487  48.045  48.335  1.00  0.00     0.116 A 
HETATM   27  C   UNL     1      23.558  47.599  49.096  1.00  0.00     0.028 A 
ENDBRANCH  19  22
ENDBRANCH   1  19
TORSDOF 7
ENDMDL
MODEL 7
REMARK VINA RESULT:      -7.3      4.650      7.862
REMARK  7 active torsions:
REMARK  status: ('A' for Active; 'I' for Inactive)
REMARK    1  A    between atoms: C_2  and  C_3 
REMARK    2  A    between atoms: C_3  and  N_4 
REMARK    3  A    between atoms: C_3  and  C_20 
REMARK       I    between atoms: N_4  and  C_5 
REMARK       I    between atoms: C_5  and  N_6 
REMARK    4  A    between atoms: N_6  and  C_7 
REMARK    5  A    between atoms: C_7  and  C_8 
REMARK    6  A    between atoms: C_10  and  O_11 
REMARK    7  A    between atoms: O_11  and  C_12 
ROOT
HETATM    1  N   UNL     1      26.943  43.856  53.287  1.00  0.00    -0.334 N 
HETATM    2  C   UNL     1      26.323  43.843  52.067  1.00  0.00     0.316 C 
HETATM    3  N   UNL     1      25.851  42.591  51.765  1.00  0.00    -0.339 N 
HETATM    4  O   UNL     1      26.192  44.820  51.344  1.00  0.00    -0.247 OA
HETATM    5  H   UNL     1      27.209  42.967  53.673  1.00  0.00     0.165 HD
HETATM    6  H   UNL     1      25.687  41.985  52.552  1.00  0.00     0.164 HD
ENDROOT
BRANCH   3   7
HETATM    7  C   UNL     1      25.000  42.378  50.614  1.00  0.00     0.163 C 
BRANCH   7   8
HETATM    8  C   UNL     1      25.741  41.601  49.560  1.00  0.00    -0.035 A 
HETATM    9  C   UNL     1      26.973  41.007  49.853  1.00  0.00     0.066 A 
HETATM   10  C   UNL     1      27.665  40.384  48.830  1.00  0.00     0.164 A 
HETATM   11  N   UNL     1      27.222  40.297  47.558  1.00  0.00    -0.237 NA
HETATM   12  C   UNL     1      26.025  40.863  47.300  1.00  0.00     0.120 A 
HETATM   13  C   UNL     1      25.260  41.523  48.250  1.00  0.00     0.028 A 
BRANCH  10  14
HETATM   14  O   UNL     1      28.889  39.832  49.154  1.00  0.00    -0.329 OA
BRANCH  14  15
HETATM   15  C   UNL     1      28.882  38.899  50.256  1.00  0.00     0.130 C 
HETATM   16  C   UNL     1      28.458  37.442  49.924  1.00  0.00     0.032 C 
HETATM   17  C   UNL     1      29.575  36.964  50.867  1.00  0.00     0.005 C 
HETATM   18  C   UNL     1      30.271  38.314  50.621  1.00  0.00     0.032 C 
ENDBRANCH  14  15
ENDBRANCH  10  14
ENDBRANCH   7   8
ENDBRANCH   3   7
BRANCH   1  19
HETATM   19  C   UNL     1      27.585  45.049  53.820  1.00  0.00     0.119 C 
BRANCH  19  20
HETATM   20  C   UNL     1      26.560  45.920  54.576  1.00  0.00     0.025 C 
HETATM   21  C   UNL     1      26.280  47.279  53.945  1.00  0.00     0.007 C 
ENDBRANCH  19  20
BRANCH  19  22
HETATM   22  C   UNL     1      28.818  44.743  54.658  1.00  0.00    -0.033 A 
HETATM   23  C   UNL     1      29.227  45.666  55.631  1.00  0.00     0.028 A 
HETATM   24  C   UNL     1      30.332  45.375  56.418  1.00  0.00     0.116 A 
HETATM   25  N   UNL     1      31.052  44.240  56.309  1.00  0.00    -0.273 NA
HETATM   26  C   UNL     1      30.654  43.365  55.365  1.00  0.00     0.116 A 
HETATM   27  C   UNL     1      29.563  43.565  54.531  1.00  0.00     0.028 A 
ENDBRANCH  19  22
ENDBRANCH   1  19
TORSDOF 7
ENDMDL
MODEL 8
REMARK VINA RESULT:      -7.3      3.009      9.908
REMARK  7 active torsions:
REMARK  status: ('A' for Active; 'I' for Inactive)
REMARK    1  A    between atoms: C_2  and  C_3 
REMARK    2  A    between atoms: C_3  and  N_4 
REMARK    3  A    between atoms: C_3  and  C_20 
REMARK       I    between atoms: N_4  and  C_5 
REMARK       I    between atoms: C_5  and  N_6 
REMARK    4  A    between atoms: N_6  and  C_7 
REMARK    5  A    between atoms: C_7  and  C_8 
REMARK    6  A    between atoms: C_10  and  O_11 
REMARK    7  A    between atoms: O_11  and  C_12 
ROOT
HETATM    1  N   UNL     1      21.218  48.422  49.445  1.00  0.00    -0.334 N 
HETATM    2  C   UNL     1      22.468  48.151  48.960  1.00  0.00     0.316 C 
HETATM    3  N   UNL     1      23.371  47.991  49.980  1.00  0.00    -0.339 N 
HETATM    4  O   UNL     1      22.745  48.048  47.774  1.00  0.00    -0.247 OA
HETATM    5  H   UNL     1      21.156  48.726  50.402  1.00  0.00     0.165 HD
HETATM    6  H   UNL     1      22.982  47.735  50.872  1.00  0.00     0.164 HD
ENDROOT
BRANCH   3   7
HETATM    7  C   UNL     1      24.712  47.516  49.714  1.00  0.00     0.163 C 
BRANCH   7   8
HETATM    8  C   UNL     1      24.968  46.241  50.473  1.00  0.00    -0.035 A 
HETATM    9  C   UNL     1      26.145  46.081  51.210  1.00  0.00     0.066 A 
HETATM   10  C   UNL     1      26.385  44.858  51.814  1.00  0.00     0.164 A 
HETATM   11  N   UNL     1      25.546  43.804  51.749  1.00  0.00    -0.237 NA
HETATM   12  C   UNL     1      24.410  43.984  51.045  1.00  0.00     0.120 A 
HETATM   13  C   UNL     1      24.082  45.163  50.392  1.00  0.00     0.028 A 
BRANCH  10  14
HETATM   14  O   UNL     1      27.570  44.732  52.511  1.00  0.00    -0.329 OA
BRANCH  14  15
HETATM   15  C   UNL     1      27.459  44.800  53.949  1.00  0.00     0.130 C 
HETATM   16  C   UNL     1      28.743  44.467  54.758  1.00  0.00     0.032 C 
HETATM   17  C   UNL     1      28.378  45.625  55.702  1.00  0.00     0.005 C 
HETATM   18  C   UNL     1      27.567  46.229  54.543  1.00  0.00     0.032 C 
ENDBRANCH  14  15
ENDBRANCH  10  14
ENDBRANCH   7   8
ENDBRANCH   3   7
BRANCH   1  19
HETATM   19  C   UNL     1      20.086  48.693  48.572  1.00  0.00     0.119 C 
BRANCH  19  20
HETATM   20  C   UNL     1      19.091  47.514  48.599  1.00  0.00     0.025 C 
HETATM   21  C   UNL     1      19.425  46.367  47.651  1.00  0.00     0.007 C 
ENDBRANCH  19  20
BRANCH  19  22
HETATM   22  C   UNL     1      19.413  50.028  48.856  1.00  0.00    -0.033 A 
HETATM   23  C   UNL     1      19.907  51.186  48.239  1.00  0.00     0.028 A 
HETATM   24  C   UNL     1      19.276  52.399  48.472  1.00  0.00     0.116 A 
HETATM   25  N   UNL     1      18.195  52.542  49.266  1.00  0.00    -0.273 NA
HETATM   26  C   UNL     1      17.735  51.423  49.861  1.00  0.00     0.116 A 
HETATM   27  C   UNL     1      18.297  50.166  49.689  1.00  0.00     0.028 A 
ENDBRANCH  19  22
ENDBRANCH   1  19
TORSDOF 7
ENDMDL
MODEL 9
REMARK VINA RESULT:      -7.2      2.906      9.690
REMARK  7 active torsions:
REMARK  status: ('A' for Active; 'I' for Inactive)
REMARK    1  A    between atoms: C_2  and  C_3 
REMARK    2  A    between atoms: C_3  and  N_4 
REMARK    3  A    between atoms: C_3  and  C_20 
REMARK       I    between atoms: N_4  and  C_5 
REMARK       I    between atoms: C_5  and  N_6 
REMARK    4  A    between atoms: N_6  and  C_7 
REMARK    5  A    between atoms: C_7  and  C_8 
REMARK    6  A    between atoms: C_10  and  O_11 
REMARK    7  A    between atoms: O_11  and  C_12 
ROOT
HETATM    1  N   UNL     1      23.085  47.354  49.096  1.00  0.00    -0.334 N 
HETATM    2  C   UNL     1      24.354  47.411  49.605  1.00  0.00     0.316 C 
HETATM    3  N   UNL     1      24.969  46.186  49.540  1.00  0.00    -0.339 N 
HETATM    4  O   UNL     1      24.879  48.423  50.047  1.00  0.00    -0.247 OA
HETATM    5  H   UNL     1      22.675  46.441  48.994  1.00  0.00     0.165 HD
HETATM    6  H   UNL     1      24.604  45.550  48.850  1.00  0.00     0.164 HD
ENDROOT
BRANCH   3   7
HETATM    7  C   UNL     1      26.376  46.048  49.848  1.00  0.00     0.163 C 
BRANCH   7   8
HETATM    8  C   UNL     1      26.641  44.698  50.458  1.00  0.00    -0.035 A 
HETATM    9  C   UNL     1      27.010  44.588  51.802  1.00  0.00     0.066 A 
HETATM   10  C   UNL     1      27.338  43.337  52.297  1.00  0.00     0.164 A 
HETATM   11  N   UNL     1      27.313  42.203  51.566  1.00  0.00    -0.237 NA
HETATM   12  C   UNL     1      26.941  42.329  50.276  1.00  0.00     0.120 A 
HETATM   13  C   UNL     1      26.607  43.537  49.680  1.00  0.00     0.028 A 
BRANCH  10  14
HETATM   14  O   UNL     1      27.721  43.274  53.622  1.00  0.00    -0.329 OA
BRANCH  14  15
HETATM   15  C   UNL     1      28.992  43.883  53.935  1.00  0.00     0.130 C 
HETATM   16  C   UNL     1      29.033  44.786  55.198  1.00  0.00     0.032 C 
HETATM   17  C   UNL     1      30.409  44.177  55.518  1.00  0.00     0.005 C 
HETATM   18  C   UNL     1      29.991  42.958  54.677  1.00  0.00     0.032 C 
ENDBRANCH  14  15
ENDBRANCH  10  14
ENDBRANCH   7   8
ENDBRANCH   3   7
BRANCH   1  19
HETATM   19  C   UNL     1      22.192  48.503  49.098  1.00  0.00     0.119 C 
BRANCH  19  20
HETATM   20  C   UNL     1      22.607  49.509  48.004  1.00  0.00     0.025 C 
HETATM   21  C   UNL     1      22.540  50.976  48.418  1.00  0.00     0.007 C 
ENDBRANCH  19  20
BRANCH  19  22
HETATM   22  C   UNL     1      20.722  48.123  49.011  1.00  0.00    -0.033 A 
HETATM   23  C   UNL     1      20.348  47.022  48.228  1.00  0.00     0.028 A 
HETATM   24  C   UNL     1      19.011  46.654  48.171  1.00  0.00     0.116 A 
HETATM   25  N   UNL     1      18.028  47.296  48.835  1.00  0.00    -0.273 NA
HETATM   26  C   UNL     1      18.399  48.359  49.578  1.00  0.00     0.116 A 
HETATM   27  C   UNL     1      19.709  48.802  49.697  1.00  0.00     0.028 A 
ENDBRANCH  19  22
ENDBRANCH   1  19
TORSDOF 7
ENDMDL
MODEL 10
REMARK VINA RESULT:      -7.1      2.482      3.682
REMARK  7 active torsions:
REMARK  status: ('A' for Active; 'I' for Inactive)
REMARK    1  A    between atoms: C_2  and  C_3 
REMARK    2  A    between atoms: C_3  and  N_4 
REMARK    3  A    between atoms: C_3  and  C_20 
REMARK       I    between atoms: N_4  and  C_5 
REMARK       I    between atoms: C_5  and  N_6 
REMARK    4  A    between atoms: N_6  and  C_7 
REMARK    5  A    between atoms: C_7  and  C_8 
REMARK    6  A    between atoms: C_10  and  O_11 
REMARK    7  A    between atoms: O_11  and  C_12 
ROOT
HETATM    1  N   UNL     1      26.690  43.622  52.076  1.00  0.00    -0.334 N 
HETATM    2  C   UNL     1      25.439  43.656  51.522  1.00  0.00     0.316 C 
HETATM    3  N   UNL     1      25.506  43.755  50.155  1.00  0.00    -0.339 N 
HETATM    4  O   UNL     1      24.397  43.593  52.157  1.00  0.00    -0.247 OA
HETATM    5  H   UNL     1      27.454  43.927  51.497  1.00  0.00     0.165 HD
HETATM    6  H   UNL     1      26.363  43.434  49.735  1.00  0.00     0.164 HD
ENDROOT
BRANCH   3   7
HETATM    7  C   UNL     1      24.314  43.620  49.345  1.00  0.00     0.163 C 
BRANCH   7   8
HETATM    8  C   UNL     1      23.684  44.969  49.124  1.00  0.00    -0.035 A 
HETATM    9  C   UNL     1      24.409  46.138  49.374  1.00  0.00     0.066 A 
HETATM   10  C   UNL     1      23.761  47.355  49.250  1.00  0.00     0.164 A 
HETATM   11  N   UNL     1      22.468  47.492  48.888  1.00  0.00    -0.237 NA
HETATM   12  C   UNL     1      21.792  46.352  48.637  1.00  0.00     0.120 A 
HETATM   13  C   UNL     1      22.343  45.084  48.746  1.00  0.00     0.028 A 
BRANCH  10  14
HETATM   14  O   UNL     1      24.504  48.485  49.530  1.00  0.00    -0.329 OA
BRANCH  14  15
HETATM   15  C   UNL     1      25.795  48.560  48.889  1.00  0.00     0.130 C 
HETATM   16  C   UNL     1      26.239  49.961  48.389  1.00  0.00     0.032 C 
HETATM   17  C   UNL     1      27.653  49.630  48.895  1.00  0.00     0.005 C 
HETATM   18  C   UNL     1      27.001  48.626  49.862  1.00  0.00     0.032 C 
ENDBRANCH  14  15
ENDBRANCH  10  14
ENDBRANCH   7   8
ENDBRANCH   3   7
BRANCH   1  19
HETATM   19  C   UNL     1      26.903  43.579  53.515  1.00  0.00     0.119 C 
BRANCH  19  20
HETATM   20  C   UNL     1      27.950  42.503  53.872  1.00  0.00     0.025 C 
HETATM   21  C   UNL     1      28.512  41.731  52.683  1.00  0.00     0.007 C 
ENDBRANCH  19  20
BRANCH  19  22
HETATM   22  C   UNL     1      27.238  44.937  54.114  1.00  0.00    -0.033 A 
HETATM   23  C   UNL     1      28.498  45.135  54.695  1.00  0.00     0.028 A 
HETATM   24  C   UNL     1      28.817  46.381  55.214  1.00  0.00     0.116 A 
HETATM   25  N   UNL     1      27.979  47.438  55.194  1.00  0.00    -0.273 NA
HETATM   26  C   UNL     1      26.767  47.233  54.640  1.00  0.00     0.116 A 
HETATM   27  C   UNL     1      26.357  46.025  54.095  1.00  0.00     0.028 A 
ENDBRANCH  19  22
ENDBRANCH   1  19
TORSDOF 7
ENDMDL
