MODEL 1
REMARK VINA RESULT:      -8.9      0.000      0.000
REMARK  6 active torsions:
REMARK  status: ('A' for Active; 'I' for Inactive)
REMARK    1  A    between atoms: C_2  and  O_3 
REMARK    2  A    between atoms: O_3  and  C_4 
REMARK    3  A    between atoms: C_9  and  S_10 
REMARK    4  A    between atoms: S_10  and  C_11 
REMARK    5  A    between atoms: C_11  and  C_12 
REMARK       I    between atoms: C_12  and  N_13 
REMARK    6  A    between atoms: N_13  and  C_14 
ROOT
HETATM    1  C   UNL     1      29.639  45.278  55.613  1.00  0.00     0.069 A 
HETATM    2  C   UNL     1      29.399  44.229  54.727  1.00  0.00     0.050 A 
HETATM    3  C   UNL     1      28.261  44.244  53.894  1.00  0.00    -0.004 A 
HETATM    4  C   UNL     1      27.347  45.311  53.952  1.00  0.00     0.068 A 
HETATM    5  N   UNL     1      26.253  45.362  53.175  1.00  0.00    -0.241 NA
HETATM    6  C   UNL     1      26.021  44.351  52.301  1.00  0.00     0.100 A 
HETATM    7  C   UNL     1      26.874  43.260  52.151  1.00  0.00    -0.026 A 
HETATM    8  C   UNL     1      26.627  42.128  51.199  1.00  0.00     0.051 C 
HETATM    9  C   UNL     1      28.000  43.213  52.983  1.00  0.00     0.023 A 
HETATM   10  C   UNL     1      27.599  46.339  54.847  1.00  0.00     0.035 A 
HETATM   11  C   UNL     1      28.730  46.331  55.670  1.00  0.00     0.039 A 
ENDROOT
BRANCH   6  12
HETATM   12  S   UNL     1      24.516  44.579  51.379  1.00  0.00    -0.096 SA
BRANCH  12  13
HETATM   13  C   UNL     1      25.107  45.681  50.039  1.00  0.00     0.142 C 
HETATM   14  C   UNL     1      26.631  45.680  50.046  1.00  0.00     0.031 C 
BRANCH  13  15
HETATM   15  C   UNL     1      24.592  47.119  50.143  1.00  0.00     0.236 C 
HETATM   16  N   UNL     1      23.826  47.535  49.070  1.00  0.00    -0.326 N 
HETATM   17  H   UNL     1      23.920  46.973  48.228  1.00  0.00     0.169 HD
HETATM   18  O   UNL     1      24.815  47.765  51.165  1.00  0.00    -0.272 OA
BRANCH  16  19
HETATM   19  C   UNL     1      23.141  48.756  48.921  1.00  0.00     0.034 A 
HETATM   20  C   UNL     1      23.758  49.960  48.580  1.00  0.00     0.029 A 
HETATM   21  C   UNL     1      23.005  51.132  48.456  1.00  0.00     0.002 A 
HETATM   22  C   UNL     1      21.630  51.110  48.677  1.00  0.00     0.000 A 
HETATM   23  C   UNL     1      21.006  49.915  49.023  1.00  0.00     0.002 A 
HETATM   24  C   UNL     1      21.758  48.744  49.146  1.00  0.00     0.029 A 
ENDBRANCH  16  19
ENDBRANCH  13  15
ENDBRANCH  12  13
ENDBRANCH   6  12
BRANCH   1  25
HETATM   25  O   UNL     1      30.705  45.392  56.460  1.00  0.00    -0.351 OA
BRANCH  25  26
HETATM   26  C   UNL     1      30.793  44.453  57.530  1.00  0.00     0.171 C 
HETATM   27  C   UNL     1      31.852  43.427  57.168  1.00  0.00     0.034 C 
ENDBRANCH  25  26
ENDBRANCH   1  25
TORSDOF 6
ENDMDL
MODEL 2
REMARK VINA RESULT:      -8.7      2.101      2.895
REMARK  6 active torsions:
REMARK  status: ('A' for Active; 'I' for Inactive)
REMARK    1  A    between atoms: C_2  and  O_3 
REMARK    2  A    between atoms: O_3  and  C_4 
REMARK    3  A    between atoms: C_9  and  S_10 
REMARK    4  A    between atoms: S_10  and  C_11 
REMARK    5  A    between atoms: C_11  and  C_12 
REMARK       I    between atoms: C_12  and  N_13 
REMARK    6  A    between atoms: N_13  and  C_14 
ROOT
HETATM    1  C   UNL     1      29.401  44.843  55.190  1.00  0.00     0.069 A 
HETATM    2  C   UNL     1      29.603  43.658  54.485  1.00  0.00     0.050 A 
HETATM    3  C   UNL     1      28.728  43.291  53.442  1.00  0.00    -0.004 A 
HETATM    4  C   UNL     1      27.635  44.108  53.104  1.00  0.00     0.068 A 
HETATM    5  N   UNL     1      26.781  43.793  52.116  1.00  0.00    -0.241 NA
HETATM    6  C   UNL     1      26.980  42.648  51.418  1.00  0.00     0.100 A 
HETATM    7  C   UNL     1      28.043  41.780  51.659  1.00  0.00    -0.026 A 
HETATM    8  C   UNL     1      28.272  40.505  50.903  1.00  0.00     0.051 C 
HETATM    9  C   UNL     1      28.913  42.114  52.704  1.00  0.00     0.023 A 
HETATM   10  C   UNL     1      27.447  45.277  53.824  1.00  0.00     0.035 A 
HETATM   11  C   UNL     1      28.316  45.649  54.855  1.00  0.00     0.039 A 
ENDROOT
BRANCH   6  12
HETATM   12  S   UNL     1      25.738  42.386  50.170  1.00  0.00    -0.096 SA
BRANCH  12  13
HETATM   13  C   UNL     1      24.571  43.740  50.568  1.00  0.00     0.142 C 
HETATM   14  C   UNL     1      23.148  43.203  50.458  1.00  0.00     0.031 C 
BRANCH  13  15
HETATM   15  C   UNL     1      24.725  44.977  49.679  1.00  0.00     0.236 C 
HETATM   16  N   UNL     1      25.314  46.062  50.298  1.00  0.00    -0.326 N 
HETATM   17  H   UNL     1      25.318  46.030  51.315  1.00  0.00     0.169 HD
HETATM   18  O   UNL     1      24.400  44.909  48.494  1.00  0.00    -0.272 OA
BRANCH  16  19
HETATM   19  C   UNL     1      25.673  47.296  49.722  1.00  0.00     0.034 A 
HETATM   20  C   UNL     1      24.754  48.257  49.300  1.00  0.00     0.029 A 
HETATM   21  C   UNL     1      25.195  49.457  48.731  1.00  0.00     0.002 A 
HETATM   22  C   UNL     1      26.557  49.702  48.577  1.00  0.00     0.000 A 
HETATM   23  C   UNL     1      27.481  48.747  48.990  1.00  0.00     0.002 A 
HETATM   24  C   UNL     1      27.041  47.550  49.558  1.00  0.00     0.029 A 
ENDBRANCH  16  19
ENDBRANCH  13  15
ENDBRANCH  12  13
ENDBRANCH   6  12
BRANCH   1  25
HETATM   25  O   UNL     1      30.178  45.321  56.208  1.00  0.00    -0.351 OA
BRANCH  25  26
HETATM   26  C   UNL     1      29.507  45.917  57.317  1.00  0.00     0.171 C 
HETATM   27  C   UNL     1      30.253  45.529  58.581  1.00  0.00     0.034 C 
ENDBRANCH  25  26
ENDBRANCH   1  25
TORSDOF 6
ENDMDL
MODEL 3
REMARK VINA RESULT:      -8.6      1.184      2.085
REMARK  6 active torsions:
REMARK  status: ('A' for Active; 'I' for Inactive)
REMARK    1  A    between atoms: C_2  and  O_3 
REMARK    2  A    between atoms: O_3  and  C_4 
REMARK    3  A    between atoms: C_9  and  S_10 
REMARK    4  A    between atoms: S_10  and  C_11 
REMARK    5  A    between atoms: C_11  and  C_12 
REMARK       I    between atoms: C_12  and  N_13 
REMARK    6  A    between atoms: N_13  and  C_14 
ROOT
HETATM    1  C   UNL     1      30.400  44.073  55.431  1.00  0.00     0.069 A 
HETATM    2  C   UNL     1      29.582  45.201  55.385  1.00  0.00     0.050 A 
HETATM    3  C   UNL     1      28.431  45.215  54.570  1.00  0.00    -0.004 A 
HETATM    4  C   UNL     1      28.096  44.098  53.786  1.00  0.00     0.068 A 
HETATM    5  N   UNL     1      27.008  44.073  52.999  1.00  0.00    -0.241 NA
HETATM    6  C   UNL     1      26.202  45.163  52.960  1.00  0.00     0.100 A 
HETATM    7  C   UNL     1      26.433  46.312  53.713  1.00  0.00    -0.026 A 
HETATM    8  C   UNL     1      25.558  47.529  53.673  1.00  0.00     0.051 C 
HETATM    9  C   UNL     1      27.582  46.328  54.513  1.00  0.00     0.023 A 
HETATM   10  C   UNL     1      28.927  42.990  53.839  1.00  0.00     0.035 A 
HETATM   11  C   UNL     1      30.066  42.969  54.651  1.00  0.00     0.039 A 
ENDROOT
BRANCH   6  12
HETATM   12  S   UNL     1      24.829  44.955  51.847  1.00  0.00    -0.096 SA
BRANCH  12  13
HETATM   13  C   UNL     1      25.572  45.551  50.282  1.00  0.00     0.142 C 
HETATM   14  C   UNL     1      27.082  45.347  50.352  1.00  0.00     0.031 C 
BRANCH  13  15
HETATM   15  C   UNL     1      25.265  47.017  49.964  1.00  0.00     0.236 C 
HETATM   16  N   UNL     1      24.094  47.220  49.259  1.00  0.00    -0.326 N 
HETATM   17  H   UNL     1      23.723  46.397  48.790  1.00  0.00     0.169 HD
HETATM   18  O   UNL     1      26.005  47.895  50.404  1.00  0.00    -0.272 OA
BRANCH  16  19
HETATM   19  C   UNL     1      23.501  48.446  48.905  1.00  0.00     0.034 A 
HETATM   20  C   UNL     1      24.195  49.514  48.336  1.00  0.00     0.029 A 
HETATM   21  C   UNL     1      23.530  50.703  48.018  1.00  0.00     0.002 A 
HETATM   22  C   UNL     1      22.167  50.835  48.273  1.00  0.00     0.000 A 
HETATM   23  C   UNL     1      21.466  49.778  48.846  1.00  0.00     0.002 A 
HETATM   24  C   UNL     1      22.131  48.590  49.162  1.00  0.00     0.029 A 
ENDBRANCH  16  19
ENDBRANCH  13  15
ENDBRANCH  12  13
ENDBRANCH   6  12
BRANCH   1  25
HETATM   25  O   UNL     1      31.529  43.923  56.185  1.00  0.00    -0.351 OA
BRANCH  25  26
HETATM   26  C   UNL     1      31.360  43.516  57.541  1.00  0.00     0.171 C 
HETATM   27  C   UNL     1      31.203  44.764  58.390  1.00  0.00     0.034 C 
ENDBRANCH  25  26
ENDBRANCH   1  25
TORSDOF 6
ENDMDL
MODEL 4
REMARK VINA RESULT:      -8.5      1.974      9.227
REMARK  6 active torsions:
REMARK  status: ('A' for Active; 'I' for Inactive)
REMARK    1  A    between atoms: C_2  and  O_3 
REMARK    2  A    between atoms: O_3  and  C_4 
REMARK    3  A    between atoms: C_9  and  S_10 
REMARK    4  A    between atoms: S_10  and  C_11 
REMARK    5  A    between atoms: C_11  and  C_12 
REMARK       I    between atoms: C_12  and  N_13 
REMARK    6  A    between atoms: N_13  and  C_14 
ROOT
HETATM    1  C   UNL     1      23.552  49.051  48.431  1.00  0.00     0.069 A 
HETATM    2  C   UNL     1      23.192  47.763  48.825  1.00  0.00     0.050 A 
HETATM    3  C   UNL     1      24.128  46.922  49.461  1.00  0.00    -0.004 A 
HETATM    4  C   UNL     1      25.441  47.366  49.699  1.00  0.00     0.068 A 
HETATM    5  N   UNL     1      26.360  46.596  50.304  1.00  0.00    -0.241 NA
HETATM    6  C   UNL     1      26.011  45.347  50.701  1.00  0.00     0.100 A 
HETATM    7  C   UNL     1      24.733  44.820  50.531  1.00  0.00    -0.026 A 
HETATM    8  C   UNL     1      24.333  43.438  50.953  1.00  0.00     0.051 C 
HETATM    9  C   UNL     1      23.792  45.629  49.881  1.00  0.00     0.023 A 
HETATM   10  C   UNL     1      25.782  48.646  49.292  1.00  0.00     0.035 A 
HETATM   11  C   UNL     1      24.854  49.486  48.666  1.00  0.00     0.039 A 
ENDROOT
BRANCH   6  12
HETATM   12  S   UNL     1      27.363  44.469  51.456  1.00  0.00    -0.096 SA
BRANCH  12  13
HETATM   13  C   UNL     1      26.892  44.584  53.223  1.00  0.00     0.142 C 
HETATM   14  C   UNL     1      26.646  46.049  53.566  1.00  0.00     0.031 C 
BRANCH  13  15
HETATM   15  C   UNL     1      27.930  43.998  54.183  1.00  0.00     0.236 C 
HETATM   16  N   UNL     1      28.725  44.935  54.815  1.00  0.00    -0.326 N 
HETATM   17  H   UNL     1      28.738  45.854  54.380  1.00  0.00     0.169 HD
HETATM   18  O   UNL     1      27.944  42.784  54.387  1.00  0.00    -0.272 OA
BRANCH  16  19
HETATM   19  C   UNL     1      29.694  44.715  55.812  1.00  0.00     0.034 A 
HETATM   20  C   UNL     1      30.643  43.693  55.767  1.00  0.00     0.029 A 
HETATM   21  C   UNL     1      31.569  43.540  56.803  1.00  0.00     0.002 A 
HETATM   22  C   UNL     1      31.550  44.404  57.895  1.00  0.00     0.000 A 
HETATM   23  C   UNL     1      30.604  45.423  57.953  1.00  0.00     0.002 A 
HETATM   24  C   UNL     1      29.680  45.576  56.917  1.00  0.00     0.029 A 
ENDBRANCH  16  19
ENDBRANCH  13  15
ENDBRANCH  12  13
ENDBRANCH   6  12
BRANCH   1  25
HETATM   25  O   UNL     1      22.742  49.966  47.821  1.00  0.00    -0.351 OA
BRANCH  25  26
HETATM   26  C   UNL     1      21.351  49.916  48.132  1.00  0.00     0.171 C 
HETATM   27  C   UNL     1      21.103  50.819  49.326  1.00  0.00     0.034 C 
ENDBRANCH  25  26
ENDBRANCH   1  25
TORSDOF 6
ENDMDL
MODEL 5
REMARK VINA RESULT:      -8.5      2.727      9.706
REMARK  6 active torsions:
REMARK  status: ('A' for Active; 'I' for Inactive)
REMARK    1  A    between atoms: C_2  and  O_3 
REMARK    2  A    between atoms: O_3  and  C_4 
REMARK    3  A    between atoms: C_9  and  S_10 
REMARK    4  A    between atoms: S_10  and  C_11 
REMARK    5  A    between atoms: C_11  and  C_12 
REMARK       I    between atoms: C_12  and  N_13 
REMARK    6  A    between atoms: N_13  and  C_14 
ROOT
HETATM    1  C   UNL     1      20.438  50.552  48.216  1.00  0.00     0.069 A 
HETATM    2  C   UNL     1      20.646  49.177  48.131  1.00  0.00     0.050 A 
HETATM    3  C   UNL     1      21.836  48.603  48.625  1.00  0.00    -0.004 A 
HETATM    4  C   UNL     1      22.833  49.409  49.202  1.00  0.00     0.068 A 
HETATM    5  N   UNL     1      23.977  48.900  49.686  1.00  0.00    -0.241 NA
HETATM    6  C   UNL     1      24.180  47.561  49.617  1.00  0.00     0.100 A 
HETATM    7  C   UNL     1      23.248  46.673  49.084  1.00  0.00    -0.026 A 
HETATM    8  C   UNL     1      23.461  45.191  48.991  1.00  0.00     0.051 C 
HETATM    9  C   UNL     1      22.068  47.222  48.568  1.00  0.00     0.023 A 
HETATM   10  C   UNL     1      22.610  50.775  49.269  1.00  0.00     0.035 A 
HETATM   11  C   UNL     1      21.429  51.348  48.786  1.00  0.00     0.039 A 
ENDROOT
BRANCH   6  12
HETATM   12  S   UNL     1      25.759  47.076  50.281  1.00  0.00    -0.096 SA
BRANCH  12  13
HETATM   13  C   UNL     1      25.246  46.389  51.900  1.00  0.00     0.142 C 
HETATM   14  C   UNL     1      25.913  47.200  53.005  1.00  0.00     0.031 C 
BRANCH  13  15
HETATM   15  C   UNL     1      25.577  44.905  52.080  1.00  0.00     0.236 C 
HETATM   16  N   UNL     1      26.924  44.603  52.021  1.00  0.00    -0.326 N 
HETATM   17  H   UNL     1      27.508  45.318  51.594  1.00  0.00     0.169 HD
HETATM   18  O   UNL     1      24.670  44.113  52.333  1.00  0.00    -0.272 OA
BRANCH  16  19
HETATM   19  C   UNL     1      27.541  43.357  52.242  1.00  0.00     0.034 A 
HETATM   20  C   UNL     1      27.592  42.333  51.296  1.00  0.00     0.029 A 
HETATM   21  C   UNL     1      28.221  41.121  51.599  1.00  0.00     0.002 A 
HETATM   22  C   UNL     1      28.798  40.922  52.850  1.00  0.00     0.000 A 
HETATM   23  C   UNL     1      28.747  41.935  53.803  1.00  0.00     0.002 A 
HETATM   24  C   UNL     1      28.120  43.146  53.501  1.00  0.00     0.029 A 
ENDBRANCH  16  19
ENDBRANCH  13  15
ENDBRANCH  12  13
ENDBRANCH   6  12
BRANCH   1  25
HETATM   25  O   UNL     1      19.331  51.230  47.791  1.00  0.00    -0.351 OA
BRANCH  25  26
HETATM   26  C   UNL     1      19.033  52.467  48.437  1.00  0.00     0.171 C 
HETATM   27  C   UNL     1      18.127  52.173  49.619  1.00  0.00     0.034 C 
ENDBRANCH  25  26
ENDBRANCH   1  25
TORSDOF 6
ENDMDL
MODEL 6
REMARK VINA RESULT:      -8.4      2.030      9.228
REMARK  6 active torsions:
REMARK  status: ('A' for Active; 'I' for Inactive)
REMARK    1  A    between atoms: C_2  and  O_3 
REMARK    2  A    between atoms: O_3  and  C_4 
REMARK    3  A    between atoms: C_9  and  S_10 
REMARK    4  A    between atoms: S_10  and  C_11 
REMARK    5  A    between atoms: C_11  and  C_12 
REMARK       I    between atoms: C_12  and  N_13 
REMARK    6  A    between atoms: N_13  and  C_14 
ROOT
HETATM    1  C   UNL     1      23.370  47.558  48.816  1.00  0.00     0.069 A 
HETATM    2  C   UNL     1      24.149  47.932  49.910  1.00  0.00     0.050 A 
HETATM    3  C   UNL     1      24.740  46.952  50.734  1.00  0.00    -0.004 A 
HETATM    4  C   UNL     1      24.544  45.585  50.473  1.00  0.00     0.068 A 
HETATM    5  N   UNL     1      25.091  44.623  51.233  1.00  0.00    -0.241 NA
HETATM    6  C   UNL     1      25.861  44.981  52.291  1.00  0.00     0.100 A 
HETATM    7  C   UNL     1      26.134  46.306  52.624  1.00  0.00    -0.026 A 
HETATM    8  C   UNL     1      26.973  46.719  53.795  1.00  0.00     0.051 C 
HETATM    9  C   UNL     1      25.540  47.296  51.832  1.00  0.00     0.023 A 
HETATM   10  C   UNL     1      23.759  45.234  49.386  1.00  0.00     0.035 A 
HETATM   11  C   UNL     1      23.176  46.203  48.561  1.00  0.00     0.039 A 
ENDROOT
BRANCH   6  12
HETATM   12  S   UNL     1      26.475  43.575  53.193  1.00  0.00    -0.096 SA
BRANCH  12  13
HETATM   13  C   UNL     1      28.087  43.320  52.362  1.00  0.00     0.142 C 
HETATM   14  C   UNL     1      28.099  41.928  51.740  1.00  0.00     0.031 C 
BRANCH  13  15
HETATM   15  C   UNL     1      29.297  43.481  53.287  1.00  0.00     0.236 C 
HETATM   16  N   UNL     1      28.996  43.943  54.554  1.00  0.00    -0.326 N 
HETATM   17  H   UNL     1      28.086  44.385  54.648  1.00  0.00     0.169 HD
HETATM   18  O   UNL     1      30.408  43.132  52.890  1.00  0.00    -0.272 OA
BRANCH  16  19
HETATM   19  C   UNL     1      29.871  44.101  55.646  1.00  0.00     0.034 A 
HETATM   20  C   UNL     1      30.819  43.152  56.031  1.00  0.00     0.029 A 
HETATM   21  C   UNL     1      31.648  43.385  57.133  1.00  0.00     0.002 A 
HETATM   22  C   UNL     1      31.531  44.566  57.862  1.00  0.00     0.000 A 
HETATM   23  C   UNL     1      30.585  45.517  57.489  1.00  0.00     0.002 A 
HETATM   24  C   UNL     1      29.758  45.284  56.388  1.00  0.00     0.029 A 
ENDBRANCH  16  19
ENDBRANCH  13  15
ENDBRANCH  12  13
ENDBRANCH   6  12
BRANCH   1  25
HETATM   25  O   UNL     1      22.756  48.402  47.934  1.00  0.00    -0.351 OA
BRANCH  25  26
HETATM   26  C   UNL     1      21.370  48.184  47.679  1.00  0.00     0.171 C 
HETATM   27  C   UNL     1      20.595  49.348  48.269  1.00  0.00     0.034 C 
ENDBRANCH  25  26
ENDBRANCH   1  25
TORSDOF 6
ENDMDL
MODEL 7
REMARK VINA RESULT:      -8.3      2.932     10.332
REMARK  6 active torsions:
REMARK  status: ('A' for Active; 'I' for Inactive)
REMARK    1  A    between atoms: C_2  and  O_3 
REMARK    2  A    between atoms: O_3  and  C_4 
REMARK    3  A    between atoms: C_9  and  S_10 
REMARK    4  A    between atoms: S_10  and  C_11 
REMARK    5  A    between atoms: C_11  and  C_12 
REMARK       I    between atoms: C_12  and  N_13 
REMARK    6  A    between atoms: N_13  and  C_14 
ROOT
HETATM    1  C   UNL     1      18.593  51.589  49.670  1.00  0.00     0.069 A 
HETATM    2  C   UNL     1      19.862  51.840  49.151  1.00  0.00     0.050 A 
HETATM    3  C   UNL     1      20.793  50.791  49.004  1.00  0.00    -0.004 A 
HETATM    4  C   UNL     1      20.460  49.480  49.387  1.00  0.00     0.068 A 
HETATM    5  N   UNL     1      21.318  48.455  49.261  1.00  0.00    -0.241 NA
HETATM    6  C   UNL     1      22.550  48.691  48.744  1.00  0.00     0.100 A 
HETATM    7  C   UNL     1      22.971  49.948  48.315  1.00  0.00    -0.026 A 
HETATM    8  C   UNL     1      24.332  50.228  47.752  1.00  0.00     0.051 C 
HETATM    9  C   UNL     1      22.071  51.009  48.472  1.00  0.00     0.023 A 
HETATM   10  C   UNL     1      19.196  49.254  49.909  1.00  0.00     0.035 A 
HETATM   11  C   UNL     1      18.267  50.290  50.051  1.00  0.00     0.039 A 
ENDROOT
BRANCH   6  12
HETATM   12  S   UNL     1      23.554  47.223  48.678  1.00  0.00    -0.096 SA
BRANCH  12  13
HETATM   13  C   UNL     1      24.531  47.414  50.216  1.00  0.00     0.142 C 
HETATM   14  C   UNL     1      25.866  48.061  49.866  1.00  0.00     0.031 C 
BRANCH  13  15
HETATM   15  C   UNL     1      24.775  46.102  50.966  1.00  0.00     0.236 C 
HETATM   16  N   UNL     1      25.871  46.115  51.807  1.00  0.00    -0.326 N 
HETATM   17  H   UNL     1      26.543  46.858  51.631  1.00  0.00     0.169 HD
HETATM   18  O   UNL     1      23.971  45.179  50.841  1.00  0.00    -0.272 OA
BRANCH  16  19
HETATM   19  C   UNL     1      26.293  45.104  52.691  1.00  0.00     0.034 A 
HETATM   20  C   UNL     1      25.722  44.873  53.943  1.00  0.00     0.029 A 
HETATM   21  C   UNL     1      26.205  43.848  54.764  1.00  0.00     0.002 A 
HETATM   22  C   UNL     1      27.266  43.052  54.342  1.00  0.00     0.000 A 
HETATM   23  C   UNL     1      27.847  43.278  53.098  1.00  0.00     0.002 A 
HETATM   24  C   UNL     1      27.364  44.300  52.278  1.00  0.00     0.029 A 
ENDBRANCH  16  19
ENDBRANCH  13  15
ENDBRANCH  12  13
ENDBRANCH   6  12
BRANCH   1  25
HETATM   25  O   UNL     1      17.597  52.507  49.850  1.00  0.00    -0.351 OA
BRANCH  25  26
HETATM   26  C   UNL     1      16.255  52.023  49.853  1.00  0.00     0.171 C 
HETATM   27  C   UNL     1      15.483  52.775  48.783  1.00  0.00     0.034 C 
ENDBRANCH  25  26
ENDBRANCH   1  25
TORSDOF 6
ENDMDL
MODEL 8
REMARK VINA RESULT:      -8.1      2.662      9.899
REMARK  6 active torsions:
REMARK  status: ('A' for Active; 'I' for Inactive)
REMARK    1  A    between atoms: C_2  and  O_3 
REMARK    2  A    between atoms: O_3  and  C_4 
REMARK    3  A    between atoms: C_9  and  S_10 
REMARK    4  A    between atoms: S_10  and  C_11 
REMARK    5  A    between atoms: C_11  and  C_12 
REMARK       I    between atoms: C_12  and  N_13 
REMARK    6  A    between atoms: N_13  and  C_14 
ROOT
HETATM    1  C   UNL     1      20.842  50.273  48.028  1.00  0.00     0.069 A 
HETATM    2  C   UNL     1      22.179  50.657  47.949  1.00  0.00     0.050 A 
HETATM    3  C   UNL     1      23.197  49.799  48.414  1.00  0.00    -0.004 A 
HETATM    4  C   UNL     1      22.878  48.549  48.973  1.00  0.00     0.068 A 
HETATM    5  N   UNL     1      23.818  47.704  49.425  1.00  0.00    -0.241 NA
HETATM    6  C   UNL     1      25.122  48.067  49.339  1.00  0.00     0.100 A 
HETATM    7  C   UNL     1      25.545  49.273  48.784  1.00  0.00    -0.026 A 
HETATM    8  C   UNL     1      26.981  49.694  48.691  1.00  0.00     0.051 C 
HETATM    9  C   UNL     1      24.551  50.150  48.335  1.00  0.00     0.023 A 
HETATM   10  C   UNL     1      21.542  48.190  49.051  1.00  0.00     0.035 A 
HETATM   11  C   UNL     1      20.529  49.036  48.584  1.00  0.00     0.039 A 
ENDROOT
BRANCH   6  12
HETATM   12  S   UNL     1      26.218  46.835  50.010  1.00  0.00    -0.096 SA
BRANCH  12  13
HETATM   13  C   UNL     1      25.263  46.299  51.479  1.00  0.00     0.142 C 
HETATM   14  C   UNL     1      25.509  47.294  52.608  1.00  0.00     0.031 C 
BRANCH  13  15
HETATM   15  C   UNL     1      25.598  44.884  51.957  1.00  0.00     0.236 C 
HETATM   16  N   UNL     1      26.940  44.560  51.901  1.00  0.00    -0.326 N 
HETATM   17  H   UNL     1      27.505  45.158  51.304  1.00  0.00     0.169 HD
HETATM   18  O   UNL     1      24.702  44.177  52.416  1.00  0.00    -0.272 OA
BRANCH  16  19
HETATM   19  C   UNL     1      27.564  43.382  52.355  1.00  0.00     0.034 A 
HETATM   20  C   UNL     1      28.230  43.272  53.576  1.00  0.00     0.029 A 
HETATM   21  C   UNL     1      28.828  42.064  53.951  1.00  0.00     0.002 A 
HETATM   22  C   UNL     1      28.769  40.960  53.105  1.00  0.00     0.000 A 
HETATM   23  C   UNL     1      28.112  41.060  51.882  1.00  0.00     0.002 A 
HETATM   24  C   UNL     1      27.514  42.266  51.509  1.00  0.00     0.029 A 
ENDBRANCH  16  19
ENDBRANCH  13  15
ENDBRANCH  12  13
ENDBRANCH   6  12
BRANCH   1  25
HETATM   25  O   UNL     1      19.765  51.000  47.603  1.00  0.00    -0.351 OA
BRANCH  25  26
HETATM   26  C   UNL     1      19.010  50.473  46.513  1.00  0.00     0.171 C 
HETATM   27  C   UNL     1      17.768  51.329  46.345  1.00  0.00     0.034 C 
ENDBRANCH  25  26
ENDBRANCH   1  25
TORSDOF 6
ENDMDL
MODEL 9
REMARK VINA RESULT:      -8.1      2.125      9.436
REMARK  6 active torsions:
REMARK  status: ('A' for Active; 'I' for Inactive)
REMARK    1  A    between atoms: C_2  and  O_3 
REMARK    2  A    between atoms: O_3  and  C_4 
REMARK    3  A    between atoms: C_9  and  S_10 
REMARK    4  A    between atoms: S_10  and  C_11 
REMARK    5  A    between atoms: C_11  and  C_12 
REMARK       I    between atoms: C_12  and  N_13 
REMARK    6  A    between atoms: N_13  and  C_14 
ROOT
HETATM    1  C   UNL     1      21.652  49.761  48.201  1.00  0.00     0.069 A 
HETATM    2  C   UNL     1      21.574  48.374  48.305  1.00  0.00     0.050 A 
HETATM    3  C   UNL     1      22.673  47.631  48.783  1.00  0.00    -0.004 A 
HETATM    4  C   UNL     1      23.866  48.276  49.152  1.00  0.00     0.068 A 
HETATM    5  N   UNL     1      24.934  47.605  49.612  1.00  0.00    -0.241 NA
HETATM    6  C   UNL     1      24.859  46.255  49.728  1.00  0.00     0.100 A 
HETATM    7  C   UNL     1      23.718  45.523  49.410  1.00  0.00    -0.026 A 
HETATM    8  C   UNL     1      23.623  44.030  49.521  1.00  0.00     0.051 C 
HETATM    9  C   UNL     1      22.621  46.237  48.913  1.00  0.00     0.023 A 
HETATM   10  C   UNL     1      23.926  49.656  49.032  1.00  0.00     0.035 A 
HETATM   11  C   UNL     1      22.836  50.397  48.565  1.00  0.00     0.039 A 
ENDROOT
BRANCH   6  12
HETATM   12  S   UNL     1      26.374  45.538  50.328  1.00  0.00    -0.096 SA
BRANCH  12  13
HETATM   13  C   UNL     1      25.957  45.302  52.096  1.00  0.00     0.142 C 
HETATM   14  C   UNL     1      25.814  46.673  52.749  1.00  0.00     0.031 C 
BRANCH  13  15
HETATM   15  C   UNL     1      26.979  44.467  52.871  1.00  0.00     0.236 C 
HETATM   16  N   UNL     1      27.899  45.205  53.592  1.00  0.00    -0.326 N 
HETATM   17  H   UNL     1      27.982  46.180  53.315  1.00  0.00     0.169 HD
HETATM   18  O   UNL     1      26.879  43.241  52.869  1.00  0.00    -0.272 OA
BRANCH  16  19
HETATM   19  C   UNL     1      28.892  44.729  54.469  1.00  0.00     0.034 A 
HETATM   20  C   UNL     1      29.505  43.481  54.350  1.00  0.00     0.029 A 
HETATM   21  C   UNL     1      30.482  43.081  55.268  1.00  0.00     0.002 A 
HETATM   22  C   UNL     1      30.847  43.923  56.315  1.00  0.00     0.000 A 
HETATM   23  C   UNL     1      30.237  45.167  56.446  1.00  0.00     0.002 A 
HETATM   24  C   UNL     1      29.263  45.567  55.528  1.00  0.00     0.029 A 
ENDBRANCH  16  19
ENDBRANCH  13  15
ENDBRANCH  12  13
ENDBRANCH   6  12
BRANCH   1  25
HETATM   25  O   UNL     1      20.660  50.597  47.770  1.00  0.00    -0.351 OA
BRANCH  25  26
HETATM   26  C   UNL     1      19.445  50.608  48.517  1.00  0.00     0.171 C 
HETATM   27  C   UNL     1      19.538  51.717  49.549  1.00  0.00     0.034 C 
ENDBRANCH  25  26
ENDBRANCH   1  25
TORSDOF 6
ENDMDL
MODEL 10
REMARK VINA RESULT:      -7.9     12.179     14.466
REMARK  6 active torsions:
REMARK  status: ('A' for Active; 'I' for Inactive)
REMARK    1  A    between atoms: C_2  and  O_3 
REMARK    2  A    between atoms: O_3  and  C_4 
REMARK    3  A    between atoms: C_9  and  S_10 
REMARK    4  A    between atoms: S_10  and  C_11 
REMARK    5  A    between atoms: C_11  and  C_12 
REMARK       I    between atoms: C_12  and  N_13 
REMARK    6  A    between atoms: N_13  and  C_14 
ROOT
HETATM    1  C   UNL     1      28.944  47.901  41.273  1.00  0.00     0.069 A 
HETATM    2  C   UNL     1      29.491  48.851  42.135  1.00  0.00     0.050 A 
HETATM    3  C   UNL     1      30.841  49.238  42.007  1.00  0.00    -0.004 A 
HETATM    4  C   UNL     1      31.657  48.667  41.016  1.00  0.00     0.068 A 
HETATM    5  N   UNL     1      32.946  49.011  40.861  1.00  0.00    -0.241 NA
HETATM    6  C   UNL     1      33.480  49.943  41.688  1.00  0.00     0.100 A 
HETATM    7  C   UNL     1      32.752  50.584  42.688  1.00  0.00    -0.026 A 
HETATM    8  C   UNL     1      33.329  51.609  43.619  1.00  0.00     0.051 C 
HETATM    9  C   UNL     1      31.415  50.200  42.848  1.00  0.00     0.023 A 
HETATM   10  C   UNL     1      31.097  47.718  40.175  1.00  0.00     0.035 A 
HETATM   11  C   UNL     1      29.756  47.335  40.295  1.00  0.00     0.039 A 
ENDROOT
BRANCH   6  12
HETATM   12  S   UNL     1      35.200  50.249  41.351  1.00  0.00    -0.096 SA
BRANCH  12  13
HETATM   13  C   UNL     1      35.073  51.202  39.791  1.00  0.00     0.142 C 
HETATM   14  C   UNL     1      36.302  52.096  39.666  1.00  0.00     0.031 C 
BRANCH  13  15
HETATM   15  C   UNL     1      33.804  52.053  39.683  1.00  0.00     0.236 C 
HETATM   16  N   UNL     1      32.711  51.392  39.157  1.00  0.00    -0.326 N 
HETATM   17  H   UNL     1      32.925  50.538  38.649  1.00  0.00     0.169 HD
HETATM   18  O   UNL     1      33.811  53.201  40.123  1.00  0.00    -0.272 OA
BRANCH  16  19
HETATM   19  C   UNL     1      31.394  51.872  39.022  1.00  0.00     0.034 A 
HETATM   20  C   UNL     1      30.611  51.694  37.881  1.00  0.00     0.029 A 
HETATM   21  C   UNL     1      29.312  52.208  37.826  1.00  0.00     0.002 A 
HETATM   22  C   UNL     1      28.787  52.909  38.909  1.00  0.00     0.000 A 
HETATM   23  C   UNL     1      29.562  53.097  40.050  1.00  0.00     0.002 A 
HETATM   24  C   UNL     1      30.860  52.582  40.105  1.00  0.00     0.029 A 
ENDBRANCH  16  19
ENDBRANCH  13  15
ENDBRANCH  12  13
ENDBRANCH   6  12
BRANCH   1  25
HETATM   25  O   UNL     1      27.654  47.451  41.281  1.00  0.00    -0.351 OA
BRANCH  25  26
HETATM   26  C   UNL     1      26.928  47.528  40.055  1.00  0.00     0.171 C 
HETATM   27  C   UNL     1      25.447  47.559  40.388  1.00  0.00     0.034 C 
ENDBRANCH  25  26
ENDBRANCH   1  25
TORSDOF 6
ENDMDL
