MODEL 1
REMARK VINA RESULT:     -10.4      0.000      0.000
REMARK  8 active torsions:
REMARK  status: ('A' for Active; 'I' for Inactive)
REMARK    1  A    between atoms: C_2  and  C_3 
REMARK    2  A    between atoms: C_3  and  C_4 
REMARK    3  A    between atoms: C_3  and  C_38 
REMARK    4  A    between atoms: C_6  and  C_7 
REMARK    5  A    between atoms: C_14  and  C_15 
REMARK    6  A    between atoms: C_18  and  C_19 
REMARK    7  A    between atoms: C_19  and  N_20 
REMARK       I    between atoms: N_20  and  C_21 
REMARK       I    between atoms: C_21  and  N_22 
REMARK    8  A    between atoms: N_22  and  C_23 
ROOT
HETATM    1  C   UNL     1      25.969  47.506  49.918  1.00  0.00     0.037 A 
HETATM    2  C   UNL     1      24.932  48.243  49.338  1.00  0.00     0.052 A 
HETATM    3  C   UNL     1      25.206  49.405  48.605  1.00  0.00     0.046 A 
HETATM    4  C   UNL     1      24.127  50.150  48.026  1.00  0.00     0.099 C 
HETATM    5  N   UNL     1      23.236  50.732  47.563  1.00  0.00    -0.191 NA
HETATM    6  C   UNL     1      26.525  49.838  48.450  1.00  0.00     0.023 A 
HETATM    7  C   UNL     1      27.565  49.112  49.030  1.00  0.00     0.004 A 
HETATM    8  C   UNL     1      27.286  47.954  49.765  1.00  0.00     0.029 A 
ENDROOT
BRANCH   1   9
HETATM    9  N   UNL     1      25.757  46.348  50.695  1.00  0.00    -0.309 N 
HETATM   10  C   UNL     1      25.599  46.292  52.056  1.00  0.00     0.320 C 
HETATM   11  N   UNL     1      25.633  44.999  52.526  1.00  0.00    -0.341 N 
HETATM   12  O   UNL     1      25.400  47.236  52.813  1.00  0.00    -0.247 OA
HETATM   13  H   UNL     1      26.166  44.368  51.938  1.00  0.00     0.164 HD
HETATM   14  H   UNL     1      25.564  45.497  50.183  1.00  0.00     0.170 HD
BRANCH  11  15
HETATM   15  C   UNL     1      25.667  44.695  53.958  1.00  0.00     0.157 C 
BRANCH  15  16
HETATM   16  C   UNL     1      27.020  44.148  54.474  1.00  0.00     0.206 C 
HETATM   17  C   UNL     1      27.126  42.614  54.432  1.00  0.00     0.040 C 
HETATM   18  C   UNL     1      28.538  42.184  53.969  1.00  0.00     0.001 C 
HETATM   19  C   UNL     1      28.736  42.588  52.482  1.00  0.00     0.068 C 
HETATM   20  C   UNL     1      29.581  42.962  54.806  1.00  0.00     0.033 C 
HETATM   21  C   UNL     1      28.385  44.085  52.327  1.00  0.00     0.246 C 
HETATM   22  N   UNL     1      28.231  44.690  53.719  1.00  0.00    -0.065 N 
HETATM   23  C   UNL     1      29.483  44.467  54.528  1.00  0.00     0.236 C 
HETATM   24  H   UNL     1      28.081  45.712  53.574  1.00  0.00     0.280 HD
BRANCH  19  25
HETATM   25  C   UNL     1      27.996  41.683  51.519  1.00  0.00     0.045 A 
HETATM   26  N   UNL     1      26.765  42.056  51.118  1.00  0.00    -0.233 NA
HETATM   27  C   UNL     1      26.132  41.251  50.236  1.00  0.00     0.160 A 
HETATM   28  N   UNL     1      26.630  40.083  49.791  1.00  0.00    -0.233 NA
HETATM   29  C   UNL     1      27.855  39.716  50.212  1.00  0.00     0.043 A 
HETATM   30  C   UNL     1      28.583  40.508  51.084  1.00  0.00     0.055 A 
BRANCH  27  31
HETATM   31  C   UNL     1      24.840  41.707  49.691  1.00  0.00     0.014 A 
HETATM   32  C   UNL     1      24.278  41.119  48.548  1.00  0.00     0.034 A 
HETATM   33  C   UNL     1      23.075  41.596  48.053  1.00  0.00     0.117 A 
HETATM   34  N   UNL     1      22.388  42.612  48.612  1.00  0.00    -0.273 NA
HETATM   35  C   UNL     1      22.929  43.177  49.707  1.00  0.00     0.117 A 
HETATM   36  C   UNL     1      24.128  42.767  50.272  1.00  0.00     0.034 A 
ENDBRANCH  27  31
BRANCH  29  37
HETATM   37  C   UNL     1      28.427  38.390  49.728  1.00  0.00     0.037 C 
BRANCH  37  38
HETATM   38  C   UNL     1      29.785  38.060  50.395  1.00  0.00     0.006 C 
HETATM   39  C   UNL     1      29.794  36.885  51.366  1.00  0.00     0.006 C 
ENDBRANCH  37  38
BRANCH  37  40
HETATM   40  C   UNL     1      28.486  38.316  48.189  1.00  0.00     0.006 C 
HETATM   41  C   UNL     1      27.400  37.434  47.583  1.00  0.00     0.006 C 
ENDBRANCH  37  40
ENDBRANCH  29  37
ENDBRANCH  19  25
ENDBRANCH  15  16
ENDBRANCH  11  15
ENDBRANCH   1   9
TORSDOF 8
ENDMDL
MODEL 2
REMARK VINA RESULT:      -9.9      3.411      7.409
REMARK  8 active torsions:
REMARK  status: ('A' for Active; 'I' for Inactive)
REMARK    1  A    between atoms: C_2  and  C_3 
REMARK    2  A    between atoms: C_3  and  C_4 
REMARK    3  A    between atoms: C_3  and  C_38 
REMARK    4  A    between atoms: C_6  and  C_7 
REMARK    5  A    between atoms: C_14  and  C_15 
REMARK    6  A    between atoms: C_18  and  C_19 
REMARK    7  A    between atoms: C_19  and  N_20 
REMARK       I    between atoms: N_20  and  C_21 
REMARK       I    between atoms: C_21  and  N_22 
REMARK    8  A    between atoms: N_22  and  C_23 
ROOT
HETATM    1  C   UNL     1      20.772  49.344  49.051  1.00  0.00     0.037 A 
HETATM    2  C   UNL     1      19.427  49.613  49.323  1.00  0.00     0.052 A 
HETATM    3  C   UNL     1      18.910  50.905  49.158  1.00  0.00     0.046 A 
HETATM    4  C   UNL     1      17.530  51.160  49.451  1.00  0.00     0.099 C 
HETATM    5  N   UNL     1      16.409  51.339  49.689  1.00  0.00    -0.191 NA
HETATM    6  C   UNL     1      19.743  51.939  48.721  1.00  0.00     0.023 A 
HETATM    7  C   UNL     1      21.086  51.680  48.454  1.00  0.00     0.004 A 
HETATM    8  C   UNL     1      21.598  50.390  48.623  1.00  0.00     0.029 A 
ENDROOT
BRANCH   1   9
HETATM    9  N   UNL     1      21.360  48.074  49.229  1.00  0.00    -0.309 N 
HETATM   10  C   UNL     1      20.983  46.904  48.623  1.00  0.00     0.320 C 
HETATM   11  N   UNL     1      21.610  45.811  49.176  1.00  0.00    -0.341 N 
HETATM   12  O   UNL     1      20.221  46.781  47.670  1.00  0.00    -0.247 OA
HETATM   13  H   UNL     1      21.883  45.947  50.143  1.00  0.00     0.164 HD
HETATM   14  H   UNL     1      22.229  48.055  49.747  1.00  0.00     0.170 HD
BRANCH  11  15
HETATM   15  C   UNL     1      21.236  44.441  48.821  1.00  0.00     0.157 C 
BRANCH  15  16
HETATM   16  C   UNL     1      22.412  43.547  48.355  1.00  0.00     0.206 C 
HETATM   17  C   UNL     1      23.700  44.328  48.044  1.00  0.00     0.040 C 
HETATM   18  C   UNL     1      24.937  43.552  48.556  1.00  0.00     0.001 C 
HETATM   19  C   UNL     1      24.914  43.519  50.109  1.00  0.00     0.068 C 
HETATM   20  C   UNL     1      24.834  42.090  48.058  1.00  0.00     0.033 C 
HETATM   21  C   UNL     1      23.534  43.001  50.572  1.00  0.00     0.246 C 
HETATM   22  N   UNL     1      22.791  42.458  49.356  1.00  0.00    -0.065 N 
HETATM   23  C   UNL     1      23.612  41.395  48.672  1.00  0.00     0.236 C 
HETATM   24  H   UNL     1      21.906  42.042  49.720  1.00  0.00     0.280 HD
BRANCH  19  25
HETATM   25  C   UNL     1      25.313  44.840  50.736  1.00  0.00     0.045 A 
HETATM   26  N   UNL     1      25.565  45.878  49.917  1.00  0.00    -0.233 NA
HETATM   27  C   UNL     1      25.892  47.056  50.495  1.00  0.00     0.160 A 
HETATM   28  N   UNL     1      26.038  47.229  51.821  1.00  0.00    -0.233 NA
HETATM   29  C   UNL     1      25.797  46.177  52.626  1.00  0.00     0.043 A 
HETATM   30  C   UNL     1      25.419  44.948  52.112  1.00  0.00     0.055 A 
BRANCH  27  31
HETATM   31  C   UNL     1      26.047  48.233  49.621  1.00  0.00     0.014 A 
HETATM   32  C   UNL     1      24.952  48.796  48.948  1.00  0.00     0.034 A 
HETATM   33  C   UNL     1      25.147  49.885  48.113  1.00  0.00     0.117 A 
HETATM   34  N   UNL     1      26.348  50.458  47.902  1.00  0.00    -0.273 NA
HETATM   35  C   UNL     1      27.398  49.916  48.545  1.00  0.00     0.117 A 
HETATM   36  C   UNL     1      27.299  48.827  49.398  1.00  0.00     0.034 A 
ENDBRANCH  27  31
BRANCH  29  37
HETATM   37  C   UNL     1      25.972  46.353  54.130  1.00  0.00     0.037 C 
BRANCH  37  38
HETATM   38  C   UNL     1      26.833  47.591  54.478  1.00  0.00     0.006 C 
HETATM   39  C   UNL     1      26.419  48.378  55.716  1.00  0.00     0.006 C 
ENDBRANCH  37  38
BRANCH  37  40
HETATM   40  C   UNL     1      26.482  45.064  54.804  1.00  0.00     0.006 C 
HETATM   41  C   UNL     1      27.994  45.035  54.989  1.00  0.00     0.006 C 
ENDBRANCH  37  40
ENDBRANCH  29  37
ENDBRANCH  19  25
ENDBRANCH  15  16
ENDBRANCH  11  15
ENDBRANCH   1   9
TORSDOF 8
ENDMDL
MODEL 3
REMARK VINA RESULT:      -9.0      2.814      6.969
REMARK  8 active torsions:
REMARK  status: ('A' for Active; 'I' for Inactive)
REMARK    1  A    between atoms: C_2  and  C_3 
REMARK    2  A    between atoms: C_3  and  C_4 
REMARK    3  A    between atoms: C_3  and  C_38 
REMARK    4  A    between atoms: C_6  and  C_7 
REMARK    5  A    between atoms: C_14  and  C_15 
REMARK    6  A    between atoms: C_18  and  C_19 
REMARK    7  A    between atoms: C_19  and  N_20 
REMARK       I    between atoms: N_20  and  C_21 
REMARK       I    between atoms: C_21  and  N_22 
REMARK    8  A    between atoms: N_22  and  C_23 
ROOT
HETATM    1  C   UNL     1      22.482  44.915  46.479  1.00  0.00     0.037 A 
HETATM    2  C   UNL     1      22.210  45.851  47.482  1.00  0.00     0.052 A 
HETATM    3  C   UNL     1      21.228  46.833  47.293  1.00  0.00     0.046 A 
HETATM    4  C   UNL     1      20.971  47.788  48.331  1.00  0.00     0.099 C 
HETATM    5  N   UNL     1      20.778  48.545  49.188  1.00  0.00    -0.191 NA
HETATM    6  C   UNL     1      20.514  46.884  46.093  1.00  0.00     0.023 A 
HETATM    7  C   UNL     1      20.784  45.958  45.086  1.00  0.00     0.004 A 
HETATM    8  C   UNL     1      21.767  44.982  45.277  1.00  0.00     0.029 A 
ENDROOT
BRANCH   1   9
HETATM    9  N   UNL     1      23.480  43.925  46.594  1.00  0.00    -0.309 N 
HETATM   10  C   UNL     1      23.351  42.696  47.187  1.00  0.00     0.320 C 
HETATM   11  N   UNL     1      24.563  42.061  47.328  1.00  0.00    -0.341 N 
HETATM   12  O   UNL     1      22.307  42.150  47.529  1.00  0.00    -0.247 OA
HETATM   13  H   UNL     1      25.349  42.699  47.390  1.00  0.00     0.164 HD
HETATM   14  H   UNL     1      24.329  44.084  46.066  1.00  0.00     0.170 HD
BRANCH  11  15
HETATM   15  C   UNL     1      24.705  40.821  48.093  1.00  0.00     0.157 C 
BRANCH  15  16
HETATM   16  C   UNL     1      26.153  40.281  48.193  1.00  0.00     0.206 C 
HETATM   17  C   UNL     1      27.209  41.375  48.419  1.00  0.00     0.040 C 
HETATM   18  C   UNL     1      28.277  40.893  49.428  1.00  0.00     0.001 C 
HETATM   19  C   UNL     1      27.626  40.741  50.831  1.00  0.00     0.068 C 
HETATM   20  C   UNL     1      28.764  39.491  48.987  1.00  0.00     0.033 C 
HETATM   21  C   UNL     1      26.360  39.866  50.694  1.00  0.00     0.246 C 
HETATM   22  N   UNL     1      26.349  39.248  49.300  1.00  0.00    -0.065 N 
HETATM   23  C   UNL     1      27.620  38.473  49.061  1.00  0.00     0.236 C 
HETATM   24  H   UNL     1      25.530  38.601  49.277  1.00  0.00     0.280 HD
BRANCH  19  25
HETATM   25  C   UNL     1      27.381  42.069  51.517  1.00  0.00     0.045 A 
HETATM   26  N   UNL     1      28.144  42.381  52.581  1.00  0.00    -0.233 NA
HETATM   27  C   UNL     1      27.931  43.583  53.163  1.00  0.00     0.160 A 
HETATM   28  N   UNL     1      26.969  44.444  52.782  1.00  0.00    -0.233 NA
HETATM   29  C   UNL     1      26.205  44.111  51.725  1.00  0.00     0.043 A 
HETATM   30  C   UNL     1      26.389  42.915  51.052  1.00  0.00     0.055 A 
BRANCH  27  31
HETATM   31  C   UNL     1      28.840  43.994  54.249  1.00  0.00     0.014 A 
HETATM   32  C   UNL     1      28.643  45.190  54.956  1.00  0.00     0.034 A 
HETATM   33  C   UNL     1      29.537  45.553  55.951  1.00  0.00     0.117 A 
HETATM   34  N   UNL     1      30.609  44.813  56.297  1.00  0.00    -0.273 NA
HETATM   35  C   UNL     1      30.799  43.668  55.616  1.00  0.00     0.117 A 
HETATM   36  C   UNL     1      29.958  43.226  54.606  1.00  0.00     0.034 A 
ENDBRANCH  27  31
BRANCH  29  37
HETATM   37  C   UNL     1      25.103  45.069  51.290  1.00  0.00     0.037 C 
BRANCH  37  38
HETATM   38  C   UNL     1      24.251  44.494  50.132  1.00  0.00     0.006 C 
HETATM   39  C   UNL     1      22.937  43.829  50.524  1.00  0.00     0.006 C 
ENDBRANCH  37  38
BRANCH  37  40
HETATM   40  C   UNL     1      25.653  46.476  50.982  1.00  0.00     0.006 C 
HETATM   41  C   UNL     1      24.632  47.394  50.321  1.00  0.00     0.006 C 
ENDBRANCH  37  40
ENDBRANCH  29  37
ENDBRANCH  19  25
ENDBRANCH  15  16
ENDBRANCH  11  15
ENDBRANCH   1   9
TORSDOF 8
ENDMDL
MODEL 4
REMARK VINA RESULT:      -9.0      3.018      9.271
REMARK  8 active torsions:
REMARK  status: ('A' for Active; 'I' for Inactive)
REMARK    1  A    between atoms: C_2  and  C_3 
REMARK    2  A    between atoms: C_3  and  C_4 
REMARK    3  A    between atoms: C_3  and  C_38 
REMARK    4  A    between atoms: C_6  and  C_7 
REMARK    5  A    between atoms: C_14  and  C_15 
REMARK    6  A    between atoms: C_18  and  C_19 
REMARK    7  A    between atoms: C_19  and  N_20 
REMARK       I    between atoms: N_20  and  C_21 
REMARK       I    between atoms: C_21  and  N_22 
REMARK    8  A    between atoms: N_22  and  C_23 
ROOT
HETATM    1  C   UNL     1      27.079  42.484  52.096  1.00  0.00     0.037 A 
HETATM    2  C   UNL     1      27.353  43.570  52.934  1.00  0.00     0.052 A 
HETATM    3  C   UNL     1      28.482  43.561  53.764  1.00  0.00     0.046 A 
HETATM    4  C   UNL     1      28.740  44.680  54.622  1.00  0.00     0.099 C 
HETATM    5  N   UNL     1      28.929  45.601  55.302  1.00  0.00    -0.191 NA
HETATM    6  C   UNL     1      29.343  42.461  53.760  1.00  0.00     0.023 A 
HETATM    7  C   UNL     1      29.072  41.372  52.932  1.00  0.00     0.004 A 
HETATM    8  C   UNL     1      27.942  41.383  52.108  1.00  0.00     0.029 A 
ENDROOT
BRANCH   1   9
HETATM    9  N   UNL     1      25.942  42.417  51.262  1.00  0.00    -0.309 N 
HETATM   10  C   UNL     1      25.864  42.802  49.949  1.00  0.00     0.320 C 
HETATM   11  N   UNL     1      24.566  42.815  49.492  1.00  0.00    -0.341 N 
HETATM   12  O   UNL     1      26.801  43.068  49.204  1.00  0.00    -0.247 OA
HETATM   13  H   UNL     1      23.881  42.968  50.223  1.00  0.00     0.164 HD
HETATM   14  H   UNL     1      25.149  41.908  51.632  1.00  0.00     0.170 HD
BRANCH  11  15
HETATM   15  C   UNL     1      24.212  43.363  48.181  1.00  0.00     0.157 C 
BRANCH  15  16
HETATM   16  C   UNL     1      22.704  43.297  47.835  1.00  0.00     0.206 C 
HETATM   17  C   UNL     1      21.813  44.115  48.786  1.00  0.00     0.040 C 
HETATM   18  C   UNL     1      20.699  44.836  47.993  1.00  0.00     0.001 C 
HETATM   19  C   UNL     1      21.336  45.926  47.088  1.00  0.00     0.068 C 
HETATM   20  C   UNL     1      20.016  43.802  47.065  1.00  0.00     0.033 C 
HETATM   21  C   UNL     1      22.466  45.278  46.257  1.00  0.00     0.246 C 
HETATM   22  N   UNL     1      22.376  43.765  46.419  1.00  0.00    -0.065 N 
HETATM   23  C   UNL     1      21.008  43.276  46.020  1.00  0.00     0.236 C 
HETATM   24  H   UNL     1      23.096  43.363  45.780  1.00  0.00     0.280 HD
BRANCH  19  25
HETATM   25  C   UNL     1      21.772  47.156  47.859  1.00  0.00     0.045 A 
HETATM   26  N   UNL     1      20.895  48.170  47.980  1.00  0.00    -0.233 NA
HETATM   27  C   UNL     1      21.291  49.247  48.696  1.00  0.00     0.160 A 
HETATM   28  N   UNL     1      22.516  49.385  49.232  1.00  0.00    -0.233 NA
HETATM   29  C   UNL     1      23.387  48.368  49.091  1.00  0.00     0.043 A 
HETATM   30  C   UNL     1      23.042  47.215  48.406  1.00  0.00     0.055 A 
BRANCH  27  31
HETATM   31  C   UNL     1      20.300  50.311  48.944  1.00  0.00     0.014 A 
HETATM   32  C   UNL     1      19.345  50.200  49.965  1.00  0.00     0.034 A 
HETATM   33  C   UNL     1      18.414  51.211  50.147  1.00  0.00     0.117 A 
HETATM   34  N   UNL     1      18.366  52.325  49.391  1.00  0.00    -0.273 NA
HETATM   35  C   UNL     1      19.281  52.430  48.409  1.00  0.00     0.117 A 
HETATM   36  C   UNL     1      20.248  51.469  48.153  1.00  0.00     0.034 A 
ENDBRANCH  27  31
BRANCH  29  37
HETATM   37  C   UNL     1      24.784  48.515  49.681  1.00  0.00     0.037 C 
BRANCH  37  38
HETATM   38  C   UNL     1      25.721  49.343  48.769  1.00  0.00     0.006 C 
HETATM   39  C   UNL     1      27.215  49.078  48.914  1.00  0.00     0.006 C 
ENDBRANCH  37  38
BRANCH  37  40
HETATM   40  C   UNL     1      25.388  47.152  50.075  1.00  0.00     0.006 C 
HETATM   41  C   UNL     1      25.544  46.971  51.580  1.00  0.00     0.006 C 
ENDBRANCH  37  40
ENDBRANCH  29  37
ENDBRANCH  19  25
ENDBRANCH  15  16
ENDBRANCH  11  15
ENDBRANCH   1   9
TORSDOF 8
ENDMDL
MODEL 5
REMARK VINA RESULT:      -8.6      3.364      8.363
REMARK  8 active torsions:
REMARK  status: ('A' for Active; 'I' for Inactive)
REMARK    1  A    between atoms: C_2  and  C_3 
REMARK    2  A    between atoms: C_3  and  C_4 
REMARK    3  A    between atoms: C_3  and  C_38 
REMARK    4  A    between atoms: C_6  and  C_7 
REMARK    5  A    between atoms: C_14  and  C_15 
REMARK    6  A    between atoms: C_18  and  C_19 
REMARK    7  A    between atoms: C_19  and  N_20 
REMARK       I    between atoms: N_20  and  C_21 
REMARK       I    between atoms: C_21  and  N_22 
REMARK    8  A    between atoms: N_22  and  C_23 
ROOT
HETATM    1  C   UNL     1      26.677  45.306  53.518  1.00  0.00     0.037 A 
HETATM    2  C   UNL     1      27.828  45.127  54.293  1.00  0.00     0.052 A 
HETATM    3  C   UNL     1      28.295  46.156  55.122  1.00  0.00     0.046 A 
HETATM    4  C   UNL     1      29.481  45.954  55.901  1.00  0.00     0.099 C 
HETATM    5  N   UNL     1      30.440  45.763  56.526  1.00  0.00    -0.191 NA
HETATM    6  C   UNL     1      27.613  47.373  55.177  1.00  0.00     0.023 A 
HETATM    7  C   UNL     1      26.469  47.561  54.403  1.00  0.00     0.004 A 
HETATM    8  C   UNL     1      26.007  46.533  53.574  1.00  0.00     0.029 A 
ENDROOT
BRANCH   1   9
HETATM    9  N   UNL     1      26.174  44.324  52.639  1.00  0.00    -0.309 N 
HETATM   10  C   UNL     1      26.537  44.131  51.331  1.00  0.00     0.320 C 
HETATM   11  N   UNL     1      25.706  43.240  50.691  1.00  0.00    -0.341 N 
HETATM   12  O   UNL     1      27.500  44.625  50.754  1.00  0.00    -0.247 OA
HETATM   13  H   UNL     1      24.773  43.200  51.088  1.00  0.00     0.164 HD
HETATM   14  H   UNL     1      25.594  43.608  53.057  1.00  0.00     0.170 HD
BRANCH  11  15
HETATM   15  C   UNL     1      25.779  43.011  49.248  1.00  0.00     0.157 C 
BRANCH  15  16
HETATM   16  C   UNL     1      24.572  42.249  48.648  1.00  0.00     0.206 C 
HETATM   17  C   UNL     1      23.219  42.649  49.262  1.00  0.00     0.040 C 
HETATM   18  C   UNL     1      22.133  42.731  48.164  1.00  0.00     0.001 C 
HETATM   19  C   UNL     1      22.451  43.919  47.216  1.00  0.00     0.068 C 
HETATM   20  C   UNL     1      22.194  41.433  47.322  1.00  0.00     0.033 C 
HETATM   21  C   UNL     1      23.912  43.787  46.732  1.00  0.00     0.246 C 
HETATM   22  N   UNL     1      24.431  42.411  47.137  1.00  0.00    -0.065 N 
HETATM   23  C   UNL     1      23.536  41.331  46.585  1.00  0.00     0.236 C 
HETATM   24  H   UNL     1      25.384  42.328  46.720  1.00  0.00     0.280 HD
BRANCH  19  25
HETATM   25  C   UNL     1      22.128  45.267  47.827  1.00  0.00     0.045 A 
HETATM   26  N   UNL     1      20.849  45.688  47.793  1.00  0.00    -0.233 NA
HETATM   27  C   UNL     1      20.576  46.880  48.369  1.00  0.00     0.160 A 
HETATM   28  N   UNL     1      21.507  47.687  48.909  1.00  0.00    -0.233 NA
HETATM   29  C   UNL     1      22.783  47.259  48.922  1.00  0.00     0.043 A 
HETATM   30  C   UNL     1      23.137  46.031  48.388  1.00  0.00     0.055 A 
BRANCH  27  31
HETATM   31  C   UNL     1      19.164  47.297  48.452  1.00  0.00     0.014 A 
HETATM   32  C   UNL     1      18.118  46.400  48.186  1.00  0.00     0.034 A 
HETATM   33  C   UNL     1      16.805  46.840  48.248  1.00  0.00     0.117 A 
HETATM   34  N   UNL     1      16.456  48.103  48.560  1.00  0.00    -0.273 NA
HETATM   35  C   UNL     1      17.459  48.963  48.814  1.00  0.00     0.117 A 
HETATM   36  C   UNL     1      18.800  48.614  48.773  1.00  0.00     0.034 A 
ENDBRANCH  27  31
BRANCH  29  37
HETATM   37  C   UNL     1      23.852  48.167  49.518  1.00  0.00     0.037 C 
BRANCH  37  38
HETATM   38  C   UNL     1      24.332  49.244  48.515  1.00  0.00     0.006 C 
HETATM   39  C   UNL     1      23.575  50.567  48.529  1.00  0.00     0.006 C 
ENDBRANCH  37  38
BRANCH  37  40
HETATM   40  C   UNL     1      25.016  47.361  50.129  1.00  0.00     0.006 C 
HETATM   41  C   UNL     1      26.380  48.004  49.906  1.00  0.00     0.006 C 
ENDBRANCH  37  40
ENDBRANCH  29  37
ENDBRANCH  19  25
ENDBRANCH  15  16
ENDBRANCH  11  15
ENDBRANCH   1   9
TORSDOF 8
ENDMDL
MODEL 6
REMARK VINA RESULT:      -8.6      3.609     10.098
REMARK  8 active torsions:
REMARK  status: ('A' for Active; 'I' for Inactive)
REMARK    1  A    between atoms: C_2  and  C_3 
REMARK    2  A    between atoms: C_3  and  C_4 
REMARK    3  A    between atoms: C_3  and  C_38 
REMARK    4  A    between atoms: C_6  and  C_7 
REMARK    5  A    between atoms: C_14  and  C_15 
REMARK    6  A    between atoms: C_18  and  C_19 
REMARK    7  A    between atoms: C_19  and  N_20 
REMARK       I    between atoms: N_20  and  C_21 
REMARK       I    between atoms: C_21  and  N_22 
REMARK    8  A    between atoms: N_22  and  C_23 
ROOT
HETATM    1  C   UNL     1      25.291  44.285  51.783  1.00  0.00     0.037 A 
HETATM    2  C   UNL     1      25.138  45.526  52.409  1.00  0.00     0.052 A 
HETATM    3  C   UNL     1      26.058  45.954  53.377  1.00  0.00     0.046 A 
HETATM    4  C   UNL     1      25.877  47.226  54.012  1.00  0.00     0.099 C 
HETATM    5  N   UNL     1      25.712  48.262  54.507  1.00  0.00    -0.191 NA
HETATM    6  C   UNL     1      27.136  45.137  53.725  1.00  0.00     0.023 A 
HETATM    7  C   UNL     1      27.291  43.896  53.109  1.00  0.00     0.004 A 
HETATM    8  C   UNL     1      26.370  43.471  52.147  1.00  0.00     0.029 A 
ENDROOT
BRANCH   1   9
HETATM    9  N   UNL     1      24.383  43.782  50.827  1.00  0.00    -0.309 N 
HETATM   10  C   UNL     1      24.560  43.745  49.468  1.00  0.00     0.320 C 
HETATM   11  N   UNL     1      23.403  43.402  48.807  1.00  0.00    -0.341 N 
HETATM   12  O   UNL     1      25.605  43.938  48.857  1.00  0.00    -0.247 OA
HETATM   13  H   UNL     1      22.559  43.643  49.315  1.00  0.00     0.164 HD
HETATM   14  H   UNL     1      23.587  43.276  51.193  1.00  0.00     0.170 HD
BRANCH  11  15
HETATM   15  C   UNL     1      23.294  43.471  47.349  1.00  0.00     0.157 C 
BRANCH  15  16
HETATM   16  C   UNL     1      21.851  43.355  46.799  1.00  0.00     0.206 C 
HETATM   17  C   UNL     1      20.803  44.102  47.643  1.00  0.00     0.040 C 
HETATM   18  C   UNL     1      19.774  44.804  46.726  1.00  0.00     0.001 C 
HETATM   19  C   UNL     1      20.478  45.950  45.949  1.00  0.00     0.068 C 
HETATM   20  C   UNL     1      19.271  43.775  45.684  1.00  0.00     0.033 C 
HETATM   21  C   UNL     1      21.738  45.379  45.261  1.00  0.00     0.246 C 
HETATM   22  N   UNL     1      21.697  43.858  45.366  1.00  0.00    -0.065 N 
HETATM   23  C   UNL     1      20.418  43.327  44.769  1.00  0.00     0.236 C 
HETATM   24  H   UNL     1      22.514  43.509  44.819  1.00  0.00     0.280 HD
BRANCH  19  25
HETATM   25  C   UNL     1      20.748  47.169  46.807  1.00  0.00     0.045 A 
HETATM   26  N   UNL     1      22.000  47.354  47.267  1.00  0.00    -0.233 NA
HETATM   27  C   UNL     1      22.229  48.462  48.007  1.00  0.00     0.160 A 
HETATM   28  N   UNL     1      21.275  49.344  48.358  1.00  0.00    -0.233 NA
HETATM   29  C   UNL     1      20.025  49.137  47.903  1.00  0.00     0.043 A 
HETATM   30  C   UNL     1      19.720  48.047  47.105  1.00  0.00     0.055 A 
BRANCH  27  31
HETATM   31  C   UNL     1      23.618  48.745  48.413  1.00  0.00     0.014 A 
HETATM   32  C   UNL     1      24.306  49.870  47.934  1.00  0.00     0.034 A 
HETATM   33  C   UNL     1      25.621  50.084  48.318  1.00  0.00     0.117 A 
HETATM   34  N   UNL     1      26.299  49.265  49.144  1.00  0.00    -0.273 NA
HETATM   35  C   UNL     1      25.640  48.185  49.601  1.00  0.00     0.117 A 
HETATM   36  C   UNL     1      24.326  47.889  49.270  1.00  0.00     0.034 A 
ENDBRANCH  27  31
BRANCH  29  37
HETATM   37  C   UNL     1      18.931  50.119  48.301  1.00  0.00     0.037 C 
BRANCH  37  38
HETATM   38  C   UNL     1      17.894  50.331  47.171  1.00  0.00     0.006 C 
HETATM   39  C   UNL     1      18.309  51.259  46.036  1.00  0.00     0.006 C 
ENDBRANCH  37  38
BRANCH  37  40
HETATM   40  C   UNL     1      19.513  51.445  48.831  1.00  0.00     0.006 C 
HETATM   41  C   UNL     1      18.544  52.221  49.716  1.00  0.00     0.006 C 
ENDBRANCH  37  40
ENDBRANCH  29  37
ENDBRANCH  19  25
ENDBRANCH  15  16
ENDBRANCH  11  15
ENDBRANCH   1   9
TORSDOF 8
ENDMDL
MODEL 7
REMARK VINA RESULT:      -8.6      2.474      7.441
REMARK  8 active torsions:
REMARK  status: ('A' for Active; 'I' for Inactive)
REMARK    1  A    between atoms: C_2  and  C_3 
REMARK    2  A    between atoms: C_3  and  C_4 
REMARK    3  A    between atoms: C_3  and  C_38 
REMARK    4  A    between atoms: C_6  and  C_7 
REMARK    5  A    between atoms: C_14  and  C_15 
REMARK    6  A    between atoms: C_18  and  C_19 
REMARK    7  A    between atoms: C_19  and  N_20 
REMARK       I    between atoms: N_20  and  C_21 
REMARK       I    between atoms: C_21  and  N_22 
REMARK    8  A    between atoms: N_22  and  C_23 
ROOT
HETATM    1  C   UNL     1      29.295  43.687  54.227  1.00  0.00     0.037 A 
HETATM    2  C   UNL     1      28.779  44.649  55.101  1.00  0.00     0.052 A 
HETATM    3  C   UNL     1      29.520  45.071  56.213  1.00  0.00     0.046 A 
HETATM    4  C   UNL     1      28.969  46.052  57.101  1.00  0.00     0.099 C 
HETATM    5  N   UNL     1      28.502  46.851  57.801  1.00  0.00    -0.191 NA
HETATM    6  C   UNL     1      30.783  44.527  56.457  1.00  0.00     0.023 A 
HETATM    7  C   UNL     1      31.302  43.563  55.594  1.00  0.00     0.004 A 
HETATM    8  C   UNL     1      30.558  43.142  54.487  1.00  0.00     0.029 A 
ENDROOT
BRANCH   1   9
HETATM    9  N   UNL     1      28.586  43.195  53.110  1.00  0.00    -0.309 N 
HETATM   10  C   UNL     1      27.867  42.030  53.043  1.00  0.00     0.320 C 
HETATM   11  N   UNL     1      27.484  41.734  51.755  1.00  0.00    -0.341 N 
HETATM   12  O   UNL     1      27.530  41.318  53.983  1.00  0.00    -0.247 OA
HETATM   13  H   UNL     1      28.101  42.122  51.050  1.00  0.00     0.164 HD
HETATM   14  H   UNL     1      28.487  43.833  52.330  1.00  0.00     0.170 HD
BRANCH  11  15
HETATM   15  C   UNL     1      26.865  40.454  51.405  1.00  0.00     0.157 C 
BRANCH  15  16
HETATM   16  C   UNL     1      26.188  40.419  50.013  1.00  0.00     0.206 C 
HETATM   17  C   UNL     1      24.854  41.182  49.952  1.00  0.00     0.040 C 
HETATM   18  C   UNL     1      24.737  41.957  48.619  1.00  0.00     0.001 C 
HETATM   19  C   UNL     1      25.792  43.097  48.595  1.00  0.00     0.068 C 
HETATM   20  C   UNL     1      25.074  40.987  47.461  1.00  0.00     0.033 C 
HETATM   21  C   UNL     1      27.176  42.495  48.924  1.00  0.00     0.246 C 
HETATM   22  N   UNL     1      27.061  40.975  48.890  1.00  0.00    -0.065 N 
HETATM   23  C   UNL     1      26.532  40.520  47.554  1.00  0.00     0.236 C 
HETATM   24  H   UNL     1      28.028  40.609  49.031  1.00  0.00     0.280 HD
BRANCH  19  25
HETATM   25  C   UNL     1      25.413  44.274  49.470  1.00  0.00     0.045 A 
HETATM   26  N   UNL     1      24.629  45.231  48.939  1.00  0.00    -0.233 NA
HETATM   27  C   UNL     1      24.277  46.259  49.744  1.00  0.00     0.160 A 
HETATM   28  N   UNL     1      24.713  46.409  51.008  1.00  0.00    -0.233 NA
HETATM   29  C   UNL     1      25.508  45.451  51.520  1.00  0.00     0.043 A 
HETATM   30  C   UNL     1      25.879  44.347  50.771  1.00  0.00     0.055 A 
BRANCH  27  31
HETATM   31  C   UNL     1      23.318  47.249  49.219  1.00  0.00     0.014 A 
HETATM   32  C   UNL     1      23.432  48.613  49.525  1.00  0.00     0.034 A 
HETATM   33  C   UNL     1      22.493  49.507  49.033  1.00  0.00     0.117 A 
HETATM   34  N   UNL     1      21.453  49.144  48.257  1.00  0.00    -0.273 NA
HETATM   35  C   UNL     1      21.343  47.835  47.966  1.00  0.00     0.117 A 
HETATM   36  C   UNL     1      22.233  46.870  48.414  1.00  0.00     0.034 A 
ENDBRANCH  27  31
BRANCH  29  37
HETATM   37  C   UNL     1      26.021  45.612  52.946  1.00  0.00     0.037 C 
BRANCH  37  38
HETATM   38  C   UNL     1      24.986  45.141  53.996  1.00  0.00     0.006 C 
HETATM   39  C   UNL     1      25.350  43.895  54.795  1.00  0.00     0.006 C 
ENDBRANCH  37  38
BRANCH  37  40
HETATM   40  C   UNL     1      26.534  47.041  53.214  1.00  0.00     0.006 C 
HETATM   41  C   UNL     1      26.363  47.483  54.663  1.00  0.00     0.006 C 
ENDBRANCH  37  40
ENDBRANCH  29  37
ENDBRANCH  19  25
ENDBRANCH  15  16
ENDBRANCH  11  15
ENDBRANCH   1   9
TORSDOF 8
ENDMDL
MODEL 8
REMARK VINA RESULT:      -8.5      4.579     11.015
REMARK  8 active torsions:
REMARK  status: ('A' for Active; 'I' for Inactive)
REMARK    1  A    between atoms: C_2  and  C_3 
REMARK    2  A    between atoms: C_3  and  C_4 
REMARK    3  A    between atoms: C_3  and  C_38 
REMARK    4  A    between atoms: C_6  and  C_7 
REMARK    5  A    between atoms: C_14  and  C_15 
REMARK    6  A    between atoms: C_18  and  C_19 
REMARK    7  A    between atoms: C_19  and  N_20 
REMARK       I    between atoms: N_20  and  C_21 
REMARK       I    between atoms: C_21  and  N_22 
REMARK    8  A    between atoms: N_22  and  C_23 
ROOT
HETATM    1  C   UNL     1      24.609  44.598  50.285  1.00  0.00     0.037 A 
HETATM    2  C   UNL     1      24.709  44.326  51.653  1.00  0.00     0.052 A 
HETATM    3  C   UNL     1      25.960  44.299  52.285  1.00  0.00     0.046 A 
HETATM    4  C   UNL     1      26.040  44.010  53.686  1.00  0.00     0.099 C 
HETATM    5  N   UNL     1      26.078  43.779  54.823  1.00  0.00    -0.191 NA
HETATM    6  C   UNL     1      27.120  44.541  51.545  1.00  0.00     0.023 A 
HETATM    7  C   UNL     1      27.029  44.806  50.180  1.00  0.00     0.004 A 
HETATM    8  C   UNL     1      25.778  44.829  49.553  1.00  0.00     0.029 A 
ENDROOT
BRANCH   1   9
HETATM    9  N   UNL     1      23.384  44.607  49.585  1.00  0.00    -0.309 N 
HETATM   10  C   UNL     1      23.137  44.048  48.357  1.00  0.00     0.320 C 
HETATM   11  N   UNL     1      21.911  44.422  47.858  1.00  0.00    -0.341 N 
HETATM   12  O   UNL     1      23.858  43.266  47.747  1.00  0.00    -0.247 OA
HETATM   13  H   UNL     1      21.587  45.317  48.207  1.00  0.00     0.164 HD
HETATM   14  H   UNL     1      22.578  44.936  50.101  1.00  0.00     0.170 HD
BRANCH  11  15
HETATM   15  C   UNL     1      21.501  44.101  46.490  1.00  0.00     0.157 C 
BRANCH  15  16
HETATM   16  C   UNL     1      19.970  44.111  46.251  1.00  0.00     0.206 C 
HETATM   17  C   UNL     1      19.165  44.713  47.414  1.00  0.00     0.040 C 
HETATM   18  C   UNL     1      18.008  45.585  46.874  1.00  0.00     0.001 C 
HETATM   19  C   UNL     1      18.596  46.839  46.171  1.00  0.00     0.068 C 
HETATM   20  C   UNL     1      17.242  44.768  45.804  1.00  0.00     0.033 C 
HETATM   21  C   UNL     1      19.652  46.378  45.142  1.00  0.00     0.246 C 
HETATM   22  N   UNL     1      19.549  44.864  44.991  1.00  0.00    -0.065 N 
HETATM   23  C   UNL     1      18.147  44.470  44.602  1.00  0.00     0.236 C 
HETATM   24  H   UNL     1      20.214  44.604  44.231  1.00  0.00     0.280 HD
BRANCH  19  25
HETATM   25  C   UNL     1      19.106  47.880  47.146  1.00  0.00     0.045 A 
HETATM   26  N   UNL     1      20.429  47.919  47.396  1.00  0.00    -0.233 NA
HETATM   27  C   UNL     1      20.869  48.873  48.247  1.00  0.00     0.160 A 
HETATM   28  N   UNL     1      20.063  49.732  48.897  1.00  0.00    -0.233 NA
HETATM   29  C   UNL     1      18.741  49.671  48.648  1.00  0.00     0.043 A 
HETATM   30  C   UNL     1      18.218  48.748  47.758  1.00  0.00     0.055 A 
BRANCH  27  31
HETATM   31  C   UNL     1      22.325  49.010  48.434  1.00  0.00     0.014 A 
HETATM   32  C   UNL     1      23.053  50.027  47.798  1.00  0.00     0.034 A 
HETATM   33  C   UNL     1      24.425  50.104  47.979  1.00  0.00     0.117 A 
HETATM   34  N   UNL     1      25.125  49.247  48.748  1.00  0.00    -0.273 NA
HETATM   35  C   UNL     1      24.427  48.270  49.356  1.00  0.00     0.117 A 
HETATM   36  C   UNL     1      23.054  48.115  49.232  1.00  0.00     0.034 A 
ENDBRANCH  27  31
BRANCH  29  37
HETATM   37  C   UNL     1      17.814  50.629  49.386  1.00  0.00     0.037 C 
BRANCH  37  38
HETATM   38  C   UNL     1      16.428  50.742  48.705  1.00  0.00     0.006 C 
HETATM   39  C   UNL     1      15.492  51.815  49.250  1.00  0.00     0.006 C 
ENDBRANCH  37  38
BRANCH  37  40
HETATM   40  C   UNL     1      18.475  52.001  49.623  1.00  0.00     0.006 C 
HETATM   41  C   UNL     1      18.891  52.704  48.336  1.00  0.00     0.006 C 
ENDBRANCH  37  40
ENDBRANCH  29  37
ENDBRANCH  19  25
ENDBRANCH  15  16
ENDBRANCH  11  15
ENDBRANCH   1   9
TORSDOF 8
ENDMDL
MODEL 9
REMARK VINA RESULT:      -8.4      4.557      9.299
REMARK  8 active torsions:
REMARK  status: ('A' for Active; 'I' for Inactive)
REMARK    1  A    between atoms: C_2  and  C_3 
REMARK    2  A    between atoms: C_3  and  C_4 
REMARK    3  A    between atoms: C_3  and  C_38 
REMARK    4  A    between atoms: C_6  and  C_7 
REMARK    5  A    between atoms: C_14  and  C_15 
REMARK    6  A    between atoms: C_18  and  C_19 
REMARK    7  A    between atoms: C_19  and  N_20 
REMARK       I    between atoms: N_20  and  C_21 
REMARK       I    between atoms: C_21  and  N_22 
REMARK    8  A    between atoms: N_22  and  C_23 
ROOT
HETATM    1  C   UNL     1      29.495  40.317  42.526  1.00  0.00     0.037 A 
HETATM    2  C   UNL     1      30.644  39.521  42.486  1.00  0.00     0.052 A 
HETATM    3  C   UNL     1      31.066  38.940  41.283  1.00  0.00     0.046 A 
HETATM    4  C   UNL     1      32.242  38.120  41.267  1.00  0.00     0.099 C 
HETATM    5  N   UNL     1      33.200  37.466  41.279  1.00  0.00    -0.191 NA
HETATM    6  C   UNL     1      30.336  39.151  40.112  1.00  0.00     0.023 A 
HETATM    7  C   UNL     1      29.186  39.939  40.145  1.00  0.00     0.004 A 
HETATM    8  C   UNL     1      28.766  40.515  41.348  1.00  0.00     0.029 A 
ENDROOT
BRANCH   1   9
HETATM    9  N   UNL     1      28.998  40.903  43.711  1.00  0.00    -0.309 N 
HETATM   10  C   UNL     1      28.320  40.266  44.718  1.00  0.00     0.320 C 
HETATM   11  N   UNL     1      27.783  41.155  45.620  1.00  0.00    -0.341 N 
HETATM   12  O   UNL     1      28.209  39.055  44.879  1.00  0.00    -0.247 OA
HETATM   13  H   UNL     1      27.588  42.067  45.223  1.00  0.00     0.164 HD
HETATM   14  H   UNL     1      29.294  41.853  43.895  1.00  0.00     0.170 HD
BRANCH  11  15
HETATM   15  C   UNL     1      26.867  40.728  46.678  1.00  0.00     0.157 C 
BRANCH  15  16
HETATM   16  C   UNL     1      27.466  39.719  47.689  1.00  0.00     0.206 C 
HETATM   17  C   UNL     1      28.587  40.307  48.562  1.00  0.00     0.040 C 
HETATM   18  C   UNL     1      28.460  39.799  50.017  1.00  0.00     0.001 C 
HETATM   19  C   UNL     1      27.173  40.390  50.657  1.00  0.00     0.068 C 
HETATM   20  C   UNL     1      28.297  38.260  49.981  1.00  0.00     0.033 C 
HETATM   21  C   UNL     1      25.980  40.103  49.718  1.00  0.00     0.246 C 
HETATM   22  N   UNL     1      26.436  39.121  48.645  1.00  0.00    -0.065 N 
HETATM   23  C   UNL     1      26.990  37.871  49.280  1.00  0.00     0.236 C 
HETATM   24  H   UNL     1      25.586  38.888  48.087  1.00  0.00     0.280 HD
BRANCH  19  25
HETATM   25  C   UNL     1      27.317  41.850  51.035  1.00  0.00     0.045 A 
HETATM   26  N   UNL     1      27.944  42.145  52.190  1.00  0.00    -0.233 NA
HETATM   27  C   UNL     1      28.088  43.454  52.497  1.00  0.00     0.160 A 
HETATM   28  N   UNL     1      27.591  44.461  51.755  1.00  0.00    -0.233 NA
HETATM   29  C   UNL     1      26.954  44.148  50.611  1.00  0.00     0.043 A 
HETATM   30  C   UNL     1      26.801  42.833  50.208  1.00  0.00     0.055 A 
BRANCH  27  31
HETATM   31  C   UNL     1      28.881  43.798  53.691  1.00  0.00     0.014 A 
HETATM   32  C   UNL     1      29.920  42.972  54.144  1.00  0.00     0.034 A 
HETATM   33  C   UNL     1      30.623  43.317  55.288  1.00  0.00     0.117 A 
HETATM   34  N   UNL     1      30.371  44.426  56.011  1.00  0.00    -0.273 NA
HETATM   35  C   UNL     1      29.372  45.217  55.578  1.00  0.00     0.117 A 
HETATM   36  C   UNL     1      28.615  44.951  54.447  1.00  0.00     0.034 A 
ENDBRANCH  27  31
BRANCH  29  37
HETATM   37  C   UNL     1      26.374  45.276  49.767  1.00  0.00     0.037 C 
BRANCH  37  38
HETATM   38  C   UNL     1      26.300  46.612  50.546  1.00  0.00     0.006 C 
HETATM   39  C   UNL     1      26.207  47.881  49.707  1.00  0.00     0.006 C 
ENDBRANCH  37  38
BRANCH  37  40
HETATM   40  C   UNL     1      25.026  44.883  49.129  1.00  0.00     0.006 C 
HETATM   41  C   UNL     1      23.846  45.004  50.086  1.00  0.00     0.006 C 
ENDBRANCH  37  40
ENDBRANCH  29  37
ENDBRANCH  19  25
ENDBRANCH  15  16
ENDBRANCH  11  15
ENDBRANCH   1   9
TORSDOF 8
ENDMDL
MODEL 10
REMARK VINA RESULT:      -8.4      7.201     13.565
REMARK  8 active torsions:
REMARK  status: ('A' for Active; 'I' for Inactive)
REMARK    1  A    between atoms: C_2  and  C_3 
REMARK    2  A    between atoms: C_3  and  C_4 
REMARK    3  A    between atoms: C_3  and  C_38 
REMARK    4  A    between atoms: C_6  and  C_7 
REMARK    5  A    between atoms: C_14  and  C_15 
REMARK    6  A    between atoms: C_18  and  C_19 
REMARK    7  A    between atoms: C_19  and  N_20 
REMARK       I    between atoms: N_20  and  C_21 
REMARK       I    between atoms: C_21  and  N_22 
REMARK    8  A    between atoms: N_22  and  C_23 
ROOT
HETATM    1  C   UNL     1      24.909  49.391  48.768  1.00  0.00     0.037 A 
HETATM    2  C   UNL     1      24.886  48.239  49.562  1.00  0.00     0.052 A 
HETATM    3  C   UNL     1      26.081  47.644  49.989  1.00  0.00     0.046 A 
HETATM    4  C   UNL     1      26.034  46.460  50.795  1.00  0.00     0.099 C 
HETATM    5  N   UNL     1      25.969  45.505  51.450  1.00  0.00    -0.191 NA
HETATM    6  C   UNL     1      27.308  48.200  49.620  1.00  0.00     0.023 A 
HETATM    7  C   UNL     1      27.339  49.345  48.825  1.00  0.00     0.004 A 
HETATM    8  C   UNL     1      26.144  49.933  48.397  1.00  0.00     0.029 A 
ENDROOT
BRANCH   1   9
HETATM    9  N   UNL     1      23.743  50.017  48.278  1.00  0.00    -0.309 N 
HETATM   10  C   UNL     1      22.735  50.571  49.023  1.00  0.00     0.320 C 
HETATM   11  N   UNL     1      21.644  50.899  48.252  1.00  0.00    -0.341 N 
HETATM   12  O   UNL     1      22.757  50.815  50.225  1.00  0.00    -0.247 OA
HETATM   13  H   UNL     1      21.556  50.334  47.414  1.00  0.00     0.164 HD
HETATM   14  H   UNL     1      23.719  50.196  47.282  1.00  0.00     0.170 HD
BRANCH  11  15
HETATM   15  C   UNL     1      20.378  51.335  48.844  1.00  0.00     0.157 C 
BRANCH  15  16
HETATM   16  C   UNL     1      19.335  50.210  49.051  1.00  0.00     0.206 C 
HETATM   17  C   UNL     1      17.877  50.698  49.004  1.00  0.00     0.040 C 
HETATM   18  C   UNL     1      16.993  49.683  48.243  1.00  0.00     0.001 C 
HETATM   19  C   UNL     1      17.405  49.666  46.745  1.00  0.00     0.068 C 
HETATM   20  C   UNL     1      17.269  48.272  48.817  1.00  0.00     0.033 C 
HETATM   21  C   UNL     1      18.933  49.454  46.655  1.00  0.00     0.246 C 
HETATM   22  N   UNL     1      19.448  49.072  48.039  1.00  0.00    -0.065 N 
HETATM   23  C   UNL     1      18.721  47.855  48.551  1.00  0.00     0.236 C 
HETATM   24  H   UNL     1      20.462  48.856  47.920  1.00  0.00     0.280 HD
BRANCH  19  25
HETATM   25  C   UNL     1      16.909  50.877  45.980  1.00  0.00     0.045 A 
HETATM   26  N   UNL     1      15.903  51.594  46.515  1.00  0.00    -0.233 NA
HETATM   27  C   UNL     1      15.493  52.687  45.833  1.00  0.00     0.160 A 
HETATM   28  N   UNL     1      15.985  53.057  44.637  1.00  0.00    -0.233 NA
HETATM   29  C   UNL     1      16.981  52.321  44.108  1.00  0.00     0.043 A 
HETATM   30  C   UNL     1      17.483  51.210  44.765  1.00  0.00     0.055 A 
BRANCH  27  31
HETATM   31  C   UNL     1      14.481  53.554  46.464  1.00  0.00     0.014 A 
HETATM   32  C   UNL     1      14.472  53.782  47.848  1.00  0.00     0.034 A 
HETATM   33  C   UNL     1      13.485  54.581  48.405  1.00  0.00     0.117 A 
HETATM   34  N   UNL     1      12.510  55.172  47.687  1.00  0.00    -0.273 NA
HETATM   35  C   UNL     1      12.518  54.950  46.359  1.00  0.00     0.117 A 
HETATM   36  C   UNL     1      13.463  54.166  45.716  1.00  0.00     0.034 A 
ENDBRANCH  27  31
BRANCH  29  37
HETATM   37  C   UNL     1      17.540  52.718  42.748  1.00  0.00     0.037 C 
BRANCH  37  38
HETATM   38  C   UNL     1      16.642  53.750  42.024  1.00  0.00     0.006 C 
HETATM   39  C   UNL     1      16.766  53.810  40.506  1.00  0.00     0.006 C 
ENDBRANCH  37  38
BRANCH  37  40
HETATM   40  C   UNL     1      17.856  51.488  41.874  1.00  0.00     0.006 C 
HETATM   41  C   UNL     1      19.331  51.366  41.509  1.00  0.00     0.006 C 
ENDBRANCH  37  40
ENDBRANCH  29  37
ENDBRANCH  19  25
ENDBRANCH  15  16
ENDBRANCH  11  15
ENDBRANCH   1   9
TORSDOF 8
ENDMDL
