MODEL 1
REMARK VINA RESULT:      -9.9      0.000      0.000
REMARK  8 active torsions:
REMARK  status: ('A' for Active; 'I' for Inactive)
REMARK    1  A    between atoms: C_7  and  S_8 
REMARK    2  A    between atoms: S_8  and  N_9 
REMARK    3  A    between atoms: N_9  and  C_10 
REMARK    4  A    between atoms: C_19  and  N_20 
REMARK    5  A    between atoms: C_25  and  N_26 
REMARK    6  A    between atoms: C_30  and  S_31 
REMARK    7  A    between atoms: S_31  and  N_32 
REMARK    8  A    between atoms: N_32  and  C_33 
ROOT
HETATM    1  C   UNL     1      26.831  44.018  50.266  1.00  0.00     0.041 A 
HETATM    2  C   UNL     1      25.863  44.928  49.877  1.00  0.00     0.030 A 
HETATM    3  C   UNL     1      24.541  44.606  49.502  1.00  0.00     0.025 A 
HETATM    4  C   UNL     1      23.858  45.854  49.121  1.00  0.00     0.025 C 
HETATM    5  C   UNL     1      24.692  46.936  49.478  1.00  0.00     0.030 C 
HETATM    6  C   UNL     1      24.356  48.276  49.366  1.00  0.00     0.041 C 
HETATM    7  C   UNL     1      23.110  48.568  48.818  1.00  0.00     0.077 C 
HETATM    8  C   UNL     1      22.296  47.543  48.308  1.00  0.00     0.061 C 
HETATM    9  C   UNL     1      22.681  46.192  48.452  1.00  0.00     0.116 C 
HETATM   10  C   UNL     1      25.985  46.393  49.919  1.00  0.00     0.194 C 
HETATM   11  O   UNL     1      26.954  47.028  50.271  1.00  0.00    -0.287 OA
HETATM   12  C   UNL     1      24.169  43.271  49.676  1.00  0.00     0.116 A 
HETATM   13  C   UNL     1      25.119  42.302  50.070  1.00  0.00     0.062 A 
HETATM   14  C   UNL     1      26.440  42.686  50.356  1.00  0.00     0.082 A 
ENDROOT
BRANCH   7  15
HETATM   15  S   UNL     1      22.603  50.265  48.661  1.00  0.00     0.241 S 
HETATM   16  O   UNL     1      23.119  50.969  49.813  1.00  0.00    -0.206 OA
HETATM   17  O   UNL     1      22.874  50.697  47.311  1.00  0.00    -0.206 OA
BRANCH  15  18
HETATM   18  N   UNL     1      20.937  50.140  48.900  1.00  0.00    -0.211 NA
HETATM   19  H   UNL     1      20.740  50.317  49.888  1.00  0.00     0.140 HD
BRANCH  18  20
HETATM   20  C   UNL     1      20.013  50.824  47.958  1.00  0.00     0.071 C 
HETATM   21  C   UNL     1      18.773  49.980  47.652  1.00  0.00     0.020 C 
HETATM   22  C   UNL     1      17.864  49.799  48.866  1.00  0.00     0.002 C 
HETATM   23  C   UNL     1      17.455  51.144  49.457  1.00  0.00     0.000 C 
HETATM   24  C   UNL     1      18.669  52.008  49.783  1.00  0.00     0.002 C 
HETATM   25  C   UNL     1      19.594  52.169  48.576  1.00  0.00     0.020 C 
ENDBRANCH  18  20
ENDBRANCH  15  18
ENDBRANCH   7  15
BRANCH   9  26
HETATM   26  N   UNL     1      21.898  45.207  47.720  1.00  0.00    -0.115 N 
HETATM   27  O   UNL     1      22.448  44.668  46.751  1.00  0.00    -0.532 OA
HETATM   28  O   UNL     1      20.732  45.016  48.087  1.00  0.00    -0.532 OA
ENDBRANCH   9  26
BRANCH  12  29
HETATM   29  N   UNL     1      22.772  42.857  49.697  1.00  0.00    -0.115 N 
HETATM   30  O   UNL     1      22.072  43.320  50.607  1.00  0.00    -0.532 OA
HETATM   31  O   UNL     1      22.405  42.028  48.857  1.00  0.00    -0.532 OA
ENDBRANCH  12  29
BRANCH  14  32
HETATM   32  S   UNL     1      27.595  41.457  50.912  1.00  0.00     0.259 S 
HETATM   33  O   UNL     1      26.825  40.468  51.630  1.00  0.00    -0.201 OA
HETATM   34  O   UNL     1      28.468  41.110  49.815  1.00  0.00    -0.201 OA
BRANCH  32  35
HETATM   35  N   UNL     1      28.477  42.302  52.074  1.00  0.00    -0.311 N 
HETATM   36  H   UNL     1      28.613  43.266  51.760  1.00  0.00     0.172 HD
BRANCH  35  37
HETATM   37  C   UNL     1      28.157  42.131  53.512  1.00  0.00     0.093 C 
HETATM   38  C   UNL     1      29.404  42.252  54.392  1.00  0.00     0.026 C 
HETATM   39  C   UNL     1      29.997  43.661  54.384  1.00  0.00     0.002 C 
HETATM   40  C   UNL     1      28.958  44.701  54.790  1.00  0.00     0.000 C 
HETATM   41  C   UNL     1      27.699  44.610  53.933  1.00  0.00     0.002 C 
HETATM   42  C   UNL     1      27.123  43.194  53.917  1.00  0.00     0.026 C 
ENDBRANCH  35  37
ENDBRANCH  32  35
ENDBRANCH  14  32
TORSDOF 8
ENDMDL
MODEL 2
REMARK VINA RESULT:      -9.7      0.590      9.435
REMARK  8 active torsions:
REMARK  status: ('A' for Active; 'I' for Inactive)
REMARK    1  A    between atoms: C_7  and  S_8 
REMARK    2  A    between atoms: S_8  and  N_9 
REMARK    3  A    between atoms: N_9  and  C_10 
REMARK    4  A    between atoms: C_19  and  N_20 
REMARK    5  A    between atoms: C_25  and  N_26 
REMARK    6  A    between atoms: C_30  and  S_31 
REMARK    7  A    between atoms: S_31  and  N_32 
REMARK    8  A    between atoms: N_32  and  C_33 
ROOT
HETATM    1  C   UNL     1      24.486  48.389  49.491  1.00  0.00     0.041 A 
HETATM    2  C   UNL     1      24.738  47.033  49.618  1.00  0.00     0.030 A 
HETATM    3  C   UNL     1      23.863  45.998  49.222  1.00  0.00     0.025 A 
HETATM    4  C   UNL     1      24.492  44.712  49.569  1.00  0.00     0.025 C 
HETATM    5  C   UNL     1      25.823  44.967  49.962  1.00  0.00     0.030 C 
HETATM    6  C   UNL     1      26.765  44.000  50.272  1.00  0.00     0.041 C 
HETATM    7  C   UNL     1      26.342  42.674  50.229  1.00  0.00     0.077 C 
HETATM    8  C   UNL     1      24.994  42.362  49.989  1.00  0.00     0.061 C 
HETATM    9  C   UNL     1      24.074  43.385  49.673  1.00  0.00     0.116 C 
HETATM   10  C   UNL     1      26.005  46.423  50.048  1.00  0.00     0.194 C 
HETATM   11  O   UNL     1      27.011  47.008  50.384  1.00  0.00    -0.287 OA
HETATM   12  C   UNL     1      22.719  46.402  48.530  1.00  0.00     0.116 A 
HETATM   13  C   UNL     1      22.415  47.773  48.375  1.00  0.00     0.062 A 
HETATM   14  C   UNL     1      23.300  48.750  48.861  1.00  0.00     0.082 A 
ENDROOT
BRANCH   7  15
HETATM   15  S   UNL     1      27.502  41.376  50.595  1.00  0.00     0.241 S 
HETATM   16  O   UNL     1      26.771  40.337  51.285  1.00  0.00    -0.206 OA
HETATM   17  O   UNL     1      28.277  41.111  49.407  1.00  0.00    -0.206 OA
BRANCH  15  18
HETATM   18  N   UNL     1      28.473  42.116  51.761  1.00  0.00    -0.211 NA
HETATM   19  H   UNL     1      28.575  43.103  51.515  1.00  0.00     0.140 HD
BRANCH  18  20
HETATM   20  C   UNL     1      28.198  41.868  53.201  1.00  0.00     0.071 C 
HETATM   21  C   UNL     1      29.478  41.862  54.040  1.00  0.00     0.020 C 
HETATM   22  C   UNL     1      30.149  43.232  54.108  1.00  0.00     0.002 C 
HETATM   23  C   UNL     1      29.186  44.296  54.621  1.00  0.00     0.000 C 
HETATM   24  C   UNL     1      27.902  44.336  53.801  1.00  0.00     0.002 C 
HETATM   25  C   UNL     1      27.241  42.960  53.710  1.00  0.00     0.020 C 
ENDBRANCH  18  20
ENDBRANCH  15  18
ENDBRANCH   7  15
BRANCH   9  26
HETATM   26  N   UNL     1      22.666  43.013  49.644  1.00  0.00    -0.115 N 
HETATM   27  O   UNL     1      21.959  43.444  50.564  1.00  0.00    -0.532 OA
HETATM   28  O   UNL     1      22.292  42.260  48.737  1.00  0.00    -0.532 OA
ENDBRANCH   9  26
BRANCH  12  29
HETATM   29  N   UNL     1      21.926  45.468  47.742  1.00  0.00    -0.115 N 
HETATM   30  O   UNL     1      22.475  44.978  46.746  1.00  0.00    -0.532 OA
HETATM   31  O   UNL     1      20.751  45.285  48.078  1.00  0.00    -0.532 OA
ENDBRANCH  12  29
BRANCH  14  32
HETATM   32  S   UNL     1      22.924  50.465  48.594  1.00  0.00     0.259 S 
HETATM   33  O   UNL     1      23.196  51.143  49.841  1.00  0.00    -0.201 OA
HETATM   34  O   UNL     1      23.515  50.880  47.344  1.00  0.00    -0.201 OA
BRANCH  32  35
HETATM   35  N   UNL     1      21.246  50.437  48.430  1.00  0.00    -0.311 N 
HETATM   36  H   UNL     1      20.943  49.482  48.227  1.00  0.00     0.172 HD
BRANCH  35  37
HETATM   37  C   UNL     1      20.399  51.195  49.382  1.00  0.00     0.093 C 
HETATM   38  C   UNL     1      19.443  52.149  48.660  1.00  0.00     0.026 C 
HETATM   39  C   UNL     1      18.385  51.415  47.838  1.00  0.00     0.002 C 
HETATM   40  C   UNL     1      17.600  50.429  48.699  1.00  0.00     0.000 C 
HETATM   41  C   UNL     1      18.522  49.461  49.435  1.00  0.00     0.002 C 
HETATM   42  C   UNL     1      19.598  50.196  50.234  1.00  0.00     0.026 C 
ENDBRANCH  35  37
ENDBRANCH  32  35
ENDBRANCH  14  32
TORSDOF 8
ENDMDL
MODEL 3
REMARK VINA RESULT:      -9.3      2.474      4.557
REMARK  8 active torsions:
REMARK  status: ('A' for Active; 'I' for Inactive)
REMARK    1  A    between atoms: C_7  and  S_8 
REMARK    2  A    between atoms: S_8  and  N_9 
REMARK    3  A    between atoms: N_9  and  C_10 
REMARK    4  A    between atoms: C_19  and  N_20 
REMARK    5  A    between atoms: C_25  and  N_26 
REMARK    6  A    between atoms: C_30  and  S_31 
REMARK    7  A    between atoms: S_31  and  N_32 
REMARK    8  A    between atoms: N_32  and  C_33 
ROOT
HETATM    1  C   UNL     1      23.796  45.450  49.587  1.00  0.00     0.041 A 
HETATM    2  C   UNL     1      22.998  46.450  49.059  1.00  0.00     0.030 A 
HETATM    3  C   UNL     1      23.378  47.800  48.897  1.00  0.00     0.025 A 
HETATM    4  C   UNL     1      22.228  48.535  48.342  1.00  0.00     0.025 C 
HETATM    5  C   UNL     1      21.246  47.593  47.968  1.00  0.00     0.030 C 
HETATM    6  C   UNL     1      20.058  47.890  47.320  1.00  0.00     0.041 C 
HETATM    7  C   UNL     1      19.803  49.234  47.060  1.00  0.00     0.077 C 
HETATM    8  C   UNL     1      20.669  50.230  47.538  1.00  0.00     0.061 C 
HETATM    9  C   UNL     1      21.871  49.875  48.188  1.00  0.00     0.116 C 
HETATM   10  C   UNL     1      21.675  46.269  48.442  1.00  0.00     0.194 C 
HETATM   11  O   UNL     1      21.069  45.227  48.327  1.00  0.00    -0.287 OA
HETATM   12  C   UNL     1      24.716  48.092  49.176  1.00  0.00     0.116 A 
HETATM   13  C   UNL     1      25.572  47.107  49.718  1.00  0.00     0.062 A 
HETATM   14  C   UNL     1      25.100  45.799  49.922  1.00  0.00     0.082 A 
ENDROOT
BRANCH   7  15
HETATM   15  S   UNL     1      18.306  49.689  46.215  1.00  0.00     0.241 S 
HETATM   16  O   UNL     1      18.696  50.384  45.008  1.00  0.00    -0.206 OA
HETATM   17  O   UNL     1      17.430  48.542  46.192  1.00  0.00    -0.206 OA
BRANCH  15  18
HETATM   18  N   UNL     1      17.683  50.867  47.250  1.00  0.00    -0.211 NA
HETATM   19  H   UNL     1      17.119  51.516  46.695  1.00  0.00     0.140 HD
BRANCH  18  20
HETATM   20  C   UNL     1      17.056  50.452  48.532  1.00  0.00     0.071 C 
HETATM   21  C   UNL     1      17.861  50.920  49.747  1.00  0.00     0.020 C 
HETATM   22  C   UNL     1      17.863  52.439  49.907  1.00  0.00     0.002 C 
HETATM   23  C   UNL     1      16.443  52.991  49.969  1.00  0.00     0.000 C 
HETATM   24  C   UNL     1      15.614  52.550  48.768  1.00  0.00     0.002 C 
HETATM   25  C   UNL     1      15.632  51.032  48.589  1.00  0.00     0.020 C 
ENDBRANCH  18  20
ENDBRANCH  15  18
ENDBRANCH   7  15
BRANCH   9  26
HETATM   26  N   UNL     1      22.608  50.951  48.836  1.00  0.00    -0.115 N 
HETATM   27  O   UNL     1      23.182  51.758  48.092  1.00  0.00    -0.532 OA
HETATM   28  O   UNL     1      22.647  50.955  50.072  1.00  0.00    -0.532 OA
ENDBRANCH   9  26
BRANCH  12  29
HETATM   29  N   UNL     1      25.349  49.318  48.711  1.00  0.00    -0.115 N 
HETATM   30  O   UNL     1      25.258  49.565  47.501  1.00  0.00    -0.532 OA
HETATM   31  O   UNL     1      25.986  49.984  49.535  1.00  0.00    -0.532 OA
ENDBRANCH  12  29
BRANCH  14  32
HETATM   32  S   UNL     1      26.217  44.566  50.543  1.00  0.00     0.259 S 
HETATM   33  O   UNL     1      25.399  43.476  51.020  1.00  0.00    -0.201 OA
HETATM   34  O   UNL     1      27.277  44.374  49.582  1.00  0.00    -0.201 OA
BRANCH  32  35
HETATM   35  N   UNL     1      26.846  45.319  51.915  1.00  0.00    -0.311 N 
HETATM   36  H   UNL     1      27.106  46.280  51.683  1.00  0.00     0.172 HD
BRANCH  35  37
HETATM   37  C   UNL     1      26.186  45.127  53.229  1.00  0.00     0.093 C 
HETATM   38  C   UNL     1      27.073  44.350  54.205  1.00  0.00     0.026 C 
HETATM   39  C   UNL     1      28.326  45.125  54.610  1.00  0.00     0.002 C 
HETATM   40  C   UNL     1      27.968  46.491  55.190  1.00  0.00     0.000 C 
HETATM   41  C   UNL     1      27.083  47.295  54.243  1.00  0.00     0.002 C 
HETATM   42  C   UNL     1      25.844  46.508  53.815  1.00  0.00     0.026 C 
ENDBRANCH  35  37
ENDBRANCH  32  35
ENDBRANCH  14  32
TORSDOF 8
ENDMDL
MODEL 4
REMARK VINA RESULT:      -9.0      2.676      4.176
REMARK  8 active torsions:
REMARK  status: ('A' for Active; 'I' for Inactive)
REMARK    1  A    between atoms: C_7  and  S_8 
REMARK    2  A    between atoms: S_8  and  N_9 
REMARK    3  A    between atoms: N_9  and  C_10 
REMARK    4  A    between atoms: C_19  and  N_20 
REMARK    5  A    between atoms: C_25  and  N_26 
REMARK    6  A    between atoms: C_30  and  S_31 
REMARK    7  A    between atoms: S_31  and  N_32 
REMARK    8  A    between atoms: N_32  and  C_33 
ROOT
HETATM    1  C   UNL     1      24.060  47.843  49.339  1.00  0.00     0.041 A 
HETATM    2  C   UNL     1      22.746  47.691  48.929  1.00  0.00     0.030 A 
HETATM    3  C   UNL     1      22.124  46.462  48.618  1.00  0.00     0.025 A 
HETATM    4  C   UNL     1      20.744  46.746  48.188  1.00  0.00     0.025 C 
HETATM    5  C   UNL     1      20.474  48.106  48.451  1.00  0.00     0.030 C 
HETATM    6  C   UNL     1      19.249  48.728  48.272  1.00  0.00     0.041 C 
HETATM    7  C   UNL     1      18.219  47.950  47.750  1.00  0.00     0.077 C 
HETATM    8  C   UNL     1      18.463  46.633  47.329  1.00  0.00     0.061 C 
HETATM    9  C   UNL     1      19.728  46.042  47.539  1.00  0.00     0.116 C 
HETATM   10  C   UNL     1      21.725  48.748  48.880  1.00  0.00     0.194 C 
HETATM   11  O   UNL     1      21.880  49.916  49.162  1.00  0.00    -0.287 OA
HETATM   12  C   UNL     1      22.876  45.316  48.883  1.00  0.00     0.116 A 
HETATM   13  C   UNL     1      24.222  45.417  49.302  1.00  0.00     0.062 A 
HETATM   14  C   UNL     1      24.799  46.679  49.520  1.00  0.00     0.082 A 
ENDROOT
BRANCH   7  15
HETATM   15  S   UNL     1      16.613  48.675  47.510  1.00  0.00     0.241 S 
HETATM   16  O   UNL     1      16.558  49.139  46.142  1.00  0.00    -0.206 OA
HETATM   17  O   UNL     1      15.624  47.779  48.058  1.00  0.00    -0.206 OA
BRANCH  15  18
HETATM   18  N   UNL     1      16.726  50.061  48.467  1.00  0.00    -0.211 NA
HETATM   19  H   UNL     1      17.456  49.908  49.167  1.00  0.00     0.140 HD
BRANCH  18  20
HETATM   20  C   UNL     1      16.772  51.395  47.814  1.00  0.00     0.071 C 
HETATM   21  C   UNL     1      15.462  52.168  47.990  1.00  0.00     0.020 C 
HETATM   22  C   UNL     1      15.199  52.567  49.440  1.00  0.00     0.002 C 
HETATM   23  C   UNL     1      16.364  53.364  50.016  1.00  0.00     0.000 C 
HETATM   24  C   UNL     1      17.685  52.618  49.865  1.00  0.00     0.002 C 
HETATM   25  C   UNL     1      17.939  52.195  48.418  1.00  0.00     0.020 C 
ENDBRANCH  18  20
ENDBRANCH  15  18
ENDBRANCH   7  15
BRANCH   9  26
HETATM   26  N   UNL     1      19.968  44.760  46.893  1.00  0.00    -0.115 N 
HETATM   27  O   UNL     1      20.770  44.753  45.950  1.00  0.00    -0.532 OA
HETATM   28  O   UNL     1      19.322  43.786  47.298  1.00  0.00    -0.532 OA
ENDBRANCH   9  26
BRANCH  12  29
HETATM   29  N   UNL     1      22.265  43.997  48.976  1.00  0.00    -0.115 N 
HETATM   30  O   UNL     1      22.583  43.177  48.103  1.00  0.00    -0.532 OA
HETATM   31  O   UNL     1      21.429  43.812  49.867  1.00  0.00    -0.532 OA
ENDBRANCH  12  29
BRANCH  14  32
HETATM   32  S   UNL     1      26.472  46.774  50.109  1.00  0.00     0.259 S 
HETATM   33  O   UNL     1      27.238  45.842  49.315  1.00  0.00    -0.201 OA
HETATM   34  O   UNL     1      26.840  48.164  50.239  1.00  0.00    -0.201 OA
BRANCH  32  35
HETATM   35  N   UNL     1      26.344  46.090  51.645  1.00  0.00    -0.311 N 
HETATM   36  H   UNL     1      25.558  46.516  52.140  1.00  0.00     0.172 HD
BRANCH  35  37
HETATM   37  C   UNL     1      26.496  44.624  51.816  1.00  0.00     0.093 C 
HETATM   38  C   UNL     1      27.811  44.265  52.514  1.00  0.00     0.026 C 
HETATM   39  C   UNL     1      27.858  44.741  53.965  1.00  0.00     0.002 C 
HETATM   40  C   UNL     1      26.670  44.207  54.762  1.00  0.00     0.000 C 
HETATM   41  C   UNL     1      25.341  44.548  54.094  1.00  0.00     0.002 C 
HETATM   42  C   UNL     1      25.306  44.097  52.634  1.00  0.00     0.026 C 
ENDBRANCH  35  37
ENDBRANCH  32  35
ENDBRANCH  14  32
TORSDOF 8
ENDMDL
MODEL 5
REMARK VINA RESULT:      -8.9      2.671      9.740
REMARK  8 active torsions:
REMARK  status: ('A' for Active; 'I' for Inactive)
REMARK    1  A    between atoms: C_7  and  S_8 
REMARK    2  A    between atoms: S_8  and  N_9 
REMARK    3  A    between atoms: N_9  and  C_10 
REMARK    4  A    between atoms: C_19  and  N_20 
REMARK    5  A    between atoms: C_25  and  N_26 
REMARK    6  A    between atoms: C_30  and  S_31 
REMARK    7  A    between atoms: S_31  and  N_32 
REMARK    8  A    between atoms: N_32  and  C_33 
ROOT
HETATM    1  C   UNL     1      19.268  48.698  48.240  1.00  0.00     0.041 A 
HETATM    2  C   UNL     1      20.475  48.068  48.490  1.00  0.00     0.030 A 
HETATM    3  C   UNL     1      20.791  46.737  48.140  1.00  0.00     0.025 A 
HETATM    4  C   UNL     1      22.154  46.451  48.622  1.00  0.00     0.025 C 
HETATM    5  C   UNL     1      22.729  47.664  49.057  1.00  0.00     0.030 C 
HETATM    6  C   UNL     1      24.036  47.820  49.491  1.00  0.00     0.041 C 
HETATM    7  C   UNL     1      24.823  46.673  49.537  1.00  0.00     0.077 C 
HETATM    8  C   UNL     1      24.268  45.413  49.259  1.00  0.00     0.061 C 
HETATM    9  C   UNL     1      22.932  45.309  48.815  1.00  0.00     0.116 C 
HETATM   10  C   UNL     1      21.688  48.702  49.030  1.00  0.00     0.194 C 
HETATM   11  O   UNL     1      21.811  49.859  49.364  1.00  0.00    -0.287 OA
HETATM   12  C   UNL     1      19.841  46.072  47.362  1.00  0.00     0.116 A 
HETATM   13  C   UNL     1      18.592  46.670  47.080  1.00  0.00     0.062 A 
HETATM   14  C   UNL     1      18.319  47.974  47.526  1.00  0.00     0.082 A 
ENDROOT
BRANCH   7  15
HETATM   15  S   UNL     1      26.517  46.799  50.065  1.00  0.00     0.241 S 
HETATM   16  O   UNL     1      27.278  45.857  49.276  1.00  0.00    -0.206 OA
HETATM   17  O   UNL     1      26.866  48.198  50.140  1.00  0.00    -0.206 OA
BRANCH  15  18
HETATM   18  N   UNL     1      26.432  46.144  51.618  1.00  0.00    -0.211 NA
HETATM   19  H   UNL     1      25.661  46.596  52.116  1.00  0.00     0.140 HD
BRANCH  18  20
HETATM   20  C   UNL     1      26.492  44.668  51.790  1.00  0.00     0.071 C 
HETATM   21  C   UNL     1      27.792  44.218  52.460  1.00  0.00     0.020 C 
HETATM   22  C   UNL     1      27.903  44.681  53.911  1.00  0.00     0.002 C 
HETATM   23  C   UNL     1      26.701  44.226  54.731  1.00  0.00     0.000 C 
HETATM   24  C   UNL     1      25.387  44.666  54.096  1.00  0.00     0.002 C 
HETATM   25  C   UNL     1      25.284  44.226  52.635  1.00  0.00     0.020 C 
ENDBRANCH  18  20
ENDBRANCH  15  18
ENDBRANCH   7  15
BRANCH   9  26
HETATM   26  N   UNL     1      22.367  43.968  48.750  1.00  0.00    -0.115 N 
HETATM   27  O   UNL     1      21.546  43.667  49.627  1.00  0.00    -0.532 OA
HETATM   28  O   UNL     1      22.779  43.216  47.858  1.00  0.00    -0.532 OA
ENDBRANCH   9  26
BRANCH  12  29
HETATM   29  N   UNL     1      20.165  44.863  46.617  1.00  0.00    -0.115 N 
HETATM   30  O   UNL     1      19.597  43.823  46.976  1.00  0.00    -0.532 OA
HETATM   31  O   UNL     1      21.027  44.945  45.735  1.00  0.00    -0.532 OA
ENDBRANCH  12  29
BRANCH  14  32
HETATM   32  S   UNL     1      16.767  48.724  47.100  1.00  0.00     0.259 S 
HETATM   33  O   UNL     1      16.928  49.274  45.774  1.00  0.00    -0.201 OA
HETATM   34  O   UNL     1      15.702  47.808  47.433  1.00  0.00    -0.201 OA
BRANCH  32  35
HETATM   35  N   UNL     1      16.711  50.042  48.152  1.00  0.00    -0.311 N 
HETATM   36  H   UNL     1      17.304  49.852  48.963  1.00  0.00     0.172 HD
BRANCH  35  37
HETATM   37  C   UNL     1      16.779  51.421  47.611  1.00  0.00     0.093 C 
HETATM   38  C   UNL     1      15.502  52.213  47.907  1.00  0.00     0.026 C 
HETATM   39  C   UNL     1      15.309  52.486  49.398  1.00  0.00     0.002 C 
HETATM   40  C   UNL     1      16.523  53.194  49.993  1.00  0.00     0.000 C 
HETATM   41  C   UNL     1      17.815  52.432  49.717  1.00  0.00     0.002 C 
HETATM   42  C   UNL     1      17.994  52.134  48.228  1.00  0.00     0.026 C 
ENDBRANCH  35  37
ENDBRANCH  32  35
ENDBRANCH  14  32
TORSDOF 8
ENDMDL
MODEL 6
REMARK VINA RESULT:      -8.9      2.964      5.165
REMARK  8 active torsions:
REMARK  status: ('A' for Active; 'I' for Inactive)
REMARK    1  A    between atoms: C_7  and  S_8 
REMARK    2  A    between atoms: S_8  and  N_9 
REMARK    3  A    between atoms: N_9  and  C_10 
REMARK    4  A    between atoms: C_19  and  N_20 
REMARK    5  A    between atoms: C_25  and  N_26 
REMARK    6  A    between atoms: C_30  and  S_31 
REMARK    7  A    between atoms: S_31  and  N_32 
REMARK    8  A    between atoms: N_32  and  C_33 
ROOT
HETATM    1  C   UNL     1      23.476  45.576  49.258  1.00  0.00     0.041 A 
HETATM    2  C   UNL     1      22.350  46.315  48.937  1.00  0.00     0.030 A 
HETATM    3  C   UNL     1      22.299  47.722  48.824  1.00  0.00     0.025 A 
HETATM    4  C   UNL     1      20.912  48.104  48.510  1.00  0.00     0.025 C 
HETATM    5  C   UNL     1      20.188  46.928  48.218  1.00  0.00     0.030 C 
HETATM    6  C   UNL     1      18.873  46.884  47.784  1.00  0.00     0.041 C 
HETATM    7  C   UNL     1      18.208  48.103  47.671  1.00  0.00     0.077 C 
HETATM    8  C   UNL     1      18.824  49.294  48.087  1.00  0.00     0.061 C 
HETATM    9  C   UNL     1      20.169  49.286  48.517  1.00  0.00     0.116 C 
HETATM   10  C   UNL     1      21.048  45.774  48.517  1.00  0.00     0.194 C 
HETATM   11  O   UNL     1      20.751  44.604  48.415  1.00  0.00    -0.287 OA
HETATM   12  C   UNL     1      23.526  48.383  48.917  1.00  0.00     0.116 A 
HETATM   13  C   UNL     1      24.705  47.675  49.245  1.00  0.00     0.062 A 
HETATM   14  C   UNL     1      24.664  46.281  49.416  1.00  0.00     0.082 A 
ENDROOT
BRANCH   7  15
HETATM   15  S   UNL     1      16.524  48.126  47.102  1.00  0.00     0.241 S 
HETATM   16  O   UNL     1      16.476  47.345  45.887  1.00  0.00    -0.206 OA
HETATM   17  O   UNL     1      15.660  47.852  48.226  1.00  0.00    -0.206 OA
BRANCH  15  18
HETATM   18  N   UNL     1      16.354  49.737  46.627  1.00  0.00    -0.211 NA
HETATM   19  H   UNL     1      16.981  50.308  47.199  1.00  0.00     0.140 HD
BRANCH  18  20
HETATM   20  C   UNL     1      16.367  50.074  45.179  1.00  0.00     0.071 C 
HETATM   21  C   UNL     1      15.065  50.745  44.732  1.00  0.00     0.020 C 
HETATM   22  C   UNL     1      14.869  52.129  45.347  1.00  0.00     0.002 C 
HETATM   23  C   UNL     1      16.059  53.037  45.058  1.00  0.00     0.000 C 
HETATM   24  C   UNL     1      17.373  52.403  45.500  1.00  0.00     0.002 C 
HETATM   25  C   UNL     1      17.560  51.006  44.906  1.00  0.00     0.020 C 
ENDBRANCH  18  20
ENDBRANCH  15  18
ENDBRANCH   7  15
BRANCH   9  26
HETATM   26  N   UNL     1      20.669  50.510  49.126  1.00  0.00    -0.115 N 
HETATM   27  O   UNL     1      20.873  51.466  48.366  1.00  0.00    -0.532 OA
HETATM   28  O   UNL     1      20.898  50.493  50.341  1.00  0.00    -0.532 OA
ENDBRANCH   9  26
BRANCH  12  29
HETATM   29  N   UNL     1      23.699  49.754  48.458  1.00  0.00    -0.115 N 
HETATM   30  O   UNL     1      23.921  50.606  49.330  1.00  0.00    -0.532 OA
HETATM   31  O   UNL     1      23.545  49.981  47.253  1.00  0.00    -0.532 OA
ENDBRANCH  12  29
BRANCH  14  32
HETATM   32  S   UNL     1      26.173  45.410  49.762  1.00  0.00     0.259 S 
HETATM   33  O   UNL     1      25.938  44.029  49.410  1.00  0.00    -0.201 OA
HETATM   34  O   UNL     1      27.279  46.166  49.225  1.00  0.00    -0.201 OA
BRANCH  32  35
HETATM   35  N   UNL     1      26.232  45.463  51.446  1.00  0.00    -0.311 N 
HETATM   36  H   UNL     1      25.729  46.289  51.776  1.00  0.00     0.172 HD
BRANCH  35  37
HETATM   37  C   UNL     1      26.022  44.222  52.231  1.00  0.00     0.093 C 
HETATM   38  C   UNL     1      27.336  43.477  52.482  1.00  0.00     0.026 C 
HETATM   39  C   UNL     1      28.288  44.249  53.394  1.00  0.00     0.002 C 
HETATM   40  C   UNL     1      27.619  44.606  54.718  1.00  0.00     0.000 C 
HETATM   41  C   UNL     1      26.305  45.352  54.506  1.00  0.00     0.002 C 
HETATM   42  C   UNL     1      25.364  44.593  53.571  1.00  0.00     0.026 C 
ENDBRANCH  35  37
ENDBRANCH  32  35
ENDBRANCH  14  32
TORSDOF 8
ENDMDL
MODEL 7
REMARK VINA RESULT:      -8.7      3.002      4.218
REMARK  8 active torsions:
REMARK  status: ('A' for Active; 'I' for Inactive)
REMARK    1  A    between atoms: C_7  and  S_8 
REMARK    2  A    between atoms: S_8  and  N_9 
REMARK    3  A    between atoms: N_9  and  C_10 
REMARK    4  A    between atoms: C_19  and  N_20 
REMARK    5  A    between atoms: C_25  and  N_26 
REMARK    6  A    between atoms: C_30  and  S_31 
REMARK    7  A    between atoms: S_31  and  N_32 
REMARK    8  A    between atoms: N_32  and  C_33 
ROOT
HETATM    1  C   UNL     1      24.475  47.423  49.597  1.00  0.00     0.041 A 
HETATM    2  C   UNL     1      23.252  47.888  49.142  1.00  0.00     0.030 A 
HETATM    3  C   UNL     1      22.227  47.090  48.590  1.00  0.00     0.025 A 
HETATM    4  C   UNL     1      21.119  47.978  48.198  1.00  0.00     0.025 C 
HETATM    5  C   UNL     1      21.385  49.264  48.714  1.00  0.00     0.030 C 
HETATM    6  C   UNL     1      20.529  50.351  48.636  1.00  0.00     0.041 C 
HETATM    7  C   UNL     1      19.329  50.158  47.955  1.00  0.00     0.077 C 
HETATM    8  C   UNL     1      19.071  48.947  47.293  1.00  0.00     0.061 C 
HETATM    9  C   UNL     1      19.974  47.867  47.409  1.00  0.00     0.116 C 
HETATM   10  C   UNL     1      22.742  49.261  49.280  1.00  0.00     0.194 C 
HETATM   11  O   UNL     1      23.319  50.199  49.784  1.00  0.00    -0.287 OA
HETATM   12  C   UNL     1      22.437  45.710  48.643  1.00  0.00     0.116 A 
HETATM   13  C   UNL     1      23.667  45.183  49.097  1.00  0.00     0.062 A 
HETATM   14  C   UNL     1      24.673  46.046  49.564  1.00  0.00     0.082 A 
ENDROOT
BRANCH   7  15
HETATM   15  S   UNL     1      18.171  51.502  47.831  1.00  0.00     0.241 S 
HETATM   16  O   UNL     1      16.872  50.975  48.184  1.00  0.00    -0.206 OA
HETATM   17  O   UNL     1      18.739  52.653  48.493  1.00  0.00    -0.206 OA
BRANCH  15  18
HETATM   18  N   UNL     1      18.134  51.758  46.164  1.00  0.00    -0.211 NA
HETATM   19  H   UNL     1      18.991  51.372  45.760  1.00  0.00     0.140 HD
BRANCH  18  20
HETATM   20  C   UNL     1      16.898  51.432  45.405  1.00  0.00     0.071 C 
HETATM   21  C   UNL     1      16.203  52.686  44.868  1.00  0.00     0.020 C 
HETATM   22  C   UNL     1      17.019  53.403  43.794  1.00  0.00     0.002 C 
HETATM   23  C   UNL     1      17.372  52.462  42.647  1.00  0.00     0.000 C 
HETATM   24  C   UNL     1      18.074  51.204  43.146  1.00  0.00     0.002 C 
HETATM   25  C   UNL     1      17.271  50.499  44.240  1.00  0.00     0.020 C 
ENDBRANCH  18  20
ENDBRANCH  15  18
ENDBRANCH   7  15
BRANCH   9  26
HETATM   26  N   UNL     1      19.746  46.727  46.533  1.00  0.00    -0.115 N 
HETATM   27  O   UNL     1      20.574  46.544  45.631  1.00  0.00    -0.532 OA
HETATM   28  O   UNL     1      18.724  46.056  46.721  1.00  0.00    -0.532 OA
ENDBRANCH   9  26
BRANCH  12  29
HETATM   29  N   UNL     1      21.348  44.758  48.470  1.00  0.00    -0.115 N 
HETATM   30  O   UNL     1      20.422  44.821  49.289  1.00  0.00    -0.532 OA
HETATM   31  O   UNL     1      21.457  43.918  47.569  1.00  0.00    -0.532 OA
ENDBRANCH  12  29
BRANCH  14  32
HETATM   32  S   UNL     1      26.183  45.353  50.189  1.00  0.00     0.259 S 
HETATM   33  O   UNL     1      25.863  44.021  50.649  1.00  0.00    -0.201 OA
HETATM   34  O   UNL     1      27.240  45.608  49.239  1.00  0.00    -0.201 OA
BRANCH  32  35
HETATM   35  N   UNL     1      26.450  46.278  51.573  1.00  0.00    -0.311 N 
HETATM   36  H   UNL     1      26.491  47.267  51.316  1.00  0.00     0.172 HD
BRANCH  35  37
HETATM   37  C   UNL     1      25.715  45.966  52.823  1.00  0.00     0.093 C 
HETATM   38  C   UNL     1      26.312  44.757  53.549  1.00  0.00     0.026 C 
HETATM   39  C   UNL     1      27.716  45.027  54.089  1.00  0.00     0.002 C 
HETATM   40  C   UNL     1      27.734  46.254  54.996  1.00  0.00     0.000 C 
HETATM   41  C   UNL     1      27.146  47.479  54.304  1.00  0.00     0.002 C 
HETATM   42  C   UNL     1      25.753  47.200  53.739  1.00  0.00     0.026 C 
ENDBRANCH  35  37
ENDBRANCH  32  35
ENDBRANCH  14  32
TORSDOF 8
ENDMDL
MODEL 8
REMARK VINA RESULT:      -8.5      3.600      5.894
REMARK  8 active torsions:
REMARK  status: ('A' for Active; 'I' for Inactive)
REMARK    1  A    between atoms: C_7  and  S_8 
REMARK    2  A    between atoms: S_8  and  N_9 
REMARK    3  A    between atoms: N_9  and  C_10 
REMARK    4  A    between atoms: C_19  and  N_20 
REMARK    5  A    between atoms: C_25  and  N_26 
REMARK    6  A    between atoms: C_30  and  S_31 
REMARK    7  A    between atoms: S_31  and  N_32 
REMARK    8  A    between atoms: N_32  and  C_33 
ROOT
HETATM    1  C   UNL     1      23.042  45.522  49.154  1.00  0.00     0.041 A 
HETATM    2  C   UNL     1      21.948  46.300  48.814  1.00  0.00     0.030 A 
HETATM    3  C   UNL     1      21.937  47.710  48.745  1.00  0.00     0.025 A 
HETATM    4  C   UNL     1      20.572  48.138  48.390  1.00  0.00     0.025 C 
HETATM    5  C   UNL     1      19.832  46.991  48.034  1.00  0.00     0.030 C 
HETATM    6  C   UNL     1      18.534  46.994  47.549  1.00  0.00     0.041 C 
HETATM    7  C   UNL     1      17.904  48.232  47.450  1.00  0.00     0.077 C 
HETATM    8  C   UNL     1      18.533  49.394  47.927  1.00  0.00     0.061 C 
HETATM    9  C   UNL     1      19.859  49.338  48.407  1.00  0.00     0.116 C 
HETATM   10  C   UNL     1      20.651  45.806  48.328  1.00  0.00     0.194 C 
HETATM   11  O   UNL     1      20.330  44.648  48.177  1.00  0.00    -0.287 OA
HETATM   12  C   UNL     1      23.175  48.336  48.905  1.00  0.00     0.116 A 
HETATM   13  C   UNL     1      24.322  47.588  49.254  1.00  0.00     0.062 A 
HETATM   14  C   UNL     1      24.241  46.191  49.379  1.00  0.00     0.082 A 
ENDROOT
BRANCH   7  15
HETATM   15  S   UNL     1      16.244  48.317  46.818  1.00  0.00     0.241 S 
HETATM   16  O   UNL     1      15.353  48.212  47.952  1.00  0.00    -0.206 OA
HETATM   17  O   UNL     1      16.170  49.414  45.882  1.00  0.00    -0.206 OA
BRANCH  15  18
HETATM   18  N   UNL     1      16.124  46.849  45.994  1.00  0.00    -0.211 NA
HETATM   19  H   UNL     1      15.364  46.308  46.412  1.00  0.00     0.140 HD
BRANCH  18  20
HETATM   20  C   UNL     1      16.135  46.846  44.507  1.00  0.00     0.071 C 
HETATM   21  C   UNL     1      17.556  46.826  43.940  1.00  0.00     0.020 C 
HETATM   22  C   UNL     1      18.294  45.522  44.235  1.00  0.00     0.002 C 
HETATM   23  C   UNL     1      17.508  44.315  43.734  1.00  0.00     0.000 C 
HETATM   24  C   UNL     1      16.087  44.300  44.288  1.00  0.00     0.002 C 
HETATM   25  C   UNL     1      15.355  45.614  44.016  1.00  0.00     0.020 C 
ENDBRANCH  18  20
ENDBRANCH  15  18
ENDBRANCH   7  15
BRANCH   9  26
HETATM   26  N   UNL     1      20.365  50.529  49.074  1.00  0.00    -0.115 N 
HETATM   27  O   UNL     1      20.631  51.499  48.352  1.00  0.00    -0.532 OA
HETATM   28  O   UNL     1      20.537  50.471  50.297  1.00  0.00    -0.532 OA
ENDBRANCH   9  26
BRANCH  12  29
HETATM   29  N   UNL     1      23.399  49.716  48.498  1.00  0.00    -0.115 N 
HETATM   30  O   UNL     1      23.371  49.946  47.281  1.00  0.00    -0.532 OA
HETATM   31  O   UNL     1      23.668  50.540  49.379  1.00  0.00    -0.532 OA
ENDBRANCH  12  29
BRANCH  14  32
HETATM   32  S   UNL     1      25.713  45.271  49.754  1.00  0.00     0.259 S 
HETATM   33  O   UNL     1      25.550  43.972  49.144  1.00  0.00    -0.201 OA
HETATM   34  O   UNL     1      26.861  46.107  49.496  1.00  0.00    -0.201 OA
BRANCH  32  35
HETATM   35  N   UNL     1      25.566  45.032  51.417  1.00  0.00    -0.311 N 
HETATM   36  H   UNL     1      25.175  44.103  51.591  1.00  0.00     0.172 HD
BRANCH  35  37
HETATM   37  C   UNL     1      26.663  45.451  52.322  1.00  0.00     0.093 C 
HETATM   38  C   UNL     1      26.149  45.784  53.726  1.00  0.00     0.026 C 
HETATM   39  C   UNL     1      25.606  44.559  54.461  1.00  0.00     0.002 C 
HETATM   40  C   UNL     1      26.648  43.446  54.527  1.00  0.00     0.000 C 
HETATM   41  C   UNL     1      27.183  43.088  53.145  1.00  0.00     0.002 C 
HETATM   42  C   UNL     1      27.700  44.318  52.398  1.00  0.00     0.026 C 
ENDBRANCH  35  37
ENDBRANCH  32  35
ENDBRANCH  14  32
TORSDOF 8
ENDMDL
MODEL 9
REMARK VINA RESULT:      -8.4      5.728      7.860
REMARK  8 active torsions:
REMARK  status: ('A' for Active; 'I' for Inactive)
REMARK    1  A    between atoms: C_7  and  S_8 
REMARK    2  A    between atoms: S_8  and  N_9 
REMARK    3  A    between atoms: N_9  and  C_10 
REMARK    4  A    between atoms: C_19  and  N_20 
REMARK    5  A    between atoms: C_25  and  N_26 
REMARK    6  A    between atoms: C_30  and  S_31 
REMARK    7  A    between atoms: S_31  and  N_32 
REMARK    8  A    between atoms: N_32  and  C_33 
ROOT
HETATM    1  C   UNL     1      26.384  42.792  51.429  1.00  0.00     0.041 A 
HETATM    2  C   UNL     1      25.683  42.162  50.414  1.00  0.00     0.030 A 
HETATM    3  C   UNL     1      26.184  41.130  49.592  1.00  0.00     0.025 A 
HETATM    4  C   UNL     1      25.137  40.771  48.620  1.00  0.00     0.025 C 
HETATM    5  C   UNL     1      23.945  41.426  48.999  1.00  0.00     0.030 C 
HETATM    6  C   UNL     1      22.713  41.263  48.386  1.00  0.00     0.041 C 
HETATM    7  C   UNL     1      22.668  40.416  47.282  1.00  0.00     0.077 C 
HETATM    8  C   UNL     1      23.846  39.852  46.766  1.00  0.00     0.061 C 
HETATM    9  C   UNL     1      25.076  40.044  47.431  1.00  0.00     0.116 C 
HETATM   10  C   UNL     1      24.257  42.346  50.102  1.00  0.00     0.194 C 
HETATM   11  O   UNL     1      23.486  43.094  50.662  1.00  0.00    -0.287 OA
HETATM   12  C   UNL     1      27.443  40.633  49.940  1.00  0.00     0.116 A 
HETATM   13  C   UNL     1      28.200  41.242  50.967  1.00  0.00     0.062 A 
HETATM   14  C   UNL     1      27.663  42.316  51.696  1.00  0.00     0.082 A 
ENDROOT
BRANCH   7  15
HETATM   15  S   UNL     1      21.117  40.143  46.456  1.00  0.00     0.241 S 
HETATM   16  O   UNL     1      20.349  41.361  46.584  1.00  0.00    -0.206 OA
HETATM   17  O   UNL     1      21.386  39.536  45.174  1.00  0.00    -0.206 OA
BRANCH  15  18
HETATM   18  N   UNL     1      20.385  39.020  47.481  1.00  0.00    -0.211 NA
HETATM   19  H   UNL     1      20.137  39.495  48.353  1.00  0.00     0.140 HD
BRANCH  18  20
HETATM   20  C   UNL     1      19.322  38.130  46.945  1.00  0.00     0.071 C 
HETATM   21  C   UNL     1      19.826  36.702  46.718  1.00  0.00     0.020 C 
HETATM   22  C   UNL     1      20.174  35.983  48.020  1.00  0.00     0.002 C 
HETATM   23  C   UNL     1      18.993  35.979  48.984  1.00  0.00     0.000 C 
HETATM   24  C   UNL     1      18.471  37.389  49.239  1.00  0.00     0.002 C 
HETATM   25  C   UNL     1      18.146  38.121  47.937  1.00  0.00     0.020 C 
ENDBRANCH  18  20
ENDBRANCH  15  18
ENDBRANCH   7  15
BRANCH   9  26
HETATM   26  N   UNL     1      26.275  39.609  46.728  1.00  0.00    -0.115 N 
HETATM   27  O   UNL     1      26.453  38.388  46.636  1.00  0.00    -0.532 OA
HETATM   28  O   UNL     1      27.047  40.484  46.318  1.00  0.00    -0.532 OA
ENDBRANCH   9  26
BRANCH  12  29
HETATM   29  N   UNL     1      27.928  39.352  49.448  1.00  0.00    -0.115 N 
HETATM   30  O   UNL     1      27.290  38.348  49.792  1.00  0.00    -0.532 OA
HETATM   31  O   UNL     1      28.972  39.348  48.785  1.00  0.00    -0.532 OA
ENDBRANCH  12  29
BRANCH  14  32
HETATM   32  S   UNL     1      28.611  43.018  53.023  1.00  0.00     0.259 S 
HETATM   33  O   UNL     1      28.309  42.236  54.199  1.00  0.00    -0.201 OA
HETATM   34  O   UNL     1      29.964  43.233  52.564  1.00  0.00    -0.201 OA
BRANCH  32  35
HETATM   35  N   UNL     1      27.859  44.511  53.244  1.00  0.00    -0.311 N 
HETATM   36  H   UNL     1      27.325  44.747  52.404  1.00  0.00     0.172 HD
BRANCH  35  37
HETATM   37  C   UNL     1      27.202  44.822  54.536  1.00  0.00     0.093 C 
HETATM   38  C   UNL     1      28.184  45.423  55.545  1.00  0.00     0.026 C 
HETATM   39  C   UNL     1      28.689  46.803  55.127  1.00  0.00     0.002 C 
HETATM   40  C   UNL     1      27.530  47.764  54.877  1.00  0.00     0.000 C 
HETATM   41  C   UNL     1      26.530  47.197  53.874  1.00  0.00     0.002 C 
HETATM   42  C   UNL     1      26.047  45.804  54.278  1.00  0.00     0.026 C 
ENDBRANCH  35  37
ENDBRANCH  32  35
ENDBRANCH  14  32
TORSDOF 8
ENDMDL
MODEL 10
REMARK VINA RESULT:      -8.4      3.569      6.320
REMARK  8 active torsions:
REMARK  status: ('A' for Active; 'I' for Inactive)
REMARK    1  A    between atoms: C_7  and  S_8 
REMARK    2  A    between atoms: S_8  and  N_9 
REMARK    3  A    between atoms: N_9  and  C_10 
REMARK    4  A    between atoms: C_19  and  N_20 
REMARK    5  A    between atoms: C_25  and  N_26 
REMARK    6  A    between atoms: C_30  and  S_31 
REMARK    7  A    between atoms: S_31  and  N_32 
REMARK    8  A    between atoms: N_32  and  C_33 
ROOT
HETATM    1  C   UNL     1      23.493  45.711  49.370  1.00  0.00     0.041 A 
HETATM    2  C   UNL     1      22.355  46.401  48.990  1.00  0.00     0.030 A 
HETATM    3  C   UNL     1      22.253  47.803  48.861  1.00  0.00     0.025 A 
HETATM    4  C   UNL     1      20.867  48.126  48.480  1.00  0.00     0.025 C 
HETATM    5  C   UNL     1      20.206  46.919  48.168  1.00  0.00     0.030 C 
HETATM    6  C   UNL     1      18.914  46.818  47.675  1.00  0.00     0.041 C 
HETATM    7  C   UNL     1      18.207  48.008  47.519  1.00  0.00     0.077 C 
HETATM    8  C   UNL     1      18.755  49.226  47.951  1.00  0.00     0.061 C 
HETATM    9  C   UNL     1      20.078  49.277  48.441  1.00  0.00     0.116 C 
HETATM   10  C   UNL     1      21.097  45.803  48.518  1.00  0.00     0.194 C 
HETATM   11  O   UNL     1      20.852  44.622  48.414  1.00  0.00    -0.287 OA
HETATM   12  C   UNL     1      23.447  48.514  49.003  1.00  0.00     0.116 A 
HETATM   13  C   UNL     1      24.636  47.858  49.391  1.00  0.00     0.062 A 
HETATM   14  C   UNL     1      24.644  46.465  49.574  1.00  0.00     0.082 A 
ENDROOT
BRANCH   7  15
HETATM   15  S   UNL     1      16.551  47.958  46.873  1.00  0.00     0.241 S 
HETATM   16  O   UNL     1      15.662  47.777  47.999  1.00  0.00    -0.206 OA
HETATM   17  O   UNL     1      16.395  49.047  45.939  1.00  0.00    -0.206 OA
BRANCH  15  18
HETATM   18  N   UNL     1      16.559  46.487  46.046  1.00  0.00    -0.211 NA
HETATM   19  H   UNL     1      15.714  45.970  46.302  1.00  0.00     0.140 HD
BRANCH  18  20
HETATM   20  C   UNL     1      16.869  46.472  44.592  1.00  0.00     0.071 C 
HETATM   21  C   UNL     1      18.162  45.710  44.287  1.00  0.00     0.020 C 
HETATM   22  C   UNL     1      18.050  44.214  44.572  1.00  0.00     0.002 C 
HETATM   23  C   UNL     1      16.880  43.592  43.819  1.00  0.00     0.000 C 
HETATM   24  C   UNL     1      15.573  44.322  44.108  1.00  0.00     0.002 C 
HETATM   25  C   UNL     1      15.689  45.824  43.847  1.00  0.00     0.020 C 
ENDBRANCH  18  20
ENDBRANCH  15  18
ENDBRANCH   7  15
BRANCH   9  26
HETATM   26  N   UNL     1      20.500  50.525  49.059  1.00  0.00    -0.115 N 
HETATM   27  O   UNL     1      20.580  50.534  50.295  1.00  0.00    -0.532 OA
HETATM   28  O   UNL     1      20.700  51.493  48.316  1.00  0.00    -0.532 OA
ENDBRANCH   9  26
BRANCH  12  29
HETATM   29  N   UNL     1      23.585  49.888  48.538  1.00  0.00    -0.115 N 
HETATM   30  O   UNL     1      23.586  50.060  47.312  1.00  0.00    -0.532 OA
HETATM   31  O   UNL     1      23.759  50.768  49.389  1.00  0.00    -0.532 OA
ENDBRANCH  12  29
BRANCH  14  32
HETATM   32  S   UNL     1      26.169  45.659  49.998  1.00  0.00     0.259 S 
HETATM   33  O   UNL     1      27.211  46.345  49.269  1.00  0.00    -0.201 OA
HETATM   34  O   UNL     1      26.217  45.480  51.430  1.00  0.00    -0.201 OA
BRANCH  32  35
HETATM   35  N   UNL     1      25.990  44.154  49.258  1.00  0.00    -0.311 N 
HETATM   36  H   UNL     1      26.512  44.146  48.379  1.00  0.00     0.172 HD
BRANCH  35  37
HETATM   37  C   UNL     1      26.076  42.917  50.072  1.00  0.00     0.093 C 
HETATM   38  C   UNL     1      24.707  42.254  50.248  1.00  0.00     0.026 C 
HETATM   39  C   UNL     1      24.141  41.711  48.937  1.00  0.00     0.002 C 
HETATM   40  C   UNL     1      25.117  40.744  48.271  1.00  0.00     0.000 C 
HETATM   41  C   UNL     1      26.494  41.373  48.079  1.00  0.00     0.002 C 
HETATM   42  C   UNL     1      27.047  41.942  49.385  1.00  0.00     0.026 C 
ENDBRANCH  35  37
ENDBRANCH  32  35
ENDBRANCH  14  32
TORSDOF 8
ENDMDL
