MODEL 1
REMARK VINA RESULT:      -9.4      0.000      0.000
REMARK  9 active torsions:
REMARK  status: ('A' for Active; 'I' for Inactive)
REMARK    1  A    between atoms: C_2  and  O_3 
REMARK    2  A    between atoms: O_3  and  C_4 
REMARK    3  A    between atoms: C_4  and  C_5 
REMARK    4  A    between atoms: C_8  and  N_9 
REMARK       I    between atoms: N_9  and  C_10 
REMARK    5  A    between atoms: C_10  and  C_11 
REMARK    6  A    between atoms: C_11  and  C_12 
REMARK    7  A    between atoms: N_13  and  C_14 
REMARK    8  A    between atoms: C_14  and  C_15 
REMARK    9  A    between atoms: N_23  and  C_24 
ROOT
HETATM    1  C   UNL     1      26.622  44.609  51.566  1.00  0.00     0.191 C 
HETATM    2  N   UNL     1      26.548  45.622  52.602  1.00  0.00    -0.315 N 
HETATM    3  C   UNL     1      26.037  46.813  52.084  1.00  0.00     0.333 C 
HETATM    4  O   UNL     1      25.552  47.679  52.795  1.00  0.00    -0.246 OA
HETATM    5  N   UNL     1      26.203  46.787  50.712  1.00  0.00    -0.232 N 
HETATM    6  C   UNL     1      26.686  45.542  50.354  1.00  0.00     0.256 C 
HETATM    7  O   UNL     1      27.069  45.146  49.261  1.00  0.00    -0.270 OA
ENDROOT
BRANCH   1   8
HETATM    8  C   UNL     1      25.348  43.768  51.526  1.00  0.00     0.138 C 
BRANCH   8   9
HETATM    9  C   UNL     1      25.421  42.659  50.498  1.00  0.00     0.224 C 
HETATM   10  N   UNL     1      26.697  42.153  50.322  1.00  0.00    -0.327 N 
HETATM   11  H   UNL     1      27.459  42.617  50.800  1.00  0.00     0.169 HD
HETATM   12  O   UNL     1      24.404  42.272  49.936  1.00  0.00    -0.273 OA
BRANCH  10  13
HETATM   13  C   UNL     1      27.060  40.996  49.594  1.00  0.00     0.034 A 
HETATM   14  C   UNL     1      27.718  41.019  48.363  1.00  0.00     0.030 A 
HETATM   15  C   UNL     1      28.002  39.829  47.676  1.00  0.00     0.020 A 
HETATM   16  C   UNL     1      27.632  38.594  48.219  1.00  0.00     0.039 A 
HETATM   17  C   UNL     1      26.982  38.565  49.457  1.00  0.00     0.020 A 
HETATM   18  C   UNL     1      26.696  39.756  50.137  1.00  0.00     0.030 A 
BRANCH  16  19
HETATM   19  C   UNL     1      27.909  37.301  47.534  1.00  0.00     0.293 C 
HETATM   20  O   UNL     1      27.110  36.378  47.498  1.00  0.00    -0.259 OA
BRANCH  19  21
HETATM   21  O   UNL     1      29.139  37.316  46.963  1.00  0.00    -0.318 OA
BRANCH  21  22
HETATM   22  C   UNL     1      29.216  36.788  45.631  1.00  0.00     0.174 C 
HETATM   23  C   UNL     1      28.678  37.788  44.624  1.00  0.00     0.034 C 
ENDBRANCH  21  22
ENDBRANCH  19  21
ENDBRANCH  16  19
ENDBRANCH  10  13
ENDBRANCH   8   9
ENDBRANCH   1   8
BRANCH   2  24
HETATM   24  C   UNL     1      26.502  45.291  54.018  1.00  0.00     0.168 C 
BRANCH  24  25
HETATM   25  C   UNL     1      27.839  45.074  54.680  1.00  0.00    -0.023 A 
HETATM   26  C   UNL     1      28.322  46.041  55.561  1.00  0.00     0.125 A 
HETATM   27  N   UNL     1      29.501  45.962  56.219  1.00  0.00    -0.273 NA
HETATM   28  C   UNL     1      30.254  44.868  55.982  1.00  0.00     0.116 A 
HETATM   29  C   UNL     1      29.866  43.839  55.142  1.00  0.00     0.020 A 
HETATM   30  C   UNL     1      28.634  43.938  54.497  1.00  0.00     0.012 A 
ENDBRANCH  24  25
ENDBRANCH   2  24
BRANCH   5  31
HETATM   31  C   UNL     1      25.983  47.892  49.829  1.00  0.00     0.047 A 
HETATM   32  C   UNL     1      24.689  48.265  49.417  1.00  0.00     0.037 A 
HETATM   33  C   UNL     1      24.456  49.367  48.573  1.00  0.00    -0.060 A 
HETATM   34  C   UNL     1      23.062  49.709  48.133  1.00  0.00     0.048 C 
HETATM   35  C   UNL     1      25.538  50.113  48.111  1.00  0.00     0.007 A 
HETATM   36  C   UNL     1      26.828  49.766  48.496  1.00  0.00     0.003 A 
HETATM   37  C   UNL     1      27.045  48.671  49.340  1.00  0.00     0.030 A 
ENDBRANCH   5  31
TORSDOF 9
ENDMDL
MODEL 2
REMARK VINA RESULT:      -9.3      2.563      8.996
REMARK  9 active torsions:
REMARK  status: ('A' for Active; 'I' for Inactive)
REMARK    1  A    between atoms: C_2  and  O_3 
REMARK    2  A    between atoms: O_3  and  C_4 
REMARK    3  A    between atoms: C_4  and  C_5 
REMARK    4  A    between atoms: C_8  and  N_9 
REMARK       I    between atoms: N_9  and  C_10 
REMARK    5  A    between atoms: C_10  and  C_11 
REMARK    6  A    between atoms: C_11  and  C_12 
REMARK    7  A    between atoms: N_13  and  C_14 
REMARK    8  A    between atoms: C_14  and  C_15 
REMARK    9  A    between atoms: N_23  and  C_24 
ROOT
HETATM    1  C   UNL     1      26.682  42.556  50.710  1.00  0.00     0.191 C 
HETATM    2  N   UNL     1      27.190  41.306  51.242  1.00  0.00    -0.315 N 
HETATM    3  C   UNL     1      27.755  41.507  52.503  1.00  0.00     0.333 C 
HETATM    4  O   UNL     1      27.924  40.594  53.296  1.00  0.00    -0.246 OA
HETATM    5  N   UNL     1      28.057  42.851  52.625  1.00  0.00    -0.232 N 
HETATM    6  C   UNL     1      27.566  43.512  51.515  1.00  0.00     0.256 C 
HETATM    7  O   UNL     1      27.716  44.680  51.181  1.00  0.00    -0.270 OA
ENDROOT
BRANCH   1   8
HETATM    8  C   UNL     1      25.212  42.753  51.075  1.00  0.00     0.138 C 
BRANCH   8   9
HETATM    9  C   UNL     1      24.819  44.214  51.115  1.00  0.00     0.224 C 
HETATM   10  N   UNL     1      25.105  44.896  49.944  1.00  0.00    -0.327 N 
HETATM   11  H   UNL     1      25.623  44.405  49.228  1.00  0.00     0.169 HD
HETATM   12  O   UNL     1      24.273  44.679  52.109  1.00  0.00    -0.273 OA
BRANCH  10  13
HETATM   13  C   UNL     1      24.685  46.201  49.596  1.00  0.00     0.034 A 
HETATM   14  C   UNL     1      23.416  46.511  49.104  1.00  0.00     0.030 A 
HETATM   15  C   UNL     1      23.089  47.825  48.735  1.00  0.00     0.020 A 
HETATM   16  C   UNL     1      24.033  48.850  48.858  1.00  0.00     0.039 A 
HETATM   17  C   UNL     1      25.303  48.545  49.360  1.00  0.00     0.020 A 
HETATM   18  C   UNL     1      25.627  47.232  49.723  1.00  0.00     0.030 A 
BRANCH  16  19
HETATM   19  C   UNL     1      23.740  50.260  48.482  1.00  0.00     0.293 C 
HETATM   20  O   UNL     1      24.130  50.771  47.444  1.00  0.00    -0.259 OA
BRANCH  19  21
HETATM   21  O   UNL     1      22.984  50.862  49.433  1.00  0.00    -0.318 OA
BRANCH  21  22
HETATM   22  C   UNL     1      21.615  51.112  49.080  1.00  0.00     0.174 C 
HETATM   23  C   UNL     1      20.708  50.934  50.283  1.00  0.00     0.034 C 
ENDBRANCH  21  22
ENDBRANCH  19  21
ENDBRANCH  16  19
ENDBRANCH  10  13
ENDBRANCH   8   9
ENDBRANCH   1   8
BRANCH   2  24
HETATM   24  C   UNL     1      26.712  40.010  50.787  1.00  0.00     0.168 C 
BRANCH  24  25
HETATM   25  C   UNL     1      27.631  39.269  49.850  1.00  0.00    -0.023 A 
HETATM   26  C   UNL     1      27.250  39.105  48.519  1.00  0.00     0.125 A 
HETATM   27  N   UNL     1      27.986  38.466  47.580  1.00  0.00    -0.273 NA
HETATM   28  C   UNL     1      29.164  37.947  47.986  1.00  0.00     0.116 A 
HETATM   29  C   UNL     1      29.648  38.066  49.276  1.00  0.00     0.020 A 
HETATM   30  C   UNL     1      28.878  38.751  50.214  1.00  0.00     0.012 A 
ENDBRANCH  24  25
ENDBRANCH   2  24
BRANCH   5  31
HETATM   31  C   UNL     1      28.818  43.436  53.688  1.00  0.00     0.047 A 
HETATM   32  C   UNL     1      28.335  44.531  54.428  1.00  0.00     0.037 A 
HETATM   33  C   UNL     1      29.059  45.097  55.494  1.00  0.00    -0.060 A 
HETATM   34  C   UNL     1      28.520  46.286  56.236  1.00  0.00     0.048 C 
HETATM   35  C   UNL     1      30.306  44.573  55.826  1.00  0.00     0.007 A 
HETATM   36  C   UNL     1      30.812  43.495  55.110  1.00  0.00     0.003 A 
HETATM   37  C   UNL     1      30.079  42.938  54.055  1.00  0.00     0.030 A 
ENDBRANCH   5  31
TORSDOF 9
ENDMDL
MODEL 3
REMARK VINA RESULT:      -9.0      1.116      1.400
REMARK  9 active torsions:
REMARK  status: ('A' for Active; 'I' for Inactive)
REMARK    1  A    between atoms: C_2  and  O_3 
REMARK    2  A    between atoms: O_3  and  C_4 
REMARK    3  A    between atoms: C_4  and  C_5 
REMARK    4  A    between atoms: C_8  and  N_9 
REMARK       I    between atoms: N_9  and  C_10 
REMARK    5  A    between atoms: C_10  and  C_11 
REMARK    6  A    between atoms: C_11  and  C_12 
REMARK    7  A    between atoms: N_13  and  C_14 
REMARK    8  A    between atoms: C_14  and  C_15 
REMARK    9  A    between atoms: N_23  and  C_24 
ROOT
HETATM    1  C   UNL     1      26.783  44.636  51.484  1.00  0.00     0.191 C 
HETATM    2  N   UNL     1      26.589  45.618  52.533  1.00  0.00    -0.315 N 
HETATM    3  C   UNL     1      25.990  46.769  52.018  1.00  0.00     0.333 C 
HETATM    4  O   UNL     1      25.408  47.576  52.727  1.00  0.00    -0.246 OA
HETATM    5  N   UNL     1      26.199  46.783  50.652  1.00  0.00    -0.232 N 
HETATM    6  C   UNL     1      26.801  45.593  50.289  1.00  0.00     0.256 C 
HETATM    7  O   UNL     1      27.251  45.253  49.203  1.00  0.00    -0.270 OA
ENDROOT
BRANCH   1   8
HETATM    8  C   UNL     1      25.590  43.686  51.391  1.00  0.00     0.138 C 
BRANCH   8   9
HETATM    9  C   UNL     1      25.963  42.350  50.785  1.00  0.00     0.224 C 
HETATM   10  N   UNL     1      25.892  42.331  49.403  1.00  0.00    -0.327 N 
HETATM   11  H   UNL     1      25.514  43.146  48.939  1.00  0.00     0.169 HD
HETATM   12  O   UNL     1      26.318  41.424  51.505  1.00  0.00    -0.273 OA
BRANCH  10  13
HETATM   13  C   UNL     1      26.362  41.312  48.541  1.00  0.00     0.034 A 
HETATM   14  C   UNL     1      25.532  40.448  47.824  1.00  0.00     0.030 A 
HETATM   15  C   UNL     1      26.073  39.429  47.026  1.00  0.00     0.020 A 
HETATM   16  C   UNL     1      27.459  39.264  46.931  1.00  0.00     0.039 A 
HETATM   17  C   UNL     1      28.295  40.135  47.640  1.00  0.00     0.020 A 
HETATM   18  C   UNL     1      27.750  41.148  48.439  1.00  0.00     0.030 A 
BRANCH  16  19
HETATM   19  C   UNL     1      28.087  38.201  46.099  1.00  0.00     0.293 C 
HETATM   20  O   UNL     1      28.823  37.342  46.556  1.00  0.00    -0.259 OA
BRANCH  19  21
HETATM   21  O   UNL     1      27.711  38.325  44.802  1.00  0.00    -0.318 OA
BRANCH  21  22
HETATM   22  C   UNL     1      28.409  39.322  44.041  1.00  0.00     0.174 C 
HETATM   23  C   UNL     1      27.430  40.250  43.345  1.00  0.00     0.034 C 
ENDBRANCH  21  22
ENDBRANCH  19  21
ENDBRANCH  16  19
ENDBRANCH  10  13
ENDBRANCH   8   9
ENDBRANCH   1   8
BRANCH   2  24
HETATM   24  C   UNL     1      26.529  45.258  53.941  1.00  0.00     0.168 C 
BRANCH  24  25
HETATM   25  C   UNL     1      27.861  45.081  54.625  1.00  0.00    -0.023 A 
HETATM   26  C   UNL     1      28.311  46.071  55.497  1.00  0.00     0.125 A 
HETATM   27  N   UNL     1      29.483  46.028  56.172  1.00  0.00    -0.273 NA
HETATM   28  C   UNL     1      30.262  44.946  55.963  1.00  0.00     0.116 A 
HETATM   29  C   UNL     1      29.907  43.897  55.134  1.00  0.00     0.020 A 
HETATM   30  C   UNL     1      28.683  43.959  54.471  1.00  0.00     0.012 A 
ENDBRANCH  24  25
ENDBRANCH   2  24
BRANCH   5  31
HETATM   31  C   UNL     1      25.908  47.881  49.780  1.00  0.00     0.047 A 
HETATM   32  C   UNL     1      24.592  48.182  49.380  1.00  0.00     0.037 A 
HETATM   33  C   UNL     1      24.289  49.275  48.547  1.00  0.00    -0.060 A 
HETATM   34  C   UNL     1      22.875  49.540  48.120  1.00  0.00     0.048 C 
HETATM   35  C   UNL     1      25.323  50.086  48.084  1.00  0.00     0.007 A 
HETATM   36  C   UNL     1      26.633  49.812  48.456  1.00  0.00     0.003 A 
HETATM   37  C   UNL     1      26.920  48.724  49.289  1.00  0.00     0.030 A 
ENDBRANCH   5  31
TORSDOF 9
ENDMDL
MODEL 4
REMARK VINA RESULT:      -8.9      4.116     10.714
REMARK  9 active torsions:
REMARK  status: ('A' for Active; 'I' for Inactive)
REMARK    1  A    between atoms: C_2  and  O_3 
REMARK    2  A    between atoms: O_3  and  C_4 
REMARK    3  A    between atoms: C_4  and  C_5 
REMARK    4  A    between atoms: C_8  and  N_9 
REMARK       I    between atoms: N_9  and  C_10 
REMARK    5  A    between atoms: C_10  and  C_11 
REMARK    6  A    between atoms: C_11  and  C_12 
REMARK    7  A    between atoms: N_13  and  C_14 
REMARK    8  A    between atoms: C_14  and  C_15 
REMARK    9  A    between atoms: N_23  and  C_24 
ROOT
HETATM    1  C   UNL     1      25.239  45.722  49.444  1.00  0.00     0.191 C 
HETATM    2  N   UNL     1      24.383  44.587  49.735  1.00  0.00    -0.315 N 
HETATM    3  C   UNL     1      24.947  43.797  50.739  1.00  0.00     0.333 C 
HETATM    4  O   UNL     1      24.286  43.011  51.400  1.00  0.00    -0.246 OA
HETATM    5  N   UNL     1      26.299  44.079  50.794  1.00  0.00    -0.232 N 
HETATM    6  C   UNL     1      26.562  45.129  49.935  1.00  0.00     0.256 C 
HETATM    7  O   UNL     1      27.640  45.609  49.607  1.00  0.00    -0.270 OA
ENDROOT
BRANCH   1   8
HETATM    8  C   UNL     1      24.851  46.934  50.287  1.00  0.00     0.138 C 
BRANCH   8   9
HETATM    9  C   UNL     1      24.157  48.005  49.472  1.00  0.00     0.224 C 
HETATM   10  N   UNL     1      22.781  48.008  49.622  1.00  0.00    -0.327 N 
HETATM   11  H   UNL     1      22.364  47.260  50.161  1.00  0.00     0.169 HD
HETATM   12  O   UNL     1      24.814  48.784  48.791  1.00  0.00    -0.273 OA
BRANCH  10  13
HETATM   13  C   UNL     1      21.877  48.994  49.160  1.00  0.00     0.034 A 
HETATM   14  C   UNL     1      22.074  50.368  49.309  1.00  0.00     0.030 A 
HETATM   15  C   UNL     1      21.109  51.284  48.867  1.00  0.00     0.020 A 
HETATM   16  C   UNL     1      19.929  50.834  48.264  1.00  0.00     0.039 A 
HETATM   17  C   UNL     1      19.732  49.458  48.104  1.00  0.00     0.020 A 
HETATM   18  C   UNL     1      20.697  48.547  48.551  1.00  0.00     0.030 A 
BRANCH  16  19
HETATM   19  C   UNL     1      18.872  51.762  47.776  1.00  0.00     0.293 C 
HETATM   20  O   UNL     1      18.293  51.616  46.712  1.00  0.00    -0.259 OA
BRANCH  19  21
HETATM   21  O   UNL     1      18.650  52.751  48.677  1.00  0.00    -0.318 OA
BRANCH  21  22
HETATM   22  C   UNL     1      17.859  52.391  49.819  1.00  0.00     0.174 C 
HETATM   23  C   UNL     1      16.406  52.778  49.610  1.00  0.00     0.034 C 
ENDBRANCH  21  22
ENDBRANCH  19  21
ENDBRANCH  16  19
ENDBRANCH  10  13
ENDBRANCH   8   9
ENDBRANCH   1   8
BRANCH   2  24
HETATM   24  C   UNL     1      22.962  44.579  49.426  1.00  0.00     0.168 C 
BRANCH  24  25
HETATM   25  C   UNL     1      22.613  44.414  47.969  1.00  0.00    -0.023 A 
HETATM   26  C   UNL     1      22.393  45.551  47.194  1.00  0.00     0.125 A 
HETATM   27  N   UNL     1      22.078  45.537  45.878  1.00  0.00    -0.273 NA
HETATM   28  C   UNL     1      21.963  44.325  45.297  1.00  0.00     0.116 A 
HETATM   29  C   UNL     1      22.177  43.132  45.966  1.00  0.00     0.020 A 
HETATM   30  C   UNL     1      22.523  43.181  47.315  1.00  0.00     0.012 A 
ENDBRANCH  24  25
ENDBRANCH   2  24
BRANCH   5  31
HETATM   31  C   UNL     1      27.267  43.350  51.558  1.00  0.00     0.047 A 
HETATM   32  C   UNL     1      27.892  43.910  52.688  1.00  0.00     0.037 A 
HETATM   33  C   UNL     1      28.823  43.195  53.465  1.00  0.00    -0.060 A 
HETATM   34  C   UNL     1      29.490  43.842  54.644  1.00  0.00     0.048 C 
HETATM   35  C   UNL     1      29.156  41.892  53.102  1.00  0.00     0.007 A 
HETATM   36  C   UNL     1      28.561  41.314  51.987  1.00  0.00     0.003 A 
HETATM   37  C   UNL     1      27.632  42.035  51.226  1.00  0.00     0.030 A 
ENDBRANCH   5  31
TORSDOF 9
ENDMDL
MODEL 5
REMARK VINA RESULT:      -8.5      2.434      6.047
REMARK  9 active torsions:
REMARK  status: ('A' for Active; 'I' for Inactive)
REMARK    1  A    between atoms: C_2  and  O_3 
REMARK    2  A    between atoms: O_3  and  C_4 
REMARK    3  A    between atoms: C_4  and  C_5 
REMARK    4  A    between atoms: C_8  and  N_9 
REMARK       I    between atoms: N_9  and  C_10 
REMARK    5  A    between atoms: C_10  and  C_11 
REMARK    6  A    between atoms: C_11  and  C_12 
REMARK    7  A    between atoms: N_13  and  C_14 
REMARK    8  A    between atoms: C_14  and  C_15 
REMARK    9  A    between atoms: N_23  and  C_24 
ROOT
HETATM    1  C   UNL     1      23.547  45.473  49.636  1.00  0.00     0.191 C 
HETATM    2  N   UNL     1      23.838  46.890  49.738  1.00  0.00    -0.315 N 
HETATM    3  C   UNL     1      24.956  47.101  50.546  1.00  0.00     0.333 C 
HETATM    4  O   UNL     1      25.607  48.134  50.506  1.00  0.00    -0.246 OA
HETATM    5  N   UNL     1      25.130  45.978  51.334  1.00  0.00    -0.232 N 
HETATM    6  C   UNL     1      24.220  45.018  50.933  1.00  0.00     0.256 C 
HETATM    7  O   UNL     1      23.969  43.931  51.438  1.00  0.00    -0.270 OA
ENDROOT
BRANCH   1   8
HETATM    8  C   UNL     1      24.243  44.853  48.426  1.00  0.00     0.138 C 
BRANCH   8   9
HETATM    9  C   UNL     1      24.648  43.415  48.668  1.00  0.00     0.224 C 
HETATM   10  N   UNL     1      26.013  43.244  48.822  1.00  0.00    -0.327 N 
HETATM   11  H   UNL     1      26.610  44.046  48.665  1.00  0.00     0.169 HD
HETATM   12  O   UNL     1      23.795  42.538  48.742  1.00  0.00    -0.273 OA
BRANCH  10  13
HETATM   13  C   UNL     1      26.680  42.073  49.253  1.00  0.00     0.034 A 
HETATM   14  C   UNL     1      26.671  41.605  50.568  1.00  0.00     0.030 A 
HETATM   15  C   UNL     1      27.397  40.460  50.929  1.00  0.00     0.020 A 
HETATM   16  C   UNL     1      28.143  39.764  49.972  1.00  0.00     0.039 A 
HETATM   17  C   UNL     1      28.147  40.224  48.650  1.00  0.00     0.020 A 
HETATM   18  C   UNL     1      27.424  41.370  48.295  1.00  0.00     0.030 A 
BRANCH  16  19
HETATM   19  C   UNL     1      28.931  38.544  50.300  1.00  0.00     0.293 C 
HETATM   20  O   UNL     1      29.745  38.498  51.208  1.00  0.00    -0.259 OA
BRANCH  19  21
HETATM   21  O   UNL     1      28.600  37.524  49.470  1.00  0.00    -0.318 OA
BRANCH  21  22
HETATM   22  C   UNL     1      27.409  36.800  49.812  1.00  0.00     0.174 C 
HETATM   23  C   UNL     1      26.433  36.791  48.650  1.00  0.00     0.034 C 
ENDBRANCH  21  22
ENDBRANCH  19  21
ENDBRANCH  16  19
ENDBRANCH  10  13
ENDBRANCH   8   9
ENDBRANCH   1   8
BRANCH   2  24
HETATM   24  C   UNL     1      23.384  47.856  48.749  1.00  0.00     0.168 C 
BRANCH  24  25
HETATM   25  C   UNL     1      22.159  48.649  49.128  1.00  0.00    -0.023 A 
HETATM   26  C   UNL     1      22.313  49.969  49.551  1.00  0.00     0.125 A 
HETATM   27  N   UNL     1      21.295  50.784  49.914  1.00  0.00    -0.273 NA
HETATM   28  C   UNL     1      20.054  50.258  49.868  1.00  0.00     0.116 A 
HETATM   29  C   UNL     1      19.784  48.968  49.447  1.00  0.00     0.020 A 
HETATM   30  C   UNL     1      20.851  48.161  49.057  1.00  0.00     0.012 A 
ENDBRANCH  24  25
ENDBRANCH   2  24
BRANCH   5  31
HETATM   31  C   UNL     1      26.048  45.866  52.427  1.00  0.00     0.047 A 
HETATM   32  C   UNL     1      26.971  44.807  52.515  1.00  0.00     0.037 A 
HETATM   33  C   UNL     1      27.899  44.701  53.568  1.00  0.00    -0.060 A 
HETATM   34  C   UNL     1      28.844  43.537  53.639  1.00  0.00     0.048 C 
HETATM   35  C   UNL     1      27.900  45.665  54.574  1.00  0.00     0.007 A 
HETATM   36  C   UNL     1      26.997  46.719  54.519  1.00  0.00     0.003 A 
HETATM   37  C   UNL     1      26.083  46.815  53.463  1.00  0.00     0.030 A 
ENDBRANCH   5  31
TORSDOF 9
ENDMDL
MODEL 6
REMARK VINA RESULT:      -8.5      6.899     13.683
REMARK  9 active torsions:
REMARK  status: ('A' for Active; 'I' for Inactive)
REMARK    1  A    between atoms: C_2  and  O_3 
REMARK    2  A    between atoms: O_3  and  C_4 
REMARK    3  A    between atoms: C_4  and  C_5 
REMARK    4  A    between atoms: C_8  and  N_9 
REMARK       I    between atoms: N_9  and  C_10 
REMARK    5  A    between atoms: C_10  and  C_11 
REMARK    6  A    between atoms: C_11  and  C_12 
REMARK    7  A    between atoms: N_13  and  C_14 
REMARK    8  A    between atoms: C_14  and  C_15 
REMARK    9  A    between atoms: N_23  and  C_24 
ROOT
HETATM    1  C   UNL     1      20.647  49.335  48.700  1.00  0.00     0.191 C 
HETATM    2  N   UNL     1      20.957  48.429  47.610  1.00  0.00    -0.315 N 
HETATM    3  C   UNL     1      22.121  47.710  47.891  1.00  0.00     0.333 C 
HETATM    4  O   UNL     1      22.394  46.662  47.326  1.00  0.00    -0.246 OA
HETATM    5  N   UNL     1      22.827  48.403  48.856  1.00  0.00    -0.232 N 
HETATM    6  C   UNL     1      22.058  49.470  49.279  1.00  0.00     0.256 C 
HETATM    7  O   UNL     1      22.354  50.387  50.035  1.00  0.00    -0.270 OA
ENDROOT
BRANCH   1   8
HETATM    8  C   UNL     1      19.714  48.677  49.714  1.00  0.00     0.138 C 
BRANCH   8   9
HETATM    9  C   UNL     1      18.690  49.646  50.268  1.00  0.00     0.224 C 
HETATM   10  N   UNL     1      18.314  50.627  49.367  1.00  0.00    -0.327 N 
HETATM   11  H   UNL     1      18.810  50.673  48.486  1.00  0.00     0.169 HD
HETATM   12  O   UNL     1      18.254  49.498  51.403  1.00  0.00    -0.273 OA
BRANCH  10  13
HETATM   13  C   UNL     1      17.248  51.546  49.507  1.00  0.00     0.034 A 
HETATM   14  C   UNL     1      17.404  52.869  49.925  1.00  0.00     0.030 A 
HETATM   15  C   UNL     1      16.292  53.708  50.086  1.00  0.00     0.020 A 
HETATM   16  C   UNL     1      15.002  53.232  49.825  1.00  0.00     0.039 A 
HETATM   17  C   UNL     1      14.842  51.910  49.395  1.00  0.00     0.020 A 
HETATM   18  C   UNL     1      15.955  51.075  49.240  1.00  0.00     0.030 A 
BRANCH  16  19
HETATM   19  C   UNL     1      13.787  54.079  49.978  1.00  0.00     0.293 C 
HETATM   20  O   UNL     1      12.910  53.848  50.795  1.00  0.00    -0.259 OA
BRANCH  19  21
HETATM   21  O   UNL     1      13.817  55.119  49.110  1.00  0.00    -0.318 OA
BRANCH  21  22
HETATM   22  C   UNL     1      13.022  54.966  47.924  1.00  0.00     0.174 C 
HETATM   23  C   UNL     1      13.899  54.641  46.728  1.00  0.00     0.034 C 
ENDBRANCH  21  22
ENDBRANCH  19  21
ENDBRANCH  16  19
ENDBRANCH  10  13
ENDBRANCH   8   9
ENDBRANCH   1   8
BRANCH   2  24
HETATM   24  C   UNL     1      19.952  47.968  46.665  1.00  0.00     0.168 C 
BRANCH  24  25
HETATM   25  C   UNL     1      18.891  48.975  46.302  1.00  0.00    -0.023 A 
HETATM   26  C   UNL     1      17.549  48.622  46.437  1.00  0.00     0.125 A 
HETATM   27  N   UNL     1      16.506  49.435  46.149  1.00  0.00    -0.273 NA
HETATM   28  C   UNL     1      16.809  50.667  45.688  1.00  0.00     0.116 A 
HETATM   29  C   UNL     1      18.104  51.128  45.532  1.00  0.00     0.020 A 
HETATM   30  C   UNL     1      19.157  50.276  45.860  1.00  0.00     0.012 A 
ENDBRANCH  24  25
ENDBRANCH   2  24
BRANCH   5  31
HETATM   31  C   UNL     1      24.161  48.103  49.283  1.00  0.00     0.047 A 
HETATM   32  C   UNL     1      25.254  48.916  48.928  1.00  0.00     0.037 A 
HETATM   33  C   UNL     1      26.565  48.649  49.365  1.00  0.00    -0.060 A 
HETATM   34  C   UNL     1      27.705  49.526  48.936  1.00  0.00     0.048 C 
HETATM   35  C   UNL     1      26.803  47.533  50.163  1.00  0.00     0.007 A 
HETATM   36  C   UNL     1      25.746  46.707  50.525  1.00  0.00     0.003 A 
HETATM   37  C   UNL     1      24.446  46.987  50.088  1.00  0.00     0.030 A 
ENDBRANCH   5  31
TORSDOF 9
ENDMDL
MODEL 7
REMARK VINA RESULT:      -8.2      3.202      9.271
REMARK  9 active torsions:
REMARK  status: ('A' for Active; 'I' for Inactive)
REMARK    1  A    between atoms: C_2  and  O_3 
REMARK    2  A    between atoms: O_3  and  C_4 
REMARK    3  A    between atoms: C_4  and  C_5 
REMARK    4  A    between atoms: C_8  and  N_9 
REMARK       I    between atoms: N_9  and  C_10 
REMARK    5  A    between atoms: C_10  and  C_11 
REMARK    6  A    between atoms: C_11  and  C_12 
REMARK    7  A    between atoms: N_13  and  C_14 
REMARK    8  A    between atoms: C_14  and  C_15 
REMARK    9  A    between atoms: N_23  and  C_24 
ROOT
HETATM    1  C   UNL     1      24.871  42.824  49.000  1.00  0.00     0.191 C 
HETATM    2  N   UNL     1      24.106  42.063  48.031  1.00  0.00    -0.315 N 
HETATM    3  C   UNL     1      24.688  40.810  47.827  1.00  0.00     0.333 C 
HETATM    4  O   UNL     1      24.067  39.871  47.352  1.00  0.00    -0.246 OA
HETATM    5  N   UNL     1      26.005  40.881  48.238  1.00  0.00    -0.232 N 
HETATM    6  C   UNL     1      26.216  42.116  48.821  1.00  0.00     0.256 C 
HETATM    7  O   UNL     1      27.261  42.619  49.213  1.00  0.00    -0.270 OA
ENDROOT
BRANCH   1   8
HETATM    8  C   UNL     1      24.337  42.609  50.415  1.00  0.00     0.138 C 
BRANCH   8   9
HETATM    9  C   UNL     1      24.978  43.541  51.421  1.00  0.00     0.224 C 
HETATM   10  N   UNL     1      25.922  42.923  52.223  1.00  0.00    -0.327 N 
HETATM   11  H   UNL     1      26.026  41.920  52.142  1.00  0.00     0.169 HD
HETATM   12  O   UNL     1      24.669  44.726  51.447  1.00  0.00    -0.273 OA
BRANCH  10  13
HETATM   13  C   UNL     1      26.827  43.552  53.110  1.00  0.00     0.034 A 
HETATM   14  C   UNL     1      28.199  43.295  53.143  1.00  0.00     0.030 A 
HETATM   15  C   UNL     1      29.026  43.924  54.085  1.00  0.00     0.020 A 
HETATM   16  C   UNL     1      28.489  44.827  55.008  1.00  0.00     0.039 A 
HETATM   17  C   UNL     1      27.116  45.096  54.972  1.00  0.00     0.020 A 
HETATM   18  C   UNL     1      26.293  44.462  54.033  1.00  0.00     0.030 A 
BRANCH  16  19
HETATM   19  C   UNL     1      29.320  45.523  56.028  1.00  0.00     0.293 C 
HETATM   20  O   UNL     1      28.880  46.378  56.779  1.00  0.00    -0.259 OA
BRANCH  19  21
HETATM   21  O   UNL     1      30.594  45.061  56.003  1.00  0.00    -0.318 OA
BRANCH  21  22
HETATM   22  C   UNL     1      31.085  44.511  57.235  1.00  0.00     0.174 C 
HETATM   23  C   UNL     1      31.504  43.064  57.048  1.00  0.00     0.034 C 
ENDBRANCH  21  22
ENDBRANCH  19  21
ENDBRANCH  16  19
ENDBRANCH  10  13
ENDBRANCH   8   9
ENDBRANCH   1   8
BRANCH   2  24
HETATM   24  C   UNL     1      22.707  42.341  47.745  1.00  0.00     0.168 C 
BRANCH  24  25
HETATM   25  C   UNL     1      22.346  43.799  47.619  1.00  0.00    -0.023 A 
HETATM   26  C   UNL     1      22.584  44.452  46.411  1.00  0.00     0.125 A 
HETATM   27  N   UNL     1      22.303  45.754  46.170  1.00  0.00    -0.273 NA
HETATM   28  C   UNL     1      21.764  46.454  47.190  1.00  0.00     0.116 A 
HETATM   29  C   UNL     1      21.469  45.903  48.425  1.00  0.00     0.020 A 
HETATM   30  C   UNL     1      21.749  44.554  48.633  1.00  0.00     0.012 A 
ENDBRANCH  24  25
ENDBRANCH   2  24
BRANCH   5  31
HETATM   31  C   UNL     1      26.996  39.869  48.024  1.00  0.00     0.047 A 
HETATM   32  C   UNL     1      27.779  39.362  49.078  1.00  0.00     0.037 A 
HETATM   33  C   UNL     1      28.735  38.347  48.886  1.00  0.00    -0.060 A 
HETATM   34  C   UNL     1      29.570  37.859  50.034  1.00  0.00     0.048 C 
HETATM   35  C   UNL     1      28.933  37.831  47.608  1.00  0.00     0.007 A 
HETATM   36  C   UNL     1      28.180  38.315  46.545  1.00  0.00     0.003 A 
HETATM   37  C   UNL     1      27.229  39.321  46.751  1.00  0.00     0.030 A 
ENDBRANCH   5  31
TORSDOF 9
ENDMDL
MODEL 8
REMARK VINA RESULT:      -8.1      4.343     10.570
REMARK  9 active torsions:
REMARK  status: ('A' for Active; 'I' for Inactive)
REMARK    1  A    between atoms: C_2  and  O_3 
REMARK    2  A    between atoms: O_3  and  C_4 
REMARK    3  A    between atoms: C_4  and  C_5 
REMARK    4  A    between atoms: C_8  and  N_9 
REMARK       I    between atoms: N_9  and  C_10 
REMARK    5  A    between atoms: C_10  and  C_11 
REMARK    6  A    between atoms: C_11  and  C_12 
REMARK    7  A    between atoms: N_13  and  C_14 
REMARK    8  A    between atoms: C_14  and  C_15 
REMARK    9  A    between atoms: N_23  and  C_24 
ROOT
HETATM    1  C   UNL     1      24.779  46.157  49.448  1.00  0.00     0.191 C 
HETATM    2  N   UNL     1      24.120  44.952  49.913  1.00  0.00    -0.315 N 
HETATM    3  C   UNL     1      24.759  44.456  51.051  1.00  0.00     0.333 C 
HETATM    4  O   UNL     1      24.211  43.686  51.825  1.00  0.00    -0.246 OA
HETATM    5  N   UNL     1      26.037  44.982  51.086  1.00  0.00    -0.232 N 
HETATM    6  C   UNL     1      26.158  45.903  50.063  1.00  0.00     0.256 C 
HETATM    7  O   UNL     1      27.151  46.508  49.680  1.00  0.00    -0.270 OA
ENDROOT
BRANCH   1   8
HETATM    8  C   UNL     1      24.143  47.404  50.059  1.00  0.00     0.138 C 
BRANCH   8   9
HETATM    9  C   UNL     1      23.249  48.134  49.079  1.00  0.00     0.224 C 
HETATM   10  N   UNL     1      21.923  48.183  49.472  1.00  0.00    -0.327 N 
HETATM   11  H   UNL     1      21.656  47.661  50.296  1.00  0.00     0.169 HD
HETATM   12  O   UNL     1      23.725  48.638  48.069  1.00  0.00    -0.273 OA
BRANCH  10  13
HETATM   13  C   UNL     1      20.890  48.953  48.886  1.00  0.00     0.034 A 
HETATM   14  C   UNL     1      19.913  48.433  48.036  1.00  0.00     0.030 A 
HETATM   15  C   UNL     1      18.948  49.269  47.454  1.00  0.00     0.020 A 
HETATM   16  C   UNL     1      18.947  50.642  47.720  1.00  0.00     0.039 A 
HETATM   17  C   UNL     1      19.919  51.165  48.581  1.00  0.00     0.020 A 
HETATM   18  C   UNL     1      20.883  50.328  49.156  1.00  0.00     0.030 A 
BRANCH  16  19
HETATM   19  C   UNL     1      17.947  51.574  47.131  1.00  0.00     0.293 C 
HETATM   20  O   UNL     1      17.089  52.138  47.790  1.00  0.00    -0.259 OA
BRANCH  19  21
HETATM   21  O   UNL     1      18.144  51.705  45.796  1.00  0.00    -0.318 OA
BRANCH  21  22
HETATM   22  C   UNL     1      16.958  51.751  44.990  1.00  0.00     0.174 C 
HETATM   23  C   UNL     1      16.990  52.945  44.054  1.00  0.00     0.034 C 
ENDBRANCH  21  22
ENDBRANCH  19  21
ENDBRANCH  16  19
ENDBRANCH  10  13
ENDBRANCH   8   9
ENDBRANCH   1   8
BRANCH   2  24
HETATM   24  C   UNL     1      22.740  44.636  49.581  1.00  0.00     0.168 C 
BRANCH  24  25
HETATM   25  C   UNL     1      22.548  43.497  48.612  1.00  0.00    -0.023 A 
HETATM   26  C   UNL     1      21.877  43.735  47.413  1.00  0.00     0.125 A 
HETATM   27  N   UNL     1      21.645  42.800  46.462  1.00  0.00    -0.273 NA
HETATM   28  C   UNL     1      22.094  41.554  46.718  1.00  0.00     0.116 A 
HETATM   29  C   UNL     1      22.787  41.210  47.864  1.00  0.00     0.020 A 
HETATM   30  C   UNL     1      23.031  42.200  48.814  1.00  0.00     0.012 A 
ENDBRANCH  24  25
ENDBRANCH   2  24
BRANCH   5  31
HETATM   31  C   UNL     1      27.075  44.579  51.986  1.00  0.00     0.047 A 
HETATM   32  C   UNL     1      27.212  45.151  53.264  1.00  0.00     0.037 A 
HETATM   33  C   UNL     1      28.210  44.744  54.170  1.00  0.00    -0.060 A 
HETATM   34  C   UNL     1      28.339  45.405  55.511  1.00  0.00     0.048 C 
HETATM   35  C   UNL     1      29.110  43.750  53.790  1.00  0.00     0.007 A 
HETATM   36  C   UNL     1      29.004  43.170  52.532  1.00  0.00     0.003 A 
HETATM   37  C   UNL     1      28.004  43.581  51.643  1.00  0.00     0.030 A 
ENDBRANCH   5  31
TORSDOF 9
ENDMDL
MODEL 9
REMARK VINA RESULT:      -7.9      2.899      8.825
REMARK  9 active torsions:
REMARK  status: ('A' for Active; 'I' for Inactive)
REMARK    1  A    between atoms: C_2  and  O_3 
REMARK    2  A    between atoms: O_3  and  C_4 
REMARK    3  A    between atoms: C_4  and  C_5 
REMARK    4  A    between atoms: C_8  and  N_9 
REMARK       I    between atoms: N_9  and  C_10 
REMARK    5  A    between atoms: C_10  and  C_11 
REMARK    6  A    between atoms: C_11  and  C_12 
REMARK    7  A    between atoms: N_13  and  C_14 
REMARK    8  A    between atoms: C_14  and  C_15 
REMARK    9  A    between atoms: N_23  and  C_24 
ROOT
HETATM    1  C   UNL     1      25.014  43.351  49.378  1.00  0.00     0.191 C 
HETATM    2  N   UNL     1      24.036  43.191  48.318  1.00  0.00    -0.315 N 
HETATM    3  C   UNL     1      24.252  41.993  47.634  1.00  0.00     0.333 C 
HETATM    4  O   UNL     1      23.384  41.462  46.957  1.00  0.00    -0.246 OA
HETATM    5  N   UNL     1      25.554  41.596  47.870  1.00  0.00    -0.232 N 
HETATM    6  C   UNL     1      26.111  42.454  48.799  1.00  0.00     0.256 C 
HETATM    7  O   UNL     1      27.267  42.519  49.197  1.00  0.00    -0.270 OA
ENDROOT
BRANCH   1   8
HETATM    8  C   UNL     1      24.496  42.780  50.696  1.00  0.00     0.138 C 
BRANCH   8   9
HETATM    9  C   UNL     1      25.202  43.371  51.897  1.00  0.00     0.224 C 
HETATM   10  N   UNL     1      26.404  42.751  52.192  1.00  0.00    -0.327 N 
HETATM   11  H   UNL     1      26.649  41.923  51.664  1.00  0.00     0.169 HD
HETATM   12  O   UNL     1      24.717  44.329  52.488  1.00  0.00    -0.273 OA
BRANCH  10  13
HETATM   13  C   UNL     1      27.383  43.188  53.115  1.00  0.00     0.034 A 
HETATM   14  C   UNL     1      27.462  44.489  53.615  1.00  0.00     0.030 A 
HETATM   15  C   UNL     1      28.492  44.862  54.491  1.00  0.00     0.020 A 
HETATM   16  C   UNL     1      29.459  43.930  54.884  1.00  0.00     0.039 A 
HETATM   17  C   UNL     1      29.377  42.622  54.393  1.00  0.00     0.020 A 
HETATM   18  C   UNL     1      28.350  42.256  53.515  1.00  0.00     0.030 A 
BRANCH  16  19
HETATM   19  C   UNL     1      30.572  44.270  55.811  1.00  0.00     0.293 C 
HETATM   20  O   UNL     1      31.397  43.455  56.193  1.00  0.00    -0.259 OA
BRANCH  19  21
HETATM   21  O   UNL     1      30.535  45.585  56.141  1.00  0.00    -0.318 OA
BRANCH  21  22
HETATM   22  C   UNL     1      29.822  45.909  57.343  1.00  0.00     0.174 C 
HETATM   23  C   UNL     1      30.623  45.509  58.568  1.00  0.00     0.034 C 
ENDBRANCH  21  22
ENDBRANCH  19  21
ENDBRANCH  16  19
ENDBRANCH  10  13
ENDBRANCH   8   9
ENDBRANCH   1   8
BRANCH   2  24
HETATM   24  C   UNL     1      22.754  43.877  48.325  1.00  0.00     0.168 C 
BRANCH  24  25
HETATM   25  C   UNL     1      22.823  45.383  48.358  1.00  0.00    -0.023 A 
HETATM   26  C   UNL     1      22.171  46.112  47.365  1.00  0.00     0.125 A 
HETATM   27  N   UNL     1      22.154  47.462  47.286  1.00  0.00    -0.273 NA
HETATM   28  C   UNL     1      22.833  48.132  48.240  1.00  0.00     0.116 A 
HETATM   29  C   UNL     1      23.500  47.513  49.282  1.00  0.00     0.020 A 
HETATM   30  C   UNL     1      23.478  46.121  49.349  1.00  0.00     0.012 A 
ENDBRANCH  24  25
ENDBRANCH   2  24
BRANCH   5  31
HETATM   31  C   UNL     1      26.227  40.522  47.203  1.00  0.00     0.047 A 
HETATM   32  C   UNL     1      27.024  40.740  46.064  1.00  0.00     0.037 A 
HETATM   33  C   UNL     1      27.715  39.699  45.416  1.00  0.00    -0.060 A 
HETATM   34  C   UNL     1      28.528  39.973  44.184  1.00  0.00     0.048 C 
HETATM   35  C   UNL     1      27.599  38.399  45.902  1.00  0.00     0.007 A 
HETATM   36  C   UNL     1      26.814  38.150  47.022  1.00  0.00     0.003 A 
HETATM   37  C   UNL     1      26.137  39.196  47.660  1.00  0.00     0.030 A 
ENDBRANCH   5  31
TORSDOF 9
ENDMDL
MODEL 10
REMARK VINA RESULT:      -7.8      3.355      8.889
REMARK  9 active torsions:
REMARK  status: ('A' for Active; 'I' for Inactive)
REMARK    1  A    between atoms: C_2  and  O_3 
REMARK    2  A    between atoms: O_3  and  C_4 
REMARK    3  A    between atoms: C_4  and  C_5 
REMARK    4  A    between atoms: C_8  and  N_9 
REMARK       I    between atoms: N_9  and  C_10 
REMARK    5  A    between atoms: C_10  and  C_11 
REMARK    6  A    between atoms: C_11  and  C_12 
REMARK    7  A    between atoms: N_13  and  C_14 
REMARK    8  A    between atoms: C_14  and  C_15 
REMARK    9  A    between atoms: N_23  and  C_24 
ROOT
HETATM    1  C   UNL     1      26.516  42.770  50.448  1.00  0.00     0.191 C 
HETATM    2  N   UNL     1      26.915  41.482  50.983  1.00  0.00    -0.315 N 
HETATM    3  C   UNL     1      27.484  41.636  52.248  1.00  0.00     0.333 C 
HETATM    4  O   UNL     1      27.571  40.712  53.042  1.00  0.00    -0.246 OA
HETATM    5  N   UNL     1      27.896  42.950  52.374  1.00  0.00    -0.232 N 
HETATM    6  C   UNL     1      27.470  43.649  51.261  1.00  0.00     0.256 C 
HETATM    7  O   UNL     1      27.718  44.802  50.930  1.00  0.00    -0.270 OA
ENDROOT
BRANCH   1   8
HETATM    8  C   UNL     1      25.064  43.087  50.802  1.00  0.00     0.138 C 
BRANCH   8   9
HETATM    9  C   UNL     1      24.291  43.640  49.623  1.00  0.00     0.224 C 
HETATM   10  N   UNL     1      23.239  44.462  49.990  1.00  0.00    -0.327 N 
HETATM   11  H   UNL     1      23.021  44.538  50.975  1.00  0.00     0.169 HD
HETATM   12  O   UNL     1      24.638  43.373  48.479  1.00  0.00    -0.273 OA
BRANCH  10  13
HETATM   13  C   UNL     1      22.462  45.280  49.136  1.00  0.00     0.034 A 
HETATM   14  C   UNL     1      22.887  46.508  48.628  1.00  0.00     0.030 A 
HETATM   15  C   UNL     1      22.040  47.286  47.825  1.00  0.00     0.020 A 
HETATM   16  C   UNL     1      20.751  46.839  47.515  1.00  0.00     0.039 A 
HETATM   17  C   UNL     1      20.324  45.603  48.014  1.00  0.00     0.020 A 
HETATM   18  C   UNL     1      21.171  44.832  48.819  1.00  0.00     0.030 A 
BRANCH  16  19
HETATM   19  C   UNL     1      19.811  47.624  46.668  1.00  0.00     0.293 C 
HETATM   20  O   UNL     1      19.425  47.247  45.573  1.00  0.00    -0.259 OA
BRANCH  19  21
HETATM   21  O   UNL     1      19.452  48.774  47.290  1.00  0.00    -0.318 OA
BRANCH  21  22
HETATM   22  C   UNL     1      18.279  48.700  48.113  1.00  0.00     0.174 C 
HETATM   23  C   UNL     1      17.255  49.736  47.686  1.00  0.00     0.034 C 
ENDBRANCH  21  22
ENDBRANCH  19  21
ENDBRANCH  16  19
ENDBRANCH  10  13
ENDBRANCH   8   9
ENDBRANCH   1   8
BRANCH   2  24
HETATM   24  C   UNL     1      26.336  40.230  50.523  1.00  0.00     0.168 C 
BRANCH  24  25
HETATM   25  C   UNL     1      27.197  39.418  49.589  1.00  0.00    -0.023 A 
HETATM   26  C   UNL     1      28.512  39.136  49.957  1.00  0.00     0.125 A 
HETATM   27  N   UNL     1      29.382  38.417  49.211  1.00  0.00    -0.273 NA
HETATM   28  C   UNL     1      28.928  37.960  48.025  1.00  0.00     0.116 A 
HETATM   29  C   UNL     1      27.638  38.165  47.569  1.00  0.00     0.020 A 
HETATM   30  C   UNL     1      26.758  38.889  48.371  1.00  0.00     0.012 A 
ENDBRANCH  24  25
ENDBRANCH   2  24
BRANCH   5  31
HETATM   31  C   UNL     1      28.693  43.470  53.444  1.00  0.00     0.047 A 
HETATM   32  C   UNL     1      28.274  44.572  54.213  1.00  0.00     0.037 A 
HETATM   33  C   UNL     1      29.034  45.075  55.286  1.00  0.00    -0.060 A 
HETATM   34  C   UNL     1      28.563  46.272  56.059  1.00  0.00     0.048 C 
HETATM   35  C   UNL     1      30.253  44.478  55.595  1.00  0.00     0.007 A 
HETATM   36  C   UNL     1      30.698  43.392  54.851  1.00  0.00     0.003 A 
HETATM   37  C   UNL     1      29.929  42.898  53.790  1.00  0.00     0.030 A 
ENDBRANCH   5  31
TORSDOF 9
ENDMDL
