MODEL 1
REMARK VINA RESULT:      -9.2      0.000      0.000
REMARK  6 active torsions:
REMARK  status: ('A' for Active; 'I' for Inactive)
REMARK    1  A    between atoms: C_8  and  C_9 
REMARK    2  A    between atoms: C_9  and  C_10 
REMARK    3  A    between atoms: C_10  and  N_11 
REMARK    4  A    between atoms: C_10  and  C_19 
REMARK       I    between atoms: N_11  and  C_12 
REMARK    5  A    between atoms: C_12  and  C_13 
REMARK       I    between atoms: C_19  and  N_20 
REMARK    6  A    between atoms: N_20  and  C_21 
ROOT
HETATM    1  C   UNL     1      25.088  45.272  52.661  1.00  0.00     0.181 C 
ENDROOT
BRANCH   1   2
HETATM    2  C   UNL     1      25.394  45.180  54.169  1.00  0.00     0.075 C 
BRANCH   2   3
HETATM    3  C   UNL     1      26.825  45.426  54.548  1.00  0.00    -0.028 A 
HETATM    4  C   UNL     1      27.878  44.452  54.574  1.00  0.00    -0.002 A 
HETATM    5  C   UNL     1      27.959  43.078  54.262  1.00  0.00     0.014 A 
HETATM    6  C   UNL     1      29.032  45.096  55.019  1.00  0.00     0.042 A 
HETATM    7  C   UNL     1      29.176  42.404  54.416  1.00  0.00     0.001 A 
HETATM    8  C   UNL     1      30.306  43.075  54.872  1.00  0.00     0.002 A 
HETATM    9  C   UNL     1      30.257  44.437  55.183  1.00  0.00     0.030 A 
HETATM   10  N   UNL     1      28.705  46.414  55.234  1.00  0.00    -0.365 N 
HETATM   11  H   UNL     1      29.350  47.120  55.559  1.00  0.00     0.165 HD
HETATM   12  C   UNL     1      27.386  46.627  54.935  1.00  0.00     0.096 A 
ENDBRANCH   2   3
ENDBRANCH   1   2
BRANCH   1  13
HETATM   13  N   UNL     1      25.869  44.312  51.879  1.00  0.00    -0.343 N 
HETATM   14  C   UNL     1      25.333  43.197  51.284  1.00  0.00     0.259 C 
HETATM   15  O   UNL     1      24.129  42.957  51.358  1.00  0.00    -0.267 OA
HETATM   16  H   UNL     1      26.846  44.540  51.710  1.00  0.00     0.163 HD
BRANCH  14  17
HETATM   17  C   UNL     1      26.276  42.328  50.595  1.00  0.00     0.072 A 
HETATM   18  S   UNL     1      26.296  42.161  48.887  1.00  0.00    -0.097 SA
HETATM   19  C   UNL     1      27.614  41.074  48.935  1.00  0.00     0.050 A 
HETATM   20  C   UNL     1      28.038  40.835  50.223  1.00  0.00     0.009 A 
HETATM   21  C   UNL     1      27.265  41.554  51.178  1.00  0.00     0.025 A 
ENDBRANCH  14  17
ENDBRANCH   1  13
BRANCH   1  22
HETATM   22  C   UNL     1      25.332  46.671  52.031  1.00  0.00     0.245 C 
HETATM   23  N   UNL     1      25.676  46.663  50.691  1.00  0.00    -0.324 N 
HETATM   24  H   UNL     1      25.594  45.788  50.192  1.00  0.00     0.169 HD
HETATM   25  O   UNL     1      25.263  47.684  52.731  1.00  0.00    -0.271 OA
BRANCH  23  26
HETATM   26  C   UNL     1      25.932  47.793  49.885  1.00  0.00     0.052 A 
HETATM   27  C   UNL     1      24.968  48.545  49.217  1.00  0.00     0.145 A 
HETATM   28  N   UNL     1      25.246  49.628  48.443  1.00  0.00    -0.271 NA
HETATM   29  C   UNL     1      26.543  49.975  48.323  1.00  0.00     0.116 A 
HETATM   30  C   UNL     1      27.577  49.299  48.946  1.00  0.00     0.021 A 
HETATM   31  C   UNL     1      27.262  48.197  49.739  1.00  0.00     0.032 A 
ENDBRANCH  23  26
ENDBRANCH   1  22
TORSDOF 6
ENDMDL
MODEL 2
REMARK VINA RESULT:      -9.0      2.171      5.707
REMARK  6 active torsions:
REMARK  status: ('A' for Active; 'I' for Inactive)
REMARK    1  A    between atoms: C_8  and  C_9 
REMARK    2  A    between atoms: C_9  and  C_10 
REMARK    3  A    between atoms: C_10  and  N_11 
REMARK    4  A    between atoms: C_10  and  C_19 
REMARK       I    between atoms: N_11  and  C_12 
REMARK    5  A    between atoms: C_12  and  C_13 
REMARK       I    between atoms: C_19  and  N_20 
REMARK    6  A    between atoms: N_20  and  C_21 
ROOT
HETATM    1  C   UNL     1      26.366  46.093  51.426  1.00  0.00     0.181 C 
ENDROOT
BRANCH   1   2
HETATM    2  C   UNL     1      25.830  45.877  52.855  1.00  0.00     0.075 C 
BRANCH   2   3
HETATM    3  C   UNL     1      26.794  46.210  53.956  1.00  0.00    -0.028 A 
HETATM    4  C   UNL     1      27.918  45.421  54.371  1.00  0.00    -0.002 A 
HETATM    5  C   UNL     1      28.484  44.205  53.934  1.00  0.00     0.014 A 
HETATM    6  C   UNL     1      28.515  46.077  55.448  1.00  0.00     0.042 A 
HETATM    7  C   UNL     1      29.609  43.690  54.589  1.00  0.00     0.001 A 
HETATM    8  C   UNL     1      30.174  44.366  55.666  1.00  0.00     0.002 A 
HETATM    9  C   UNL     1      29.637  45.575  56.118  1.00  0.00     0.030 A 
HETATM   10  N   UNL     1      27.801  47.232  55.666  1.00  0.00    -0.365 N 
HETATM   11  H   UNL     1      28.010  47.909  56.386  1.00  0.00     0.165 HD
HETATM   12  C   UNL     1      26.777  47.331  54.763  1.00  0.00     0.096 A 
ENDBRANCH   2   3
ENDBRANCH   1   2
BRANCH   1  13
HETATM   13  N   UNL     1      25.422  46.836  50.588  1.00  0.00    -0.343 N 
HETATM   14  C   UNL     1      25.762  47.949  49.861  1.00  0.00     0.259 C 
HETATM   15  O   UNL     1      26.916  48.375  49.855  1.00  0.00    -0.267 OA
HETATM   16  H   UNL     1      24.488  46.447  50.488  1.00  0.00     0.163 HD
BRANCH  14  17
HETATM   17  C   UNL     1      24.676  48.589  49.132  1.00  0.00     0.072 A 
HETATM   18  S   UNL     1      23.116  47.886  49.000  1.00  0.00    -0.097 SA
HETATM   19  C   UNL     1      22.518  49.204  48.091  1.00  0.00     0.050 A 
HETATM   20  C   UNL     1      23.480  50.167  47.885  1.00  0.00     0.009 A 
HETATM   21  C   UNL     1      24.724  49.810  48.481  1.00  0.00     0.025 A 
ENDBRANCH  14  17
ENDBRANCH   1  13
BRANCH   1  22
HETATM   22  C   UNL     1      26.719  44.789  50.659  1.00  0.00     0.245 C 
HETATM   23  N   UNL     1      26.367  43.614  51.299  1.00  0.00    -0.324 N 
HETATM   24  H   UNL     1      25.783  43.686  52.121  1.00  0.00     0.169 HD
HETATM   25  O   UNL     1      27.317  44.849  49.582  1.00  0.00    -0.271 OA
BRANCH  23  26
HETATM   26  C   UNL     1      26.561  42.303  50.811  1.00  0.00     0.052 A 
HETATM   27  C   UNL     1      25.642  41.578  50.056  1.00  0.00     0.145 A 
HETATM   28  N   UNL     1      25.856  40.315  49.603  1.00  0.00    -0.271 NA
HETATM   29  C   UNL     1      27.035  39.743  49.921  1.00  0.00     0.116 A 
HETATM   30  C   UNL     1      28.015  40.376  50.664  1.00  0.00     0.021 A 
HETATM   31  C   UNL     1      27.773  41.674  51.109  1.00  0.00     0.032 A 
ENDBRANCH  23  26
ENDBRANCH   1  22
TORSDOF 6
ENDMDL
MODEL 3
REMARK VINA RESULT:      -8.9      2.084      2.950
REMARK  6 active torsions:
REMARK  status: ('A' for Active; 'I' for Inactive)
REMARK    1  A    between atoms: C_8  and  C_9 
REMARK    2  A    between atoms: C_9  and  C_10 
REMARK    3  A    between atoms: C_10  and  N_11 
REMARK    4  A    between atoms: C_10  and  C_19 
REMARK       I    between atoms: N_11  and  C_12 
REMARK    5  A    between atoms: C_12  and  C_13 
REMARK       I    between atoms: C_19  and  N_20 
REMARK    6  A    between atoms: N_20  and  C_21 
ROOT
HETATM    1  C   UNL     1      27.191  43.361  52.880  1.00  0.00     0.181 C 
ENDROOT
BRANCH   1   2
HETATM    2  C   UNL     1      28.553  44.066  53.039  1.00  0.00     0.075 C 
BRANCH   2   3
HETATM    3  C   UNL     1      28.750  44.790  54.338  1.00  0.00    -0.028 A 
HETATM    4  C   UNL     1      29.690  44.452  55.367  1.00  0.00    -0.002 A 
HETATM    5  C   UNL     1      30.679  43.456  55.511  1.00  0.00     0.014 A 
HETATM    6  C   UNL     1      29.510  45.358  56.413  1.00  0.00     0.042 A 
HETATM    7  C   UNL     1      31.437  43.397  56.686  1.00  0.00     0.001 A 
HETATM    8  C   UNL     1      31.224  44.311  57.714  1.00  0.00     0.002 A 
HETATM    9  C   UNL     1      30.255  45.312  57.597  1.00  0.00     0.030 A 
HETATM   10  N   UNL     1      28.518  46.229  56.029  1.00  0.00    -0.365 N 
HETATM   11  H   UNL     1      28.178  46.996  56.591  1.00  0.00     0.165 HD
HETATM   12  C   UNL     1      28.067  45.908  54.777  1.00  0.00     0.096 A 
ENDBRANCH   2   3
ENDBRANCH   1   2
BRANCH   1  13
HETATM   13  N   UNL     1      27.242  42.271  51.904  1.00  0.00    -0.343 N 
HETATM   14  C   UNL     1      27.927  41.099  52.105  1.00  0.00     0.259 C 
HETATM   15  O   UNL     1      28.527  40.889  53.158  1.00  0.00    -0.267 OA
HETATM   16  H   UNL     1      26.669  42.371  51.070  1.00  0.00     0.163 HD
BRANCH  14  17
HETATM   17  C   UNL     1      27.912  40.155  50.997  1.00  0.00     0.072 A 
HETATM   18  S   UNL     1      26.536  39.930  49.997  1.00  0.00    -0.097 SA
HETATM   19  C   UNL     1      27.336  38.773  49.029  1.00  0.00     0.050 A 
HETATM   20  C   UNL     1      28.628  38.552  49.451  1.00  0.00     0.009 A 
HETATM   21  C   UNL     1      28.958  39.345  50.587  1.00  0.00     0.025 A 
ENDBRANCH  14  17
ENDBRANCH   1  13
BRANCH   1  22
HETATM   22  C   UNL     1      26.021  44.291  52.455  1.00  0.00     0.245 C 
HETATM   23  N   UNL     1      26.230  45.007  51.290  1.00  0.00    -0.324 N 
HETATM   24  H   UNL     1      27.037  44.765  50.731  1.00  0.00     0.169 HD
HETATM   25  O   UNL     1      25.019  44.388  53.168  1.00  0.00    -0.271 OA
BRANCH  23  26
HETATM   26  C   UNL     1      25.323  45.903  50.682  1.00  0.00     0.052 A 
HETATM   27  C   UNL     1      25.266  47.275  50.914  1.00  0.00     0.145 A 
HETATM   28  N   UNL     1      24.379  48.113  50.315  1.00  0.00    -0.271 NA
HETATM   29  C   UNL     1      23.503  47.559  49.452  1.00  0.00     0.116 A 
HETATM   30  C   UNL     1      23.476  46.209  49.151  1.00  0.00     0.021 A 
HETATM   31  C   UNL     1      24.403  45.375  49.773  1.00  0.00     0.032 A 
ENDBRANCH  23  26
ENDBRANCH   1  22
TORSDOF 6
ENDMDL
MODEL 4
REMARK VINA RESULT:      -8.7      2.493      5.984
REMARK  6 active torsions:
REMARK  status: ('A' for Active; 'I' for Inactive)
REMARK    1  A    between atoms: C_8  and  C_9 
REMARK    2  A    between atoms: C_9  and  C_10 
REMARK    3  A    between atoms: C_10  and  N_11 
REMARK    4  A    between atoms: C_10  and  C_19 
REMARK       I    between atoms: N_11  and  C_12 
REMARK    5  A    between atoms: C_12  and  C_13 
REMARK       I    between atoms: C_19  and  N_20 
REMARK    6  A    between atoms: N_20  and  C_21 
ROOT
HETATM    1  C   UNL     1      27.241  43.199  51.721  1.00  0.00     0.181 C 
ENDROOT
BRANCH   1   2
HETATM    2  C   UNL     1      27.144  43.051  53.253  1.00  0.00     0.075 C 
BRANCH   2   3
HETATM    3  C   UNL     1      27.793  44.149  54.044  1.00  0.00    -0.028 A 
HETATM    4  C   UNL     1      28.999  44.045  54.813  1.00  0.00    -0.002 A 
HETATM    5  C   UNL     1      29.927  43.010  55.057  1.00  0.00     0.014 A 
HETATM    6  C   UNL     1      29.219  45.284  55.415  1.00  0.00     0.042 A 
HETATM    7  C   UNL     1      31.024  43.248  55.894  1.00  0.00     0.001 A 
HETATM    8  C   UNL     1      31.207  44.493  56.487  1.00  0.00     0.002 A 
HETATM    9  C   UNL     1      30.308  45.538  56.259  1.00  0.00     0.030 A 
HETATM   10  N   UNL     1      28.203  46.117  55.012  1.00  0.00    -0.365 N 
HETATM   11  H   UNL     1      28.107  47.083  55.293  1.00  0.00     0.165 HD
HETATM   12  C   UNL     1      27.351  45.451  54.173  1.00  0.00     0.096 A 
ENDBRANCH   2   3
ENDBRANCH   1   2
BRANCH   1  13
HETATM   13  N   UNL     1      26.221  44.103  51.187  1.00  0.00    -0.343 N 
HETATM   14  C   UNL     1      26.455  45.008  50.182  1.00  0.00     0.259 C 
HETATM   15  O   UNL     1      27.559  45.087  49.646  1.00  0.00    -0.267 OA
HETATM   16  H   UNL     1      25.273  43.987  51.536  1.00  0.00     0.163 HD
BRANCH  14  17
HETATM   17  C   UNL     1      25.333  45.864  49.822  1.00  0.00     0.072 A 
HETATM   18  S   UNL     1      23.918  45.257  49.065  1.00  0.00    -0.097 SA
HETATM   19  C   UNL     1      23.182  46.798  49.038  1.00  0.00     0.050 A 
HETATM   20  C   UNL     1      23.990  47.765  49.592  1.00  0.00     0.009 A 
HETATM   21  C   UNL     1      25.231  47.227  50.040  1.00  0.00     0.025 A 
ENDBRANCH  14  17
ENDBRANCH   1  13
BRANCH   1  22
HETATM   22  C   UNL     1      27.122  41.868  50.929  1.00  0.00     0.245 C 
HETATM   23  N   UNL     1      28.298  41.414  50.358  1.00  0.00    -0.324 N 
HETATM   24  H   UNL     1      29.155  41.882  50.618  1.00  0.00     0.169 HD
HETATM   25  O   UNL     1      26.025  41.319  50.805  1.00  0.00    -0.271 OA
BRANCH  23  26
HETATM   26  C   UNL     1      28.462  40.230  49.607  1.00  0.00     0.052 A 
HETATM   27  C   UNL     1      28.258  40.109  48.234  1.00  0.00     0.145 A 
HETATM   28  N   UNL     1      28.422  38.953  47.538  1.00  0.00    -0.271 NA
HETATM   29  C   UNL     1      28.800  37.866  48.240  1.00  0.00     0.116 A 
HETATM   30  C   UNL     1      29.030  37.878  49.605  1.00  0.00     0.021 A 
HETATM   31  C   UNL     1      28.862  39.079  50.292  1.00  0.00     0.032 A 
ENDBRANCH  23  26
ENDBRANCH   1  22
TORSDOF 6
ENDMDL
MODEL 5
REMARK VINA RESULT:      -8.6      1.499      2.013
REMARK  6 active torsions:
REMARK  status: ('A' for Active; 'I' for Inactive)
REMARK    1  A    between atoms: C_8  and  C_9 
REMARK    2  A    between atoms: C_9  and  C_10 
REMARK    3  A    between atoms: C_10  and  N_11 
REMARK    4  A    between atoms: C_10  and  C_19 
REMARK       I    between atoms: N_11  and  C_12 
REMARK    5  A    between atoms: C_12  and  C_13 
REMARK       I    between atoms: C_19  and  N_20 
REMARK    6  A    between atoms: N_20  and  C_21 
ROOT
HETATM    1  C   UNL     1      26.488  45.092  52.625  1.00  0.00     0.181 C 
ENDROOT
BRANCH   1   2
HETATM    2  C   UNL     1      27.940  44.895  53.103  1.00  0.00     0.075 C 
BRANCH   2   3
HETATM    3  C   UNL     1      28.238  45.422  54.477  1.00  0.00    -0.028 A 
HETATM    4  C   UNL     1      29.278  44.970  55.355  1.00  0.00    -0.002 A 
HETATM    5  C   UNL     1      30.302  44.004  55.256  1.00  0.00     0.014 A 
HETATM    6  C   UNL     1      29.171  45.699  56.540  1.00  0.00     0.042 A 
HETATM    7  C   UNL     1      31.167  43.799  56.338  1.00  0.00     0.001 A 
HETATM    8  C   UNL     1      31.026  44.538  57.508  1.00  0.00     0.002 A 
HETATM    9  C   UNL     1      30.024  45.504  57.633  1.00  0.00     0.030 A 
HETATM   10  N   UNL     1      28.125  46.577  56.383  1.00  0.00    -0.365 N 
HETATM   11  H   UNL     1      27.819  47.236  57.085  1.00  0.00     0.165 HD
HETATM   12  C   UNL     1      27.569  46.432  55.141  1.00  0.00     0.096 A 
ENDBRANCH   2   3
ENDBRANCH   1   2
BRANCH   1  13
HETATM   13  N   UNL     1      26.098  44.103  51.618  1.00  0.00    -0.343 N 
HETATM   14  C   UNL     1      24.796  43.838  51.275  1.00  0.00     0.259 C 
HETATM   15  O   UNL     1      23.866  44.454  51.792  1.00  0.00    -0.267 OA
HETATM   16  H   UNL     1      26.848  43.655  51.098  1.00  0.00     0.163 HD
BRANCH  14  17
HETATM   17  C   UNL     1      24.600  42.780  50.293  1.00  0.00     0.072 A 
HETATM   18  S   UNL     1      25.796  41.593  49.967  1.00  0.00    -0.097 SA
HETATM   19  C   UNL     1      24.807  40.806  48.818  1.00  0.00     0.050 A 
HETATM   20  C   UNL     1      23.587  41.426  48.677  1.00  0.00     0.009 A 
HETATM   21  C   UNL     1      23.470  42.566  49.524  1.00  0.00     0.025 A 
ENDBRANCH  14  17
ENDBRANCH   1  13
BRANCH   1  22
HETATM   22  C   UNL     1      26.185  46.492  52.023  1.00  0.00     0.245 C 
HETATM   23  N   UNL     1      26.297  46.579  50.647  1.00  0.00    -0.324 N 
HETATM   24  H   UNL     1      26.412  45.717  50.131  1.00  0.00     0.169 HD
HETATM   25  O   UNL     1      25.918  47.439  52.766  1.00  0.00    -0.271 OA
BRANCH  23  26
HETATM   26  C   UNL     1      26.061  47.726  49.857  1.00  0.00     0.052 A 
HETATM   27  C   UNL     1      24.810  48.183  49.451  1.00  0.00     0.145 A 
HETATM   28  N   UNL     1      24.613  49.290  48.687  1.00  0.00    -0.271 NA
HETATM   29  C   UNL     1      25.712  49.970  48.304  1.00  0.00     0.116 A 
HETATM   30  C   UNL     1      26.999  49.603  48.654  1.00  0.00     0.021 A 
HETATM   31  C   UNL     1      27.171  48.468  49.444  1.00  0.00     0.032 A 
ENDBRANCH  23  26
ENDBRANCH   1  22
TORSDOF 6
ENDMDL
MODEL 6
REMARK VINA RESULT:      -8.5      2.604      5.762
REMARK  6 active torsions:
REMARK  status: ('A' for Active; 'I' for Inactive)
REMARK    1  A    between atoms: C_8  and  C_9 
REMARK    2  A    between atoms: C_9  and  C_10 
REMARK    3  A    between atoms: C_10  and  N_11 
REMARK    4  A    between atoms: C_10  and  C_19 
REMARK       I    between atoms: N_11  and  C_12 
REMARK    5  A    between atoms: C_12  and  C_13 
REMARK       I    between atoms: C_19  and  N_20 
REMARK    6  A    between atoms: N_20  and  C_21 
ROOT
HETATM    1  C   UNL     1      24.730  45.153  50.744  1.00  0.00     0.181 C 
ENDROOT
BRANCH   1   2
HETATM    2  C   UNL     1      25.778  44.340  49.959  1.00  0.00     0.075 C 
BRANCH   2   3
HETATM    3  C   UNL     1      26.219  43.064  50.614  1.00  0.00    -0.028 A 
HETATM    4  C   UNL     1      27.389  42.882  51.424  1.00  0.00    -0.002 A 
HETATM    5  C   UNL     1      28.417  43.736  51.877  1.00  0.00     0.014 A 
HETATM    6  C   UNL     1      27.436  41.538  51.794  1.00  0.00     0.042 A 
HETATM    7  C   UNL     1      29.450  43.217  52.667  1.00  0.00     0.001 A 
HETATM    8  C   UNL     1      29.471  41.868  53.009  1.00  0.00     0.002 A 
HETATM    9  C   UNL     1      28.464  41.001  52.579  1.00  0.00     0.030 A 
HETATM   10  N   UNL     1      26.329  40.929  51.254  1.00  0.00    -0.365 N 
HETATM   11  H   UNL     1      26.102  39.950  51.361  1.00  0.00     0.165 HD
HETATM   12  C   UNL     1      25.581  41.840  50.559  1.00  0.00     0.096 A 
ENDBRANCH   2   3
ENDBRANCH   1   2
BRANCH   1  13
HETATM   13  N   UNL     1      24.508  46.479  50.162  1.00  0.00    -0.343 N 
HETATM   14  C   UNL     1      23.521  46.755  49.250  1.00  0.00     0.259 C 
HETATM   15  O   UNL     1      22.732  45.884  48.886  1.00  0.00    -0.267 OA
HETATM   16  H   UNL     1      25.075  47.242  50.524  1.00  0.00     0.163 HD
BRANCH  14  17
HETATM   17  C   UNL     1      23.490  48.118  48.739  1.00  0.00     0.072 A 
HETATM   18  S   UNL     1      24.858  49.153  48.793  1.00  0.00    -0.097 SA
HETATM   19  C   UNL     1      24.018  50.426  48.024  1.00  0.00     0.050 A 
HETATM   20  C   UNL     1      22.719  50.081  47.727  1.00  0.00     0.009 A 
HETATM   21  C   UNL     1      22.414  48.753  48.143  1.00  0.00     0.025 A 
ENDBRANCH  14  17
ENDBRANCH   1  13
BRANCH   1  22
HETATM   22  C   UNL     1      25.065  45.371  52.246  1.00  0.00     0.245 C 
HETATM   23  N   UNL     1      25.971  46.383  52.507  1.00  0.00    -0.324 N 
HETATM   24  H   UNL     1      26.224  46.994  51.742  1.00  0.00     0.169 HD
HETATM   25  O   UNL     1      24.571  44.634  53.102  1.00  0.00    -0.271 OA
BRANCH  23  26
HETATM   26  C   UNL     1      26.427  46.792  53.780  1.00  0.00     0.052 A 
HETATM   27  C   UNL     1      25.906  47.847  54.525  1.00  0.00     0.145 A 
HETATM   28  N   UNL     1      26.369  48.219  55.747  1.00  0.00    -0.271 NA
HETATM   29  C   UNL     1      27.403  47.514  56.249  1.00  0.00     0.116 A 
HETATM   30  C   UNL     1      27.993  46.449  55.592  1.00  0.00     0.021 A 
HETATM   31  C   UNL     1      27.492  46.084  54.343  1.00  0.00     0.032 A 
ENDBRANCH  23  26
ENDBRANCH   1  22
TORSDOF 6
ENDMDL
MODEL 7
REMARK VINA RESULT:      -8.4      2.346      5.847
REMARK  6 active torsions:
REMARK  status: ('A' for Active; 'I' for Inactive)
REMARK    1  A    between atoms: C_8  and  C_9 
REMARK    2  A    between atoms: C_9  and  C_10 
REMARK    3  A    between atoms: C_10  and  N_11 
REMARK    4  A    between atoms: C_10  and  C_19 
REMARK       I    between atoms: N_11  and  C_12 
REMARK    5  A    between atoms: C_12  and  C_13 
REMARK       I    between atoms: C_19  and  N_20 
REMARK    6  A    between atoms: N_20  and  C_21 
ROOT
HETATM    1  C   UNL     1      27.004  44.790  51.660  1.00  0.00     0.181 C 
ENDROOT
BRANCH   1   2
HETATM    2  C   UNL     1      27.039  44.865  53.199  1.00  0.00     0.075 C 
BRANCH   2   3
HETATM    3  C   UNL     1      28.299  44.355  53.835  1.00  0.00    -0.028 A 
HETATM    4  C   UNL     1      28.882  44.820  55.061  1.00  0.00    -0.002 A 
HETATM    5  C   UNL     1      28.518  45.787  56.022  1.00  0.00     0.014 A 
HETATM    6  C   UNL     1      30.063  44.104  55.259  1.00  0.00     0.042 A 
HETATM    7  C   UNL     1      29.345  46.007  57.130  1.00  0.00     0.001 A 
HETATM    8  C   UNL     1      30.522  45.281  57.292  1.00  0.00     0.002 A 
HETATM    9  C   UNL     1      30.905  44.314  56.359  1.00  0.00     0.030 A 
HETATM   10  N   UNL     1      30.184  43.222  54.212  1.00  0.00    -0.365 N 
HETATM   11  H   UNL     1      30.948  42.571  54.095  1.00  0.00     0.165 HD
HETATM   12  C   UNL     1      29.121  43.351  53.361  1.00  0.00     0.096 A 
ENDBRANCH   2   3
ENDBRANCH   1   2
BRANCH   1  13
HETATM   13  N   UNL     1      26.228  45.883  51.070  1.00  0.00    -0.343 N 
HETATM   14  C   UNL     1      26.550  46.492  49.882  1.00  0.00     0.259 C 
HETATM   15  O   UNL     1      27.518  46.120  49.222  1.00  0.00    -0.267 OA
HETATM   16  H   UNL     1      25.364  46.140  51.539  1.00  0.00     0.163 HD
BRANCH  14  17
HETATM   17  C   UNL     1      25.693  47.600  49.483  1.00  0.00     0.072 A 
HETATM   18  S   UNL     1      23.982  47.525  49.587  1.00  0.00    -0.097 SA
HETATM   19  C   UNL     1      23.803  49.120  49.000  1.00  0.00     0.050 A 
HETATM   20  C   UNL     1      25.018  49.707  48.726  1.00  0.00     0.009 A 
HETATM   21  C   UNL     1      26.105  48.830  49.001  1.00  0.00     0.025 A 
ENDBRANCH  14  17
ENDBRANCH   1  13
BRANCH   1  22
HETATM   22  C   UNL     1      26.427  43.467  51.085  1.00  0.00     0.245 C 
HETATM   23  N   UNL     1      27.311  42.718  50.329  1.00  0.00    -0.324 N 
HETATM   24  H   UNL     1      28.283  42.996  50.332  1.00  0.00     0.169 HD
HETATM   25  O   UNL     1      25.245  43.175  51.275  1.00  0.00    -0.271 OA
BRANCH  23  26
HETATM   26  C   UNL     1      27.043  41.476  49.712  1.00  0.00     0.052 A 
HETATM   27  C   UNL     1      26.773  40.284  50.380  1.00  0.00     0.145 A 
HETATM   28  N   UNL     1      26.522  39.102  49.759  1.00  0.00    -0.271 NA
HETATM   29  C   UNL     1      26.546  39.103  48.411  1.00  0.00     0.116 A 
HETATM   30  C   UNL     1      26.802  40.231  47.652  1.00  0.00     0.021 A 
HETATM   31  C   UNL     1      27.048  41.432  48.315  1.00  0.00     0.032 A 
ENDBRANCH  23  26
ENDBRANCH   1  22
TORSDOF 6
ENDMDL
MODEL 8
REMARK VINA RESULT:      -8.2      2.380      6.914
REMARK  6 active torsions:
REMARK  status: ('A' for Active; 'I' for Inactive)
REMARK    1  A    between atoms: C_8  and  C_9 
REMARK    2  A    between atoms: C_9  and  C_10 
REMARK    3  A    between atoms: C_10  and  N_11 
REMARK    4  A    between atoms: C_10  and  C_19 
REMARK       I    between atoms: N_11  and  C_12 
REMARK    5  A    between atoms: C_12  and  C_13 
REMARK       I    between atoms: C_19  and  N_20 
REMARK    6  A    between atoms: N_20  and  C_21 
ROOT
HETATM    1  C   UNL     1      26.798  43.117  52.313  1.00  0.00     0.181 C 
ENDROOT
BRANCH   1   2
HETATM    2  C   UNL     1      27.747  42.261  51.450  1.00  0.00     0.075 C 
BRANCH   2   3
HETATM    3  C   UNL     1      27.083  41.170  50.661  1.00  0.00    -0.028 A 
HETATM    4  C   UNL     1      27.660  39.907  50.302  1.00  0.00    -0.002 A 
HETATM    5  C   UNL     1      28.901  39.283  50.554  1.00  0.00     0.014 A 
HETATM    6  C   UNL     1      26.718  39.219  49.538  1.00  0.00     0.042 A 
HETATM    7  C   UNL     1      29.153  38.010  50.029  1.00  0.00     0.001 A 
HETATM    8  C   UNL     1      28.194  37.355  49.262  1.00  0.00     0.002 A 
HETATM    9  C   UNL     1      26.955  37.947  49.001  1.00  0.00     0.030 A 
HETATM   10  N   UNL     1      25.602  40.017  49.454  1.00  0.00    -0.365 N 
HETATM   11  H   UNL     1      24.756  39.771  48.959  1.00  0.00     0.165 HD
HETATM   12  C   UNL     1      25.804  41.184  50.140  1.00  0.00     0.096 A 
ENDBRANCH   2   3
ENDBRANCH   1   2
BRANCH   1  13
HETATM   13  N   UNL     1      26.416  44.363  51.646  1.00  0.00    -0.343 N 
HETATM   14  C   UNL     1      25.115  44.733  51.410  1.00  0.00     0.259 C 
HETATM   15  O   UNL     1      24.178  44.029  51.783  1.00  0.00    -0.267 OA
HETATM   16  H   UNL     1      27.164  45.014  51.422  1.00  0.00     0.163 HD
BRANCH  14  17
HETATM   17  C   UNL     1      24.932  45.981  50.682  1.00  0.00     0.072 A 
HETATM   18  S   UNL     1      26.063  47.269  50.760  1.00  0.00    -0.097 SA
HETATM   19  C   UNL     1      25.155  48.230  49.679  1.00  0.00     0.050 A 
HETATM   20  C   UNL     1      24.009  47.593  49.259  1.00  0.00     0.009 A 
HETATM   21  C   UNL     1      23.879  46.299  49.841  1.00  0.00     0.025 A 
ENDBRANCH  14  17
ENDBRANCH   1  13
BRANCH   1  22
HETATM   22  C   UNL     1      27.360  43.507  53.708  1.00  0.00     0.245 C 
HETATM   23  N   UNL     1      28.732  43.670  53.766  1.00  0.00    -0.324 N 
HETATM   24  H   UNL     1      29.240  43.677  52.893  1.00  0.00     0.169 HD
HETATM   25  O   UNL     1      26.601  43.602  54.675  1.00  0.00    -0.271 OA
BRANCH  23  26
HETATM   26  C   UNL     1      29.485  44.037  54.903  1.00  0.00     0.052 A 
HETATM   27  C   UNL     1      29.359  45.235  55.604  1.00  0.00     0.145 A 
HETATM   28  N   UNL     1      30.102  45.562  56.694  1.00  0.00    -0.271 NA
HETATM   29  C   UNL     1      31.017  44.660  57.103  1.00  0.00     0.116 A 
HETATM   30  C   UNL     1      31.221  43.442  56.480  1.00  0.00     0.021 A 
HETATM   31  C   UNL     1      30.440  43.129  55.369  1.00  0.00     0.032 A 
ENDBRANCH  23  26
ENDBRANCH   1  22
TORSDOF 6
ENDMDL
MODEL 9
REMARK VINA RESULT:      -8.1      2.869      7.259
REMARK  6 active torsions:
REMARK  status: ('A' for Active; 'I' for Inactive)
REMARK    1  A    between atoms: C_8  and  C_9 
REMARK    2  A    between atoms: C_9  and  C_10 
REMARK    3  A    between atoms: C_10  and  N_11 
REMARK    4  A    between atoms: C_10  and  C_19 
REMARK       I    between atoms: N_11  and  C_12 
REMARK    5  A    between atoms: C_12  and  C_13 
REMARK       I    between atoms: C_19  and  N_20 
REMARK    6  A    between atoms: N_20  and  C_21 
ROOT
HETATM    1  C   UNL     1      25.516  46.344  50.957  1.00  0.00     0.181 C 
ENDROOT
BRANCH   1   2
HETATM    2  C   UNL     1      26.372  46.824  49.768  1.00  0.00     0.075 C 
BRANCH   2   3
HETATM    3  C   UNL     1      25.993  48.164  49.208  1.00  0.00    -0.028 A 
HETATM    4  C   UNL     1      24.661  48.652  48.993  1.00  0.00    -0.002 A 
HETATM    5  C   UNL     1      23.371  48.130  49.227  1.00  0.00     0.014 A 
HETATM    6  C   UNL     1      24.767  49.920  48.423  1.00  0.00     0.042 A 
HETATM    7  C   UNL     1      22.245  48.886  48.877  1.00  0.00     0.001 A 
HETATM    8  C   UNL     1      22.387  50.144  48.301  1.00  0.00     0.002 A 
HETATM    9  C   UNL     1      23.653  50.688  48.062  1.00  0.00     0.030 A 
HETATM   10  N   UNL     1      26.107  50.207  48.317  1.00  0.00    -0.365 N 
HETATM   11  H   UNL     1      26.482  51.065  47.938  1.00  0.00     0.165 HD
HETATM   12  C   UNL     1      26.852  49.167  48.803  1.00  0.00     0.096 A 
ENDBRANCH   2   3
ENDBRANCH   1   2
BRANCH   1  13
HETATM   13  N   UNL     1      26.324  46.082  52.150  1.00  0.00    -0.343 N 
HETATM   14  C   UNL     1      26.259  46.835  53.295  1.00  0.00     0.259 C 
HETATM   15  O   UNL     1      25.475  47.779  53.389  1.00  0.00    -0.267 OA
HETATM   16  H   UNL     1      26.903  45.246  52.140  1.00  0.00     0.163 HD
BRANCH  14  17
HETATM   17  C   UNL     1      27.180  46.459  54.358  1.00  0.00     0.072 A 
HETATM   18  S   UNL     1      27.398  47.411  55.768  1.00  0.00    -0.097 SA
HETATM   19  C   UNL     1      28.528  46.311  56.426  1.00  0.00     0.050 A 
HETATM   20  C   UNL     1      28.744  45.235  55.595  1.00  0.00     0.009 A 
HETATM   21  C   UNL     1      27.971  45.323  54.402  1.00  0.00     0.025 A 
ENDBRANCH  14  17
ENDBRANCH   1  13
BRANCH   1  22
HETATM   22  C   UNL     1      24.685  45.060  50.685  1.00  0.00     0.245 C 
HETATM   23  N   UNL     1      24.671  44.634  49.369  1.00  0.00    -0.324 N 
HETATM   24  H   UNL     1      25.308  45.083  48.725  1.00  0.00     0.169 HD
HETATM   25  O   UNL     1      24.059  44.524  51.602  1.00  0.00    -0.271 OA
BRANCH  23  26
HETATM   26  C   UNL     1      24.010  43.493  48.863  1.00  0.00     0.052 A 
HETATM   27  C   UNL     1      22.715  43.471  48.350  1.00  0.00     0.145 A 
HETATM   28  N   UNL     1      22.103  42.355  47.873  1.00  0.00    -0.271 NA
HETATM   29  C   UNL     1      22.809  41.206  47.915  1.00  0.00     0.116 A 
HETATM   30  C   UNL     1      24.101  41.120  48.403  1.00  0.00     0.021 A 
HETATM   31  C   UNL     1      24.707  42.282  48.878  1.00  0.00     0.032 A 
ENDBRANCH  23  26
ENDBRANCH   1  22
TORSDOF 6
ENDMDL
MODEL 10
REMARK VINA RESULT:      -8.0      3.245      6.399
REMARK  6 active torsions:
REMARK  status: ('A' for Active; 'I' for Inactive)
REMARK    1  A    between atoms: C_8  and  C_9 
REMARK    2  A    between atoms: C_9  and  C_10 
REMARK    3  A    between atoms: C_10  and  N_11 
REMARK    4  A    between atoms: C_10  and  C_19 
REMARK       I    between atoms: N_11  and  C_12 
REMARK    5  A    between atoms: C_12  and  C_13 
REMARK       I    between atoms: C_19  and  N_20 
REMARK    6  A    between atoms: N_20  and  C_21 
ROOT
HETATM    1  C   UNL     1      27.964  41.970  52.003  1.00  0.00     0.181 C 
ENDROOT
BRANCH   1   2
HETATM    2  C   UNL     1      27.938  41.881  53.542  1.00  0.00     0.075 C 
BRANCH   2   3
HETATM    3  C   UNL     1      28.647  42.994  54.258  1.00  0.00    -0.028 A 
HETATM    4  C   UNL     1      28.155  44.328  54.456  1.00  0.00    -0.002 A 
HETATM    5  C   UNL     1      26.960  44.998  54.122  1.00  0.00     0.014 A 
HETATM    6  C   UNL     1      29.145  45.042  55.131  1.00  0.00     0.042 A 
HETATM    7  C   UNL     1      26.804  46.347  54.463  1.00  0.00     0.001 A 
HETATM    8  C   UNL     1      27.816  47.032  55.127  1.00  0.00     0.002 A 
HETATM    9  C   UNL     1      29.009  46.392  55.476  1.00  0.00     0.030 A 
HETATM   10  N   UNL     1      30.188  44.175  55.357  1.00  0.00    -0.365 N 
HETATM   11  H   UNL     1      31.046  44.420  55.833  1.00  0.00     0.165 HD
HETATM   12  C   UNL     1      29.891  42.938  54.854  1.00  0.00     0.096 A 
ENDBRANCH   2   3
ENDBRANCH   1   2
BRANCH   1  13
HETATM   13  N   UNL     1      26.700  42.466  51.457  1.00  0.00    -0.343 N 
HETATM   14  C   UNL     1      26.571  43.666  50.802  1.00  0.00     0.259 C 
HETATM   15  O   UNL     1      27.546  44.392  50.613  1.00  0.00    -0.267 OA
HETATM   16  H   UNL     1      25.899  41.841  51.504  1.00  0.00     0.163 HD
BRANCH  14  17
HETATM   17  C   UNL     1      25.223  44.019  50.379  1.00  0.00     0.072 A 
HETATM   18  S   UNL     1      24.873  45.470  49.534  1.00  0.00    -0.097 SA
HETATM   19  C   UNL     1      23.212  45.090  49.418  1.00  0.00     0.050 A 
HETATM   20  C   UNL     1      22.917  43.882  50.010  1.00  0.00     0.009 A 
HETATM   21  C   UNL     1      24.075  43.268  50.567  1.00  0.00     0.025 A 
ENDBRANCH  14  17
ENDBRANCH   1  13
BRANCH   1  22
HETATM   22  C   UNL     1      28.273  40.630  51.279  1.00  0.00     0.245 C 
HETATM   23  N   UNL     1      27.497  40.371  50.164  1.00  0.00    -0.324 N 
HETATM   24  H   UNL     1      26.910  41.117  49.817  1.00  0.00     0.169 HD
HETATM   25  O   UNL     1      29.124  39.864  51.735  1.00  0.00    -0.271 OA
BRANCH  23  26
HETATM   26  C   UNL     1      27.588  39.239  49.324  1.00  0.00     0.052 A 
HETATM   27  C   UNL     1      26.911  38.036  49.512  1.00  0.00     0.145 A 
HETATM   28  N   UNL     1      27.022  36.961  48.688  1.00  0.00    -0.271 NA
HETATM   29  C   UNL     1      27.849  37.086  47.631  1.00  0.00     0.116 A 
HETATM   30  C   UNL     1      28.566  38.236  47.352  1.00  0.00     0.021 A 
HETATM   31  C   UNL     1      28.428  39.325  48.210  1.00  0.00     0.032 A 
ENDBRANCH  23  26
ENDBRANCH   1  22
TORSDOF 6
ENDMDL
