MODEL 1
REMARK VINA RESULT:     -10.3      0.000      0.000
REMARK  7 active torsions:
REMARK  status: ('A' for Active; 'I' for Inactive)
REMARK    1  A    between atoms: C_6  and  N_7 
REMARK    2  A    between atoms: C_10  and  C_11 
REMARK       I    between atoms: C_11  and  N_12 
REMARK    3  A    between atoms: N_12  and  C_13 
REMARK    4  A    between atoms: C_16  and  C_17 
REMARK    5  A    between atoms: C_17  and  N_18 
REMARK    6  A    between atoms: C_21  and  C_22 
REMARK       I    between atoms: C_22  and  N_23 
REMARK    7  A    between atoms: C_31  and  C_32 
ROOT
HETATM    1  C   UNL     1      25.712  45.137  52.672  1.00  0.00     0.278 C 
HETATM    2  N   UNL     1      25.907  45.729  51.437  1.00  0.00    -0.322 N 
HETATM    3  O   UNL     1      24.633  44.859  53.179  1.00  0.00    -0.265 OA
HETATM    4  H   UNL     1      26.879  45.839  51.161  1.00  0.00     0.169 HD
ENDROOT
BRANCH   2   5
HETATM    5  C   UNL     1      24.922  46.153  50.524  1.00  0.00     0.035 A 
HETATM    6  C   UNL     1      24.176  45.284  49.729  1.00  0.00     0.030 A 
HETATM    7  C   UNL     1      23.219  45.776  48.835  1.00  0.00     0.011 A 
HETATM    8  C   UNL     1      22.984  47.151  48.722  1.00  0.00    -0.032 A 
HETATM    9  C   UNL     1      23.729  48.026  49.523  1.00  0.00     0.011 A 
HETATM   10  C   UNL     1      24.685  47.528  50.417  1.00  0.00     0.030 A 
BRANCH   8  11
HETATM   11  C   UNL     1      21.951  47.664  47.754  1.00  0.00     0.273 C 
BRANCH  11  12
HETATM   12  N   UNL     1      20.811  48.398  48.422  1.00  0.00    -0.066 N 
HETATM   13  H   UNL     1      21.249  49.006  49.144  1.00  0.00     0.280 HD
HETATM   14  C   UNL     1      20.097  49.359  47.496  1.00  0.00     0.249 C 
HETATM   15  C   UNL     1      19.062  50.182  48.264  1.00  0.00     0.103 C 
HETATM   16  C   UNL     1      18.095  49.277  49.031  1.00  0.00     0.017 C 
HETATM   17  C   UNL     1      18.828  48.255  49.903  1.00  0.00     0.029 C 
HETATM   18  C   UNL     1      19.868  47.462  49.123  1.00  0.00     0.235 C 
BRANCH  15  19
HETATM   19  C   UNL     1      19.781  51.117  49.219  1.00  0.00     0.221 C 
HETATM   20  N   UNL     1      18.996  51.916  49.986  1.00  0.00    -0.370 N 
HETATM   21  H   UNL     1      17.993  52.009  49.874  1.00  0.00     0.159 HD
HETATM   22  H   UNL     1      19.446  52.557  50.631  1.00  0.00     0.159 HD
HETATM   23  O   UNL     1      21.002  51.084  49.350  1.00  0.00    -0.273 OA
ENDBRANCH  15  19
ENDBRANCH  11  12
ENDBRANCH   8  11
ENDBRANCH   2   5
BRANCH   1  24
HETATM   24  C   UNL     1      26.965  44.817  53.347  1.00  0.00     0.175 C 
HETATM   25  N   UNL     1      27.661  43.665  53.112  1.00  0.00    -0.152 NA
HETATM   26  N   UNL     1      28.732  43.674  53.888  1.00  0.00     0.011 NA
HETATM   27  N   UNL     1      28.670  44.760  54.710  1.00  0.00    -0.231 N 
HETATM   28  C   UNL     1      27.657  45.582  54.268  1.00  0.00     0.174 C 
BRANCH  27  29
HETATM   29  C   UNL     1      29.545  44.839  55.830  1.00  0.00     0.058 A 
HETATM   30  C   UNL     1      30.581  43.897  55.947  1.00  0.00     0.073 A 
HETATM   31  C   UNL     1      31.442  43.947  57.039  1.00  0.00     0.118 A 
HETATM   32  C   UNL     1      31.287  44.904  58.034  1.00  0.00     0.042 A 
HETATM   33  F   UNL     1      32.439  43.058  57.131  1.00  0.00    -0.206 F 
HETATM   34  C   UNL     1      30.246  45.823  57.940  1.00  0.00     0.005 A 
HETATM   35  C   UNL     1      29.372  45.789  56.846  1.00  0.00     0.031 A 
ENDBRANCH  27  29
BRANCH  28  36
HETATM   36  C   UNL     1      27.456  46.970  54.670  1.00  0.00     0.436 C 
HETATM   37  F   UNL     1      26.543  47.607  53.894  1.00  0.00    -0.165 F 
HETATM   38  F   UNL     1      26.981  47.077  55.935  1.00  0.00    -0.165 F 
HETATM   39  F   UNL     1      28.603  47.685  54.602  1.00  0.00    -0.165 F 
ENDBRANCH  28  36
ENDBRANCH   1  24
TORSDOF 7
ENDMDL
MODEL 2
REMARK VINA RESULT:      -9.7      4.546     11.849
REMARK  7 active torsions:
REMARK  status: ('A' for Active; 'I' for Inactive)
REMARK    1  A    between atoms: C_6  and  N_7 
REMARK    2  A    between atoms: C_10  and  C_11 
REMARK       I    between atoms: C_11  and  N_12 
REMARK    3  A    between atoms: N_12  and  C_13 
REMARK    4  A    between atoms: C_16  and  C_17 
REMARK    5  A    between atoms: C_17  and  N_18 
REMARK    6  A    between atoms: C_21  and  C_22 
REMARK       I    between atoms: C_22  and  N_23 
REMARK    7  A    between atoms: C_31  and  C_32 
ROOT
HETATM    1  C   UNL     1      21.891  48.435  48.175  1.00  0.00     0.278 C 
HETATM    2  N   UNL     1      22.193  47.527  49.174  1.00  0.00    -0.322 N 
HETATM    3  O   UNL     1      22.674  48.899  47.357  1.00  0.00    -0.265 OA
HETATM    4  H   UNL     1      21.400  47.218  49.729  1.00  0.00     0.169 HD
ENDROOT
BRANCH   2   5
HETATM    5  C   UNL     1      23.451  46.968  49.472  1.00  0.00     0.035 A 
HETATM    6  C   UNL     1      24.510  47.690  50.020  1.00  0.00     0.030 A 
HETATM    7  C   UNL     1      25.738  47.071  50.282  1.00  0.00     0.011 A 
HETATM    8  C   UNL     1      25.928  45.712  50.006  1.00  0.00    -0.032 A 
HETATM    9  C   UNL     1      24.864  44.984  49.460  1.00  0.00     0.011 A 
HETATM   10  C   UNL     1      23.638  45.608  49.200  1.00  0.00     0.030 A 
BRANCH   8  11
HETATM   11  C   UNL     1      27.256  45.063  50.293  1.00  0.00     0.273 C 
BRANCH  11  12
HETATM   12  N   UNL     1      27.250  44.203  51.536  1.00  0.00    -0.066 N 
HETATM   13  H   UNL     1      26.726  43.341  51.282  1.00  0.00     0.280 HD
HETATM   14  C   UNL     1      28.627  43.711  51.927  1.00  0.00     0.249 C 
HETATM   15  C   UNL     1      28.538  42.725  53.093  1.00  0.00     0.103 C 
HETATM   16  C   UNL     1      27.773  43.331  54.273  1.00  0.00     0.017 C 
HETATM   17  C   UNL     1      26.415  43.898  53.851  1.00  0.00     0.029 C 
HETATM   18  C   UNL     1      26.524  44.861  52.676  1.00  0.00     0.235 C 
BRANCH  15  19
HETATM   19  C   UNL     1      27.857  41.455  52.617  1.00  0.00     0.221 C 
HETATM   20  N   UNL     1      27.477  40.577  53.581  1.00  0.00    -0.370 N 
HETATM   21  H   UNL     1      27.723  40.662  54.560  1.00  0.00     0.159 HD
HETATM   22  H   UNL     1      27.023  39.716  53.295  1.00  0.00     0.159 HD
HETATM   23  O   UNL     1      27.588  41.278  51.431  1.00  0.00    -0.273 OA
ENDBRANCH  15  19
ENDBRANCH  11  12
ENDBRANCH   8  11
ENDBRANCH   2   5
BRANCH   1  24
HETATM   24  C   UNL     1      20.477  48.792  48.147  1.00  0.00     0.175 C 
HETATM   25  N   UNL     1      19.488  47.883  47.892  1.00  0.00    -0.152 NA
HETATM   26  N   UNL     1      18.331  48.524  47.924  1.00  0.00     0.011 NA
HETATM   27  N   UNL     1      18.572  49.858  48.076  1.00  0.00    -0.231 N 
HETATM   28  C   UNL     1      19.903  50.026  48.390  1.00  0.00     0.174 C 
BRANCH  27  29
HETATM   29  C   UNL     1      17.518  50.787  47.848  1.00  0.00     0.058 A 
HETATM   30  C   UNL     1      16.638  51.084  48.901  1.00  0.00     0.073 A 
HETATM   31  C   UNL     1      15.594  51.982  48.699  1.00  0.00     0.118 A 
HETATM   32  C   UNL     1      15.390  52.580  47.462  1.00  0.00     0.042 A 
HETATM   33  F   UNL     1      14.773  52.274  49.715  1.00  0.00    -0.206 F 
HETATM   34  C   UNL     1      16.240  52.270  46.405  1.00  0.00     0.005 A 
HETATM   35  C   UNL     1      17.298  51.371  46.592  1.00  0.00     0.031 A 
ENDBRANCH  27  29
BRANCH  28  36
HETATM   36  C   UNL     1      20.499  51.246  48.924  1.00  0.00     0.436 C 
HETATM   37  F   UNL     1      21.764  51.444  48.475  1.00  0.00    -0.165 F 
HETATM   38  F   UNL     1      19.815  52.357  48.559  1.00  0.00    -0.165 F 
HETATM   39  F   UNL     1      20.557  51.227  50.277  1.00  0.00    -0.165 F 
ENDBRANCH  28  36
ENDBRANCH   1  24
TORSDOF 7
ENDMDL
MODEL 3
REMARK VINA RESULT:      -9.4      4.012     11.316
REMARK  7 active torsions:
REMARK  status: ('A' for Active; 'I' for Inactive)
REMARK    1  A    between atoms: C_6  and  N_7 
REMARK    2  A    between atoms: C_10  and  C_11 
REMARK       I    between atoms: C_11  and  N_12 
REMARK    3  A    between atoms: N_12  and  C_13 
REMARK    4  A    between atoms: C_16  and  C_17 
REMARK    5  A    between atoms: C_17  and  N_18 
REMARK    6  A    between atoms: C_21  and  C_22 
REMARK       I    between atoms: C_22  and  N_23 
REMARK    7  A    between atoms: C_31  and  C_32 
ROOT
HETATM    1  C   UNL     1      22.307  48.034  48.560  1.00  0.00     0.278 C 
HETATM    2  N   UNL     1      22.531  46.919  49.349  1.00  0.00    -0.322 N 
HETATM    3  O   UNL     1      23.145  48.637  47.904  1.00  0.00    -0.265 OA
HETATM    4  H   UNL     1      21.701  46.524  49.782  1.00  0.00     0.169 HD
ENDROOT
BRANCH   2   5
HETATM    5  C   UNL     1      23.756  46.264  49.579  1.00  0.00     0.035 A 
HETATM    6  C   UNL     1      24.068  45.002  49.076  1.00  0.00     0.030 A 
HETATM    7  C   UNL     1      25.304  44.407  49.353  1.00  0.00     0.011 A 
HETATM    8  C   UNL     1      26.257  45.066  50.137  1.00  0.00    -0.032 A 
HETATM    9  C   UNL     1      25.948  46.336  50.641  1.00  0.00     0.011 A 
HETATM   10  C   UNL     1      24.710  46.928  50.360  1.00  0.00     0.030 A 
BRANCH   8  11
HETATM   11  C   UNL     1      27.581  44.410  50.428  1.00  0.00     0.273 C 
BRANCH  11  12
HETATM   12  N   UNL     1      27.880  44.284  51.904  1.00  0.00    -0.066 N 
HETATM   13  H   UNL     1      28.118  45.244  52.228  1.00  0.00     0.280 HD
HETATM   14  C   UNL     1      26.669  43.894  52.725  1.00  0.00     0.249 C 
HETATM   15  C   UNL     1      26.993  43.935  54.219  1.00  0.00     0.103 C 
HETATM   16  C   UNL     1      28.223  43.082  54.542  1.00  0.00     0.017 C 
HETATM   17  C   UNL     1      29.418  43.430  53.650  1.00  0.00     0.029 C 
HETATM   18  C   UNL     1      29.068  43.403  52.169  1.00  0.00     0.235 C 
BRANCH  15  19
HETATM   19  C   UNL     1      27.225  45.376  54.637  1.00  0.00     0.221 C 
HETATM   20  N   UNL     1      27.813  45.566  55.846  1.00  0.00    -0.370 N 
HETATM   21  H   UNL     1      27.990  44.828  56.518  1.00  0.00     0.159 HD
HETATM   22  H   UNL     1      27.977  46.518  56.156  1.00  0.00     0.159 HD
HETATM   23  O   UNL     1      26.973  46.310  53.880  1.00  0.00    -0.273 OA
ENDBRANCH  15  19
ENDBRANCH  11  12
ENDBRANCH   8  11
ENDBRANCH   2   5
BRANCH   1  24
HETATM   24  C   UNL     1      20.905  48.437  48.542  1.00  0.00     0.175 C 
HETATM   25  N   UNL     1      19.882  47.555  48.334  1.00  0.00    -0.152 NA
HETATM   26  N   UNL     1      18.749  48.236  48.361  1.00  0.00     0.011 NA
HETATM   27  N   UNL     1      19.037  49.565  48.462  1.00  0.00    -0.231 N 
HETATM   28  C   UNL     1      20.378  49.698  48.749  1.00  0.00     0.174 C 
BRANCH  27  29
HETATM   29  C   UNL     1      18.012  50.522  48.217  1.00  0.00     0.058 A 
HETATM   30  C   UNL     1      17.069  50.777  49.227  1.00  0.00     0.073 A 
HETATM   31  C   UNL     1      16.051  51.700  49.007  1.00  0.00     0.118 A 
HETATM   32  C   UNL     1      15.935  52.366  47.794  1.00  0.00     0.042 A 
HETATM   33  F   UNL     1      15.170  51.951  49.983  1.00  0.00    -0.206 F 
HETATM   34  C   UNL     1      16.847  52.099  46.778  1.00  0.00     0.005 A 
HETATM   35  C   UNL     1      17.880  51.175  46.983  1.00  0.00     0.031 A 
ENDBRANCH  27  29
BRANCH  28  36
HETATM   36  C   UNL     1      21.024  50.914  49.231  1.00  0.00     0.436 C 
HETATM   37  F   UNL     1      20.145  51.779  49.796  1.00  0.00    -0.165 F 
HETATM   38  F   UNL     1      21.942  50.663  50.196  1.00  0.00    -0.165 F 
HETATM   39  F   UNL     1      21.650  51.581  48.233  1.00  0.00    -0.165 F 
ENDBRANCH  28  36
ENDBRANCH   1  24
TORSDOF 7
ENDMDL
MODEL 4
REMARK VINA RESULT:      -9.1     14.967     15.717
REMARK  7 active torsions:
REMARK  status: ('A' for Active; 'I' for Inactive)
REMARK    1  A    between atoms: C_6  and  N_7 
REMARK    2  A    between atoms: C_10  and  C_11 
REMARK       I    between atoms: C_11  and  N_12 
REMARK    3  A    between atoms: N_12  and  C_13 
REMARK    4  A    between atoms: C_16  and  C_17 
REMARK    5  A    between atoms: C_17  and  N_18 
REMARK    6  A    between atoms: C_21  and  C_22 
REMARK       I    between atoms: C_22  and  N_23 
REMARK    7  A    between atoms: C_31  and  C_32 
ROOT
HETATM    1  C   UNL     1      37.104  53.103  43.058  1.00  0.00     0.278 C 
HETATM    2  N   UNL     1      36.400  52.063  43.637  1.00  0.00    -0.322 N 
HETATM    3  O   UNL     1      36.698  53.852  42.180  1.00  0.00    -0.265 OA
HETATM    4  H   UNL     1      36.885  51.580  44.388  1.00  0.00     0.169 HD
ENDROOT
BRANCH   2   5
HETATM    5  C   UNL     1      35.094  51.636  43.329  1.00  0.00     0.035 A 
HETATM    6  C   UNL     1      34.775  50.849  42.224  1.00  0.00     0.030 A 
HETATM    7  C   UNL     1      33.453  50.469  41.973  1.00  0.00     0.011 A 
HETATM    8  C   UNL     1      32.419  50.865  42.829  1.00  0.00    -0.032 A 
HETATM    9  C   UNL     1      32.737  51.652  43.943  1.00  0.00     0.011 A 
HETATM   10  C   UNL     1      34.063  52.029  44.190  1.00  0.00     0.030 A 
BRANCH   8  11
HETATM   11  C   UNL     1      31.000  50.449  42.544  1.00  0.00     0.273 C 
BRANCH  11  12
HETATM   12  N   UNL     1      30.421  51.095  41.306  1.00  0.00    -0.066 N 
HETATM   13  H   UNL     1      31.234  51.468  40.774  1.00  0.00     0.280 HD
HETATM   14  C   UNL     1      29.773  50.102  40.364  1.00  0.00     0.249 C 
HETATM   15  C   UNL     1      29.347  50.787  39.065  1.00  0.00     0.103 C 
HETATM   16  C   UNL     1      28.456  52.000  39.346  1.00  0.00     0.017 C 
HETATM   17  C   UNL     1      29.085  52.957  40.361  1.00  0.00     0.029 C 
HETATM   18  C   UNL     1      29.520  52.250  41.638  1.00  0.00     0.235 C 
BRANCH  15  19
HETATM   19  C   UNL     1      30.587  51.209  38.297  1.00  0.00     0.221 C 
HETATM   20  N   UNL     1      30.379  51.944  37.175  1.00  0.00    -0.370 N 
HETATM   21  H   UNL     1      29.469  52.120  36.766  1.00  0.00     0.159 HD
HETATM   22  H   UNL     1      31.188  52.238  36.637  1.00  0.00     0.159 HD
HETATM   23  O   UNL     1      31.715  50.972  38.722  1.00  0.00    -0.273 OA
ENDBRANCH  15  19
ENDBRANCH  11  12
ENDBRANCH   8  11
ENDBRANCH   2   5
BRANCH   1  24
HETATM   24  C   UNL     1      38.434  53.272  43.634  1.00  0.00     0.175 C 
HETATM   25  N   UNL     1      39.490  52.467  43.309  1.00  0.00    -0.152 NA
HETATM   26  N   UNL     1      40.537  52.871  44.009  1.00  0.00     0.011 NA
HETATM   27  N   UNL     1      40.138  53.848  44.872  1.00  0.00    -0.231 N 
HETATM   28  C   UNL     1      38.860  54.233  44.532  1.00  0.00     0.174 C 
BRANCH  27  29
HETATM   29  C   UNL     1      41.004  54.240  45.931  1.00  0.00     0.058 A 
HETATM   30  C   UNL     1      40.710  53.817  47.239  1.00  0.00     0.073 A 
HETATM   31  C   UNL     1      41.537  54.197  48.291  1.00  0.00     0.118 A 
HETATM   32  C   UNL     1      42.644  55.008  48.080  1.00  0.00     0.042 A 
HETATM   33  F   UNL     1      41.260  53.772  49.530  1.00  0.00    -0.206 F 
HETATM   34  C   UNL     1      42.926  55.456  46.793  1.00  0.00     0.005 A 
HETATM   35  C   UNL     1      42.107  55.080  45.720  1.00  0.00     0.031 A 
ENDBRANCH  27  29
BRANCH  28  36
HETATM   36  C   UNL     1      38.187  55.441  44.997  1.00  0.00     0.436 C 
HETATM   37  F   UNL     1      38.996  56.229  45.749  1.00  0.00    -0.165 F 
HETATM   38  F   UNL     1      37.776  56.230  43.974  1.00  0.00    -0.165 F 
HETATM   39  F   UNL     1      37.101  55.153  45.752  1.00  0.00    -0.165 F 
ENDBRANCH  28  36
ENDBRANCH   1  24
TORSDOF 7
ENDMDL
MODEL 5
REMARK VINA RESULT:      -9.1      5.877      9.354
REMARK  7 active torsions:
REMARK  status: ('A' for Active; 'I' for Inactive)
REMARK    1  A    between atoms: C_6  and  N_7 
REMARK    2  A    between atoms: C_10  and  C_11 
REMARK       I    between atoms: C_11  and  N_12 
REMARK    3  A    between atoms: N_12  and  C_13 
REMARK    4  A    between atoms: C_16  and  C_17 
REMARK    5  A    between atoms: C_17  and  N_18 
REMARK    6  A    between atoms: C_21  and  C_22 
REMARK       I    between atoms: C_22  and  N_23 
REMARK    7  A    between atoms: C_31  and  C_32 
ROOT
HETATM    1  C   UNL     1      19.087  49.379  49.480  1.00  0.00     0.278 C 
HETATM    2  N   UNL     1      18.809  50.577  48.845  1.00  0.00    -0.322 N 
HETATM    3  O   UNL     1      18.329  48.753  50.209  1.00  0.00    -0.265 OA
HETATM    4  H   UNL     1      19.548  50.924  48.240  1.00  0.00     0.169 HD
ENDROOT
BRANCH   2   5
HETATM    5  C   UNL     1      17.622  51.330  48.918  1.00  0.00     0.035 A 
HETATM    6  C   UNL     1      16.486  51.064  48.155  1.00  0.00     0.030 A 
HETATM    7  C   UNL     1      15.343  51.861  48.272  1.00  0.00     0.011 A 
HETATM    8  C   UNL     1      15.310  52.942  49.161  1.00  0.00    -0.032 A 
HETATM    9  C   UNL     1      16.449  53.209  49.932  1.00  0.00     0.011 A 
HETATM   10  C   UNL     1      17.591  52.407  49.812  1.00  0.00     0.030 A 
BRANCH   8  11
HETATM   11  C   UNL     1      14.072  53.791  49.272  1.00  0.00     0.273 C 
BRANCH  11  12
HETATM   12  N   UNL     1      14.168  54.858  50.339  1.00  0.00    -0.066 N 
HETATM   13  H   UNL     1      13.224  55.293  50.391  1.00  0.00     0.280 HD
HETATM   14  C   UNL     1      14.405  54.295  51.724  1.00  0.00     0.249 C 
HETATM   15  C   UNL     1      14.336  55.403  52.777  1.00  0.00     0.103 C 
HETATM   16  C   UNL     1      15.292  56.549  52.436  1.00  0.00     0.017 C 
HETATM   17  C   UNL     1      15.099  57.057  51.005  1.00  0.00     0.029 C 
HETATM   18  C   UNL     1      15.150  55.936  49.976  1.00  0.00     0.235 C 
BRANCH  15  19
HETATM   19  C   UNL     1      12.910  55.913  52.868  1.00  0.00     0.221 C 
HETATM   20  N   UNL     1      12.680  56.902  53.769  1.00  0.00    -0.370 N 
HETATM   21  H   UNL     1      13.359  57.225  54.449  1.00  0.00     0.159 HD
HETATM   22  H   UNL     1      11.736  57.262  53.858  1.00  0.00     0.159 HD
HETATM   23  O   UNL     1      12.036  55.511  52.103  1.00  0.00    -0.273 OA
ENDBRANCH  15  19
ENDBRANCH  11  12
ENDBRANCH   8  11
ENDBRANCH   2   5
BRANCH   1  24
HETATM   24  C   UNL     1      20.419  48.872  49.169  1.00  0.00     0.175 C 
HETATM   25  N   UNL     1      20.634  47.632  48.635  1.00  0.00    -0.152 NA
HETATM   26  N   UNL     1      21.940  47.476  48.489  1.00  0.00     0.011 NA
HETATM   27  N   UNL     1      22.575  48.552  49.036  1.00  0.00    -0.231 N 
HETATM   28  C   UNL     1      21.633  49.518  49.313  1.00  0.00     0.174 C 
BRANCH  27  29
HETATM   29  C   UNL     1      23.978  48.490  49.268  1.00  0.00     0.058 A 
HETATM   30  C   UNL     1      24.824  49.340  48.535  1.00  0.00     0.073 A 
HETATM   31  C   UNL     1      26.200  49.289  48.738  1.00  0.00     0.118 A 
HETATM   32  C   UNL     1      26.762  48.396  49.640  1.00  0.00     0.042 A 
HETATM   33  F   UNL     1      26.995  50.117  48.050  1.00  0.00    -0.206 F 
HETATM   34  C   UNL     1      25.934  47.530  50.349  1.00  0.00     0.005 A 
HETATM   35  C   UNL     1      24.546  47.569  50.161  1.00  0.00     0.031 A 
ENDBRANCH  27  29
BRANCH  28  36
HETATM   36  C   UNL     1      21.918  50.916  49.616  1.00  0.00     0.436 C 
HETATM   37  F   UNL     1      23.246  51.156  49.758  1.00  0.00    -0.165 F 
HETATM   38  F   UNL     1      21.512  51.752  48.629  1.00  0.00    -0.165 F 
HETATM   39  F   UNL     1      21.319  51.315  50.762  1.00  0.00    -0.165 F 
ENDBRANCH  28  36
ENDBRANCH   1  24
TORSDOF 7
ENDMDL
MODEL 6
REMARK VINA RESULT:      -9.1     14.772     15.485
REMARK  7 active torsions:
REMARK  status: ('A' for Active; 'I' for Inactive)
REMARK    1  A    between atoms: C_6  and  N_7 
REMARK    2  A    between atoms: C_10  and  C_11 
REMARK       I    between atoms: C_11  and  N_12 
REMARK    3  A    between atoms: N_12  and  C_13 
REMARK    4  A    between atoms: C_16  and  C_17 
REMARK    5  A    between atoms: C_17  and  N_18 
REMARK    6  A    between atoms: C_21  and  C_22 
REMARK       I    between atoms: C_22  and  N_23 
REMARK    7  A    between atoms: C_31  and  C_32 
ROOT
HETATM    1  C   UNL     1      36.784  53.456  44.047  1.00  0.00     0.278 C 
HETATM    2  N   UNL     1      35.859  52.559  44.551  1.00  0.00    -0.322 N 
HETATM    3  O   UNL     1      36.868  53.833  42.886  1.00  0.00    -0.265 OA
HETATM    4  H   UNL     1      35.913  52.403  45.554  1.00  0.00     0.169 HD
ENDROOT
BRANCH   2   5
HETATM    5  C   UNL     1      34.846  51.884  43.844  1.00  0.00     0.035 A 
HETATM    6  C   UNL     1      35.072  51.140  42.686  1.00  0.00     0.030 A 
HETATM    7  C   UNL     1      34.015  50.502  42.028  1.00  0.00     0.011 A 
HETATM    8  C   UNL     1      32.707  50.591  42.520  1.00  0.00    -0.032 A 
HETATM    9  C   UNL     1      32.478  51.333  43.685  1.00  0.00     0.011 A 
HETATM   10  C   UNL     1      33.540  51.970  44.340  1.00  0.00     0.030 A 
BRANCH   8  11
HETATM   11  C   UNL     1      31.581  49.899  41.798  1.00  0.00     0.273 C 
BRANCH  11  12
HETATM   12  N   UNL     1      30.507  50.845  41.310  1.00  0.00    -0.066 N 
HETATM   13  H   UNL     1      30.647  51.730  41.840  1.00  0.00     0.280 HD
HETATM   14  C   UNL     1      30.676  51.238  39.859  1.00  0.00     0.249 C 
HETATM   15  C   UNL     1      29.658  52.312  39.468  1.00  0.00     0.103 C 
HETATM   16  C   UNL     1      28.231  51.866  39.795  1.00  0.00     0.017 C 
HETATM   17  C   UNL     1      28.090  51.393  41.244  1.00  0.00     0.029 C 
HETATM   18  C   UNL     1      29.126  50.341  41.618  1.00  0.00     0.235 C 
BRANCH  15  19
HETATM   19  C   UNL     1      29.990  53.600  40.199  1.00  0.00     0.221 C 
HETATM   20  N   UNL     1      29.254  54.690  39.865  1.00  0.00    -0.370 N 
HETATM   21  H   UNL     1      28.598  54.722  39.094  1.00  0.00     0.159 HD
HETATM   22  H   UNL     1      29.455  55.568  40.333  1.00  0.00     0.159 HD
HETATM   23  O   UNL     1      30.820  53.626  41.105  1.00  0.00    -0.273 OA
ENDBRANCH  15  19
ENDBRANCH  11  12
ENDBRANCH   8  11
ENDBRANCH   2   5
BRANCH   1  24
HETATM   24  C   UNL     1      37.683  53.974  45.072  1.00  0.00     0.175 C 
HETATM   25  N   UNL     1      37.365  55.040  45.867  1.00  0.00    -0.152 NA
HETATM   26  N   UNL     1      38.390  55.263  46.673  1.00  0.00     0.011 NA
HETATM   27  N   UNL     1      39.413  54.433  46.323  1.00  0.00    -0.231 N 
HETATM   28  C   UNL     1      38.930  53.498  45.434  1.00  0.00     0.174 C 
BRANCH  27  29
HETATM   29  C   UNL     1      40.717  54.676  46.840  1.00  0.00     0.058 A 
HETATM   30  C   UNL     1      41.592  55.499  46.111  1.00  0.00     0.073 A 
HETATM   31  C   UNL     1      42.875  55.742  46.591  1.00  0.00     0.118 A 
HETATM   32  C   UNL     1      43.321  55.168  47.775  1.00  0.00     0.042 A 
HETATM   33  F   UNL     1      43.694  56.544  45.899  1.00  0.00    -0.206 F 
HETATM   34  C   UNL     1      42.471  54.329  48.488  1.00  0.00     0.005 A 
HETATM   35  C   UNL     1      41.175  54.076  48.022  1.00  0.00     0.031 A 
ENDBRANCH  27  29
BRANCH  28  36
HETATM   36  C   UNL     1      39.605  52.262  45.054  1.00  0.00     0.436 C 
HETATM   37  F   UNL     1      40.681  52.483  44.257  1.00  0.00    -0.165 F 
HETATM   38  F   UNL     1      40.090  51.588  46.125  1.00  0.00    -0.165 F 
HETATM   39  F   UNL     1      38.780  51.424  44.383  1.00  0.00    -0.165 F 
ENDBRANCH  28  36
ENDBRANCH   1  24
TORSDOF 7
ENDMDL
MODEL 7
REMARK VINA RESULT:      -8.9      3.103      5.202
REMARK  7 active torsions:
REMARK  status: ('A' for Active; 'I' for Inactive)
REMARK    1  A    between atoms: C_6  and  N_7 
REMARK    2  A    between atoms: C_10  and  C_11 
REMARK       I    between atoms: C_11  and  N_12 
REMARK    3  A    between atoms: N_12  and  C_13 
REMARK    4  A    between atoms: C_16  and  C_17 
REMARK    5  A    between atoms: C_17  and  N_18 
REMARK    6  A    between atoms: C_21  and  C_22 
REMARK       I    between atoms: C_22  and  N_23 
REMARK    7  A    between atoms: C_31  and  C_32 
ROOT
HETATM    1  C   UNL     1      23.084  46.875  48.857  1.00  0.00     0.278 C 
HETATM    2  N   UNL     1      22.523  47.881  49.622  1.00  0.00    -0.322 N 
HETATM    3  O   UNL     1      22.939  46.715  47.652  1.00  0.00    -0.265 OA
HETATM    4  H   UNL     1      22.796  47.880  50.601  1.00  0.00     0.169 HD
ENDROOT
BRANCH   2   5
HETATM    5  C   UNL     1      21.661  48.907  49.191  1.00  0.00     0.035 A 
HETATM    6  C   UNL     1      22.066  50.224  48.983  1.00  0.00     0.030 A 
HETATM    7  C   UNL     1      21.152  51.196  48.562  1.00  0.00     0.011 A 
HETATM    8  C   UNL     1      19.810  50.868  48.336  1.00  0.00    -0.032 A 
HETATM    9  C   UNL     1      19.401  49.544  48.541  1.00  0.00     0.011 A 
HETATM   10  C   UNL     1      20.320  48.575  48.961  1.00  0.00     0.030 A 
BRANCH   8  11
HETATM   11  C   UNL     1      18.839  51.927  47.886  1.00  0.00     0.273 C 
BRANCH  11  12
HETATM   12  N   UNL     1      17.710  51.387  47.037  1.00  0.00    -0.066 N 
HETATM   13  H   UNL     1      18.028  50.454  46.703  1.00  0.00     0.280 HD
HETATM   14  C   UNL     1      16.453  51.101  47.830  1.00  0.00     0.249 C 
HETATM   15  C   UNL     1      15.405  50.413  46.953  1.00  0.00     0.103 C 
HETATM   16  C   UNL     1      15.129  51.225  45.684  1.00  0.00     0.017 C 
HETATM   17  C   UNL     1      16.414  51.578  44.932  1.00  0.00     0.029 C 
HETATM   18  C   UNL     1      17.451  52.242  45.829  1.00  0.00     0.235 C 
BRANCH  15  19
HETATM   19  C   UNL     1      15.893  49.022  46.594  1.00  0.00     0.221 C 
HETATM   20  N   UNL     1      14.968  48.029  46.636  1.00  0.00    -0.370 N 
HETATM   21  H   UNL     1      14.028  48.139  46.998  1.00  0.00     0.159 HD
HETATM   22  H   UNL     1      15.264  47.086  46.406  1.00  0.00     0.159 HD
HETATM   23  O   UNL     1      17.042  48.827  46.203  1.00  0.00    -0.273 OA
ENDBRANCH  15  19
ENDBRANCH  11  12
ENDBRANCH   8  11
ENDBRANCH   2   5
BRANCH   1  24
HETATM   24  C   UNL     1      23.941  45.986  49.634  1.00  0.00     0.175 C 
HETATM   25  N   UNL     1      23.586  44.705  49.952  1.00  0.00    -0.152 NA
HETATM   26  N   UNL     1      24.566  44.181  50.670  1.00  0.00     0.011 NA
HETATM   27  N   UNL     1      25.493  45.148  50.921  1.00  0.00    -0.231 N 
HETATM   28  C   UNL     1      25.204  46.242  50.136  1.00  0.00     0.174 C 
BRANCH  27  29
HETATM   29  C   UNL     1      26.490  44.919  51.911  1.00  0.00     0.058 A 
HETATM   30  C   UNL     1      27.559  44.059  51.608  1.00  0.00     0.073 A 
HETATM   31  C   UNL     1      28.540  43.812  52.564  1.00  0.00     0.118 A 
HETATM   32  C   UNL     1      28.475  44.384  53.827  1.00  0.00     0.042 A 
HETATM   33  F   UNL     1      29.566  43.007  52.259  1.00  0.00    -0.206 F 
HETATM   34  C   UNL     1      27.404  45.214  54.145  1.00  0.00     0.005 A 
HETATM   35  C   UNL     1      26.409  45.478  53.195  1.00  0.00     0.031 A 
ENDBRANCH  27  29
BRANCH  28  36
HETATM   36  C   UNL     1      26.104  47.360  49.875  1.00  0.00     0.436 C 
HETATM   37  F   UNL     1      26.517  47.970  51.014  1.00  0.00    -0.165 F 
HETATM   38  F   UNL     1      27.242  46.970  49.250  1.00  0.00    -0.165 F 
HETATM   39  F   UNL     1      25.520  48.309  49.106  1.00  0.00    -0.165 F 
ENDBRANCH  28  36
ENDBRANCH   1  24
TORSDOF 7
ENDMDL
MODEL 8
REMARK VINA RESULT:      -8.8      2.732      3.951
REMARK  7 active torsions:
REMARK  status: ('A' for Active; 'I' for Inactive)
REMARK    1  A    between atoms: C_6  and  N_7 
REMARK    2  A    between atoms: C_10  and  C_11 
REMARK       I    between atoms: C_11  and  N_12 
REMARK    3  A    between atoms: N_12  and  C_13 
REMARK    4  A    between atoms: C_16  and  C_17 
REMARK    5  A    between atoms: C_17  and  N_18 
REMARK    6  A    between atoms: C_21  and  C_22 
REMARK       I    between atoms: C_22  and  N_23 
REMARK    7  A    between atoms: C_31  and  C_32 
ROOT
HETATM    1  C   UNL     1      23.709  44.621  48.805  1.00  0.00     0.278 C 
HETATM    2  N   UNL     1      22.794  45.523  49.319  1.00  0.00    -0.322 N 
HETATM    3  O   UNL     1      23.812  44.284  47.634  1.00  0.00    -0.265 OA
HETATM    4  H   UNL     1      22.891  45.716  50.313  1.00  0.00     0.169 HD
ENDROOT
BRANCH   2   5
HETATM    5  C   UNL     1      21.789  46.218  48.619  1.00  0.00     0.035 A 
HETATM    6  C   UNL     1      20.546  45.672  48.301  1.00  0.00     0.030 A 
HETATM    7  C   UNL     1      19.597  46.418  47.594  1.00  0.00     0.011 A 
HETATM    8  C   UNL     1      19.871  47.731  47.193  1.00  0.00    -0.032 A 
HETATM    9  C   UNL     1      21.117  48.283  47.515  1.00  0.00     0.011 A 
HETATM   10  C   UNL     1      22.064  47.533  48.224  1.00  0.00     0.030 A 
BRANCH   8  11
HETATM   11  C   UNL     1      18.839  48.519  46.431  1.00  0.00     0.273 C 
BRANCH  11  12
HETATM   12  N   UNL     1      18.182  49.604  47.253  1.00  0.00    -0.066 N 
HETATM   13  H   UNL     1      18.571  49.508  48.213  1.00  0.00     0.280 HD
HETATM   14  C   UNL     1      18.577  51.000  46.820  1.00  0.00     0.249 C 
HETATM   15  C   UNL     1      18.009  52.046  47.782  1.00  0.00     0.103 C 
HETATM   16  C   UNL     1      16.495  51.885  47.941  1.00  0.00     0.017 C 
HETATM   17  C   UNL     1      16.100  50.450  48.299  1.00  0.00     0.029 C 
HETATM   18  C   UNL     1      16.693  49.425  47.342  1.00  0.00     0.235 C 
BRANCH  15  19
HETATM   19  C   UNL     1      18.699  51.910  49.126  1.00  0.00     0.221 C 
HETATM   20  N   UNL     1      18.041  52.424  50.196  1.00  0.00    -0.370 N 
HETATM   21  H   UNL     1      17.199  52.984  50.134  1.00  0.00     0.159 HD
HETATM   22  H   UNL     1      18.479  52.353  51.109  1.00  0.00     0.159 HD
HETATM   23  O   UNL     1      19.753  51.288  49.246  1.00  0.00    -0.273 OA
ENDBRANCH  15  19
ENDBRANCH  11  12
ENDBRANCH   8  11
ENDBRANCH   2   5
BRANCH   1  24
HETATM   24  C   UNL     1      24.616  44.099  49.821  1.00  0.00     0.175 C 
HETATM   25  N   UNL     1      24.515  42.833  50.326  1.00  0.00    -0.152 NA
HETATM   26  N   UNL     1      25.468  42.680  51.230  1.00  0.00     0.011 NA
HETATM   27  N   UNL     1      26.105  43.874  51.402  1.00  0.00    -0.231 N 
HETATM   28  C   UNL     1      25.699  44.731  50.404  1.00  0.00     0.174 C 
BRANCH  27  29
HETATM   29  C   UNL     1      26.968  44.049  52.521  1.00  0.00     0.058 A 
HETATM   30  C   UNL     1      28.280  43.551  52.449  1.00  0.00     0.073 A 
HETATM   31  C   UNL     1      29.138  43.701  53.534  1.00  0.00     0.118 A 
HETATM   32  C   UNL     1      28.716  44.319  54.704  1.00  0.00     0.042 A 
HETATM   33  F   UNL     1      30.392  43.242  53.448  1.00  0.00    -0.206 F 
HETATM   34  C   UNL     1      27.410  44.790  54.795  1.00  0.00     0.005 A 
HETATM   35  C   UNL     1      26.533  44.651  53.711  1.00  0.00     0.031 A 
ENDBRANCH  27  29
BRANCH  28  36
HETATM   36  C   UNL     1      26.354  45.984  50.045  1.00  0.00     0.436 C 
HETATM   37  F   UNL     1      25.627  46.716  49.164  1.00  0.00    -0.165 F 
HETATM   38  F   UNL     1      26.536  46.797  51.115  1.00  0.00    -0.165 F 
HETATM   39  F   UNL     1      27.567  45.775  49.480  1.00  0.00    -0.165 F 
ENDBRANCH  28  36
ENDBRANCH   1  24
TORSDOF 7
ENDMDL
MODEL 9
REMARK VINA RESULT:      -8.7     13.609     16.990
REMARK  7 active torsions:
REMARK  status: ('A' for Active; 'I' for Inactive)
REMARK    1  A    between atoms: C_6  and  N_7 
REMARK    2  A    between atoms: C_10  and  C_11 
REMARK       I    between atoms: C_11  and  N_12 
REMARK    3  A    between atoms: N_12  and  C_13 
REMARK    4  A    between atoms: C_16  and  C_17 
REMARK    5  A    between atoms: C_17  and  N_18 
REMARK    6  A    between atoms: C_21  and  C_22 
REMARK       I    between atoms: C_22  and  N_23 
REMARK    7  A    between atoms: C_31  and  C_32 
ROOT
HETATM    1  C   UNL     1      32.274  50.631  43.194  1.00  0.00     0.278 C 
HETATM    2  N   UNL     1      33.376  50.628  42.357  1.00  0.00    -0.322 N 
HETATM    3  O   UNL     1      32.249  51.014  44.356  1.00  0.00    -0.265 OA
HETATM    4  H   UNL     1      33.193  50.317  41.407  1.00  0.00     0.169 HD
ENDROOT
BRANCH   2   5
HETATM    5  C   UNL     1      34.687  51.039  42.664  1.00  0.00     0.035 A 
HETATM    6  C   UNL     1      34.990  52.059  43.564  1.00  0.00     0.030 A 
HETATM    7  C   UNL     1      36.318  52.423  43.814  1.00  0.00     0.011 A 
HETATM    8  C   UNL     1      37.373  51.767  43.169  1.00  0.00    -0.032 A 
HETATM    9  C   UNL     1      37.072  50.739  42.268  1.00  0.00     0.011 A 
HETATM   10  C   UNL     1      35.741  50.379  42.022  1.00  0.00     0.030 A 
BRANCH   8  11
HETATM   11  C   UNL     1      38.797  52.172  43.449  1.00  0.00     0.273 C 
BRANCH  11  12
HETATM   12  N   UNL     1      38.914  53.349  44.389  1.00  0.00    -0.066 N 
HETATM   13  H   UNL     1      37.972  53.466  44.816  1.00  0.00     0.280 HD
HETATM   14  C   UNL     1      39.834  53.084  45.562  1.00  0.00     0.249 C 
HETATM   15  C   UNL     1      39.791  54.246  46.556  1.00  0.00     0.103 C 
HETATM   16  C   UNL     1      40.089  55.578  45.863  1.00  0.00     0.017 C 
HETATM   17  C   UNL     1      39.209  55.799  44.631  1.00  0.00     0.029 C 
HETATM   18  C   UNL     1      39.250  54.622  43.665  1.00  0.00     0.235 C 
BRANCH  15  19
HETATM   19  C   UNL     1      38.423  54.286  47.213  1.00  0.00     0.221 C 
HETATM   20  N   UNL     1      38.280  53.564  48.353  1.00  0.00    -0.370 N 
HETATM   21  H   UNL     1      38.976  52.922  48.714  1.00  0.00     0.159 HD
HETATM   22  H   UNL     1      37.376  53.566  48.814  1.00  0.00     0.159 HD
HETATM   23  O   UNL     1      37.526  55.007  46.780  1.00  0.00    -0.273 OA
ENDBRANCH  15  19
ENDBRANCH  11  12
ENDBRANCH   8  11
ENDBRANCH   2   5
BRANCH   1  24
HETATM   24  C   UNL     1      31.066  50.145  42.537  1.00  0.00     0.175 C 
HETATM   25  N   UNL     1      30.723  48.823  42.499  1.00  0.00    -0.152 NA
HETATM   26  N   UNL     1      29.592  48.718  41.822  1.00  0.00     0.011 NA
HETATM   27  N   UNL     1      29.266  49.942  41.318  1.00  0.00    -0.231 N 
HETATM   28  C   UNL     1      30.086  50.884  41.899  1.00  0.00     0.174 C 
BRANCH  27  29
HETATM   29  C   UNL     1      28.259  50.039  40.316  1.00  0.00     0.058 A 
HETATM   30  C   UNL     1      27.066  49.317  40.483  1.00  0.00     0.073 A 
HETATM   31  C   UNL     1      26.072  49.388  39.511  1.00  0.00     0.118 A 
HETATM   32  C   UNL     1      26.243  50.147  38.362  1.00  0.00     0.042 A 
HETATM   33  F   UNL     1      24.930  48.712  39.689  1.00  0.00    -0.206 F 
HETATM   34  C   UNL     1      27.434  50.843  38.175  1.00  0.00     0.005 A 
HETATM   35  C   UNL     1      28.444  50.787  39.144  1.00  0.00     0.031 A 
ENDBRANCH  27  29
BRANCH  28  36
HETATM   36  C   UNL     1      29.873  52.327  41.871  1.00  0.00     0.436 C 
HETATM   37  F   UNL     1      30.418  52.952  42.944  1.00  0.00    -0.165 F 
HETATM   38  F   UNL     1      30.447  52.912  40.791  1.00  0.00    -0.165 F 
HETATM   39  F   UNL     1      28.556  52.641  41.855  1.00  0.00    -0.165 F 
ENDBRANCH  28  36
ENDBRANCH   1  24
TORSDOF 7
ENDMDL
MODEL 10
REMARK VINA RESULT:      -8.7      5.289      7.006
REMARK  7 active torsions:
REMARK  status: ('A' for Active; 'I' for Inactive)
REMARK    1  A    between atoms: C_6  and  N_7 
REMARK    2  A    between atoms: C_10  and  C_11 
REMARK       I    between atoms: C_11  and  N_12 
REMARK    3  A    between atoms: N_12  and  C_13 
REMARK    4  A    between atoms: C_16  and  C_17 
REMARK    5  A    between atoms: C_17  and  N_18 
REMARK    6  A    between atoms: C_21  and  C_22 
REMARK       I    between atoms: C_22  and  N_23 
REMARK    7  A    between atoms: C_31  and  C_32 
ROOT
HETATM    1  C   UNL     1      27.257  44.002  51.018  1.00  0.00     0.278 C 
HETATM    2  N   UNL     1      26.368  42.952  50.879  1.00  0.00    -0.322 N 
HETATM    3  O   UNL     1      27.707  44.694  50.115  1.00  0.00    -0.265 OA
HETATM    4  H   UNL     1      26.067  42.524  51.751  1.00  0.00     0.169 HD
ENDROOT
BRANCH   2   5
HETATM    5  C   UNL     1      25.817  42.447  49.686  1.00  0.00     0.035 A 
HETATM    6  C   UNL     1      24.522  42.725  49.251  1.00  0.00     0.030 A 
HETATM    7  C   UNL     1      24.035  42.180  48.058  1.00  0.00     0.011 A 
HETATM    8  C   UNL     1      24.839  41.348  47.270  1.00  0.00    -0.032 A 
HETATM    9  C   UNL     1      26.142  41.071  47.702  1.00  0.00     0.011 A 
HETATM   10  C   UNL     1      26.624  41.620  48.897  1.00  0.00     0.030 A 
BRANCH   8  11
HETATM   11  C   UNL     1      24.299  40.769  45.989  1.00  0.00     0.273 C 
BRANCH  11  12
HETATM   12  N   UNL     1      23.326  39.633  46.205  1.00  0.00    -0.066 N 
HETATM   13  H   UNL     1      23.007  39.717  47.192  1.00  0.00     0.280 HD
HETATM   14  C   UNL     1      22.063  39.767  45.382  1.00  0.00     0.249 C 
HETATM   15  C   UNL     1      21.055  38.679  45.758  1.00  0.00     0.103 C 
HETATM   16  C   UNL     1      21.681  37.286  45.652  1.00  0.00     0.017 C 
HETATM   17  C   UNL     1      23.000  37.185  46.422  1.00  0.00     0.029 C 
HETATM   18  C   UNL     1      23.980  38.290  46.048  1.00  0.00     0.235 C 
BRANCH  15  19
HETATM   19  C   UNL     1      20.557  38.930  47.170  1.00  0.00     0.221 C 
HETATM   20  N   UNL     1      19.751  37.977  47.702  1.00  0.00    -0.370 N 
HETATM   21  H   UNL     1      19.376  37.191  47.185  1.00  0.00     0.159 HD
HETATM   22  H   UNL     1      19.398  38.117  48.644  1.00  0.00     0.159 HD
HETATM   23  O   UNL     1      20.939  39.900  47.820  1.00  0.00    -0.273 OA
ENDBRANCH  15  19
ENDBRANCH  11  12
ENDBRANCH   8  11
ENDBRANCH   2   5
BRANCH   1  24
HETATM   24  C   UNL     1      27.610  44.261  52.410  1.00  0.00     0.175 C 
HETATM   25  N   UNL     1      27.003  45.228  53.162  1.00  0.00    -0.152 NA
HETATM   26  N   UNL     1      27.559  45.215  54.362  1.00  0.00     0.011 NA
HETATM   27  N   UNL     1      28.601  44.335  54.355  1.00  0.00    -0.231 N 
HETATM   28  C   UNL     1      28.541  43.601  53.191  1.00  0.00     0.174 C 
BRANCH  27  29
HETATM   29  C   UNL     1      29.536  44.352  55.428  1.00  0.00     0.058 A 
HETATM   30  C   UNL     1      29.554  45.459  56.292  1.00  0.00     0.073 A 
HETATM   31  C   UNL     1      30.467  45.503  57.342  1.00  0.00     0.118 A 
HETATM   32  C   UNL     1      31.382  44.478  57.542  1.00  0.00     0.042 A 
HETATM   33  F   UNL     1      30.463  46.553  58.173  1.00  0.00    -0.206 F 
HETATM   34  C   UNL     1      31.390  43.391  56.673  1.00  0.00     0.005 A 
HETATM   35  C   UNL     1      30.476  43.328  55.614  1.00  0.00     0.031 A 
ENDBRANCH  27  29
BRANCH  28  36
HETATM   36  C   UNL     1      29.273  42.366  52.930  1.00  0.00     0.436 C 
HETATM   37  F   UNL     1      28.989  41.843  51.711  1.00  0.00    -0.165 F 
HETATM   38  F   UNL     1      30.616  42.552  52.931  1.00  0.00    -0.165 F 
HETATM   39  F   UNL     1      28.991  41.410  53.847  1.00  0.00    -0.165 F 
ENDBRANCH  28  36
ENDBRANCH   1  24
TORSDOF 7
ENDMDL
