MODEL 1
REMARK VINA RESULT:      -9.0      0.000      0.000
REMARK  9 active torsions:
REMARK  status: ('A' for Active; 'I' for Inactive)
REMARK    1  A    between atoms: C_2  and  N_3 
REMARK    2  A    between atoms: C_4  and  S_5 
REMARK    3  A    between atoms: S_5  and  C_6 
REMARK    4  A    between atoms: C_6  and  C_7 
REMARK       I    between atoms: C_7  and  N_8 
REMARK    5  A    between atoms: N_8  and  C_9 
REMARK    6  A    between atoms: C_9  and  C_10 
REMARK    7  A    between atoms: C_10  and  C_11 
REMARK    8  A    between atoms: C_14  and  O_15 
REMARK    9  A    between atoms: C_22  and  C_23 
ROOT
HETATM    1  C   UNL     1      25.589  47.603  49.968  1.00  0.00     0.185 C 
ENDROOT
BRANCH   1   2
HETATM    2  S   UNL     1      24.017  47.133  49.187  1.00  0.00    -0.081 SA
BRANCH   2   3
HETATM    3  C   UNL     1      23.145  48.614  49.372  1.00  0.00     0.192 A 
HETATM    4  N   UNL     1      21.785  48.739  49.241  1.00  0.00    -0.308 N 
HETATM    5  C   UNL     1      21.517  50.086  49.430  1.00  0.00     0.164 A 
HETATM    6  N   UNL     1      22.668  50.697  49.668  1.00  0.00    -0.128 NA
HETATM    7  N   UNL     1      23.681  49.777  49.641  1.00  0.00    -0.122 NA
BRANCH   4   8
HETATM    8  C   UNL     1      20.862  47.692  48.853  1.00  0.00     0.128 C 
HETATM    9  C   UNL     1      20.386  47.825  47.413  1.00  0.00     0.027 C 
ENDBRANCH   4   8
BRANCH   5  10
HETATM   10  C   UNL     1      20.232  50.790  49.321  1.00  0.00     0.012 A 
HETATM   11  C   UNL     1      20.132  51.861  48.416  1.00  0.00     0.015 A 
HETATM   12  C   UNL     1      18.945  52.585  48.278  1.00  0.00     0.001 A 
HETATM   13  C   UNL     1      17.835  52.250  49.047  1.00  0.00     0.000 A 
HETATM   14  C   UNL     1      17.920  51.205  49.963  1.00  0.00     0.001 A 
HETATM   15  C   UNL     1      19.114  50.488  50.107  1.00  0.00     0.015 A 
ENDBRANCH   5  10
ENDBRANCH   2   3
ENDBRANCH   1   2
BRANCH   1  16
HETATM   16  C   UNL     1      25.722  46.888  51.301  1.00  0.00     0.227 C 
HETATM   17  N   UNL     1      26.058  45.550  51.201  1.00  0.00    -0.360 N 
HETATM   18  H   UNL     1      26.443  45.228  50.321  1.00  0.00     0.162 HD
HETATM   19  O   UNL     1      25.536  47.453  52.377  1.00  0.00    -0.273 OA
BRANCH  17  20
HETATM   20  C   UNL     1      26.339  44.759  52.389  1.00  0.00     0.127 C 
BRANCH  20  21
HETATM   21  C   UNL     1      27.594  43.905  52.215  1.00  0.00     0.058 C 
BRANCH  21  22
HETATM   22  C   UNL     1      28.518  44.012  53.401  1.00  0.00    -0.057 A 
HETATM   23  C   UNL     1      28.346  45.030  54.345  1.00  0.00     0.010 A 
HETATM   24  C   UNL     1      29.219  45.141  55.430  1.00  0.00     0.037 A 
HETATM   25  C   UNL     1      30.278  44.243  55.589  1.00  0.00     0.068 A 
HETATM   26  C   UNL     1      30.454  43.228  54.649  1.00  0.00     0.037 A 
HETATM   27  C   UNL     1      29.580  43.115  53.562  1.00  0.00     0.010 A 
BRANCH  25  28
HETATM   28  O   UNL     1      31.057  44.466  56.691  1.00  0.00    -0.356 OA
HETATM   29  C   UNL     1      31.768  43.350  57.210  1.00  0.00     0.210 C 
ENDBRANCH  25  28
ENDBRANCH  21  22
ENDBRANCH  20  21
ENDBRANCH  17  20
ENDBRANCH   1  16
TORSDOF 9
ENDMDL
MODEL 2
REMARK VINA RESULT:      -8.5      2.319     11.137
REMARK  9 active torsions:
REMARK  status: ('A' for Active; 'I' for Inactive)
REMARK    1  A    between atoms: C_2  and  N_3 
REMARK    2  A    between atoms: C_4  and  S_5 
REMARK    3  A    between atoms: S_5  and  C_6 
REMARK    4  A    between atoms: C_6  and  C_7 
REMARK       I    between atoms: C_7  and  N_8 
REMARK    5  A    between atoms: N_8  and  C_9 
REMARK    6  A    between atoms: C_9  and  C_10 
REMARK    7  A    between atoms: C_10  and  C_11 
REMARK    8  A    between atoms: C_14  and  O_15 
REMARK    9  A    between atoms: C_22  and  C_23 
ROOT
HETATM    1  C   UNL     1      24.816  45.695  49.707  1.00  0.00     0.185 C 
ENDROOT
BRANCH   1   2
HETATM    2  S   UNL     1      24.422  44.905  51.294  1.00  0.00    -0.081 SA
BRANCH   2   3
HETATM    3  C   UNL     1      26.016  44.480  51.812  1.00  0.00     0.192 A 
HETATM    4  N   UNL     1      26.484  44.626  53.094  1.00  0.00    -0.308 N 
HETATM    5  C   UNL     1      27.803  44.203  53.057  1.00  0.00     0.164 A 
HETATM    6  N   UNL     1      28.072  43.825  51.816  1.00  0.00    -0.128 NA
HETATM    7  N   UNL     1      26.954  43.989  51.043  1.00  0.00    -0.122 NA
BRANCH   4   8
HETATM    8  C   UNL     1      25.769  45.224  54.203  1.00  0.00     0.128 C 
HETATM    9  C   UNL     1      25.862  46.744  54.217  1.00  0.00     0.027 C 
ENDBRANCH   4   8
BRANCH   5  10
HETATM   10  C   UNL     1      28.803  44.220  54.133  1.00  0.00     0.012 A 
HETATM   11  C   UNL     1      28.929  45.385  54.910  1.00  0.00     0.015 A 
HETATM   12  C   UNL     1      29.873  45.473  55.936  1.00  0.00     0.001 A 
HETATM   13  C   UNL     1      30.712  44.395  56.201  1.00  0.00     0.000 A 
HETATM   14  C   UNL     1      30.616  43.240  55.430  1.00  0.00     0.001 A 
HETATM   15  C   UNL     1      29.676  43.158  54.396  1.00  0.00     0.015 A 
ENDBRANCH   5  10
ENDBRANCH   2   3
ENDBRANCH   1   2
BRANCH   1  16
HETATM   16  C   UNL     1      24.663  47.200  49.843  1.00  0.00     0.227 C 
HETATM   17  N   UNL     1      23.691  47.752  49.027  1.00  0.00    -0.360 N 
HETATM   18  H   UNL     1      23.003  47.126  48.629  1.00  0.00     0.162 HD
HETATM   19  O   UNL     1      25.354  47.870  50.608  1.00  0.00    -0.273 OA
BRANCH  17  20
HETATM   20  C   UNL     1      23.343  49.160  49.128  1.00  0.00     0.127 C 
BRANCH  20  21
HETATM   21  C   UNL     1      22.335  49.571  48.054  1.00  0.00     0.058 C 
BRANCH  21  22
HETATM   22  C   UNL     1      21.051  50.086  48.653  1.00  0.00    -0.057 A 
HETATM   23  C   UNL     1      20.194  49.223  49.344  1.00  0.00     0.010 A 
HETATM   24  C   UNL     1      18.994  49.699  49.877  1.00  0.00     0.037 A 
HETATM   25  C   UNL     1      18.627  51.038  49.726  1.00  0.00     0.068 A 
HETATM   26  C   UNL     1      19.477  51.902  49.035  1.00  0.00     0.037 A 
HETATM   27  C   UNL     1      20.681  51.427  48.501  1.00  0.00     0.010 A 
BRANCH  25  28
HETATM   28  O   UNL     1      17.427  51.370  50.292  1.00  0.00    -0.356 OA
HETATM   29  C   UNL     1      16.704  52.435  49.686  1.00  0.00     0.210 C 
ENDBRANCH  25  28
ENDBRANCH  21  22
ENDBRANCH  20  21
ENDBRANCH  17  20
ENDBRANCH   1  16
TORSDOF 9
ENDMDL
MODEL 3
REMARK VINA RESULT:      -8.5      3.087     11.457
REMARK  9 active torsions:
REMARK  status: ('A' for Active; 'I' for Inactive)
REMARK    1  A    between atoms: C_2  and  N_3 
REMARK    2  A    between atoms: C_4  and  S_5 
REMARK    3  A    between atoms: S_5  and  C_6 
REMARK    4  A    between atoms: C_6  and  C_7 
REMARK       I    between atoms: C_7  and  N_8 
REMARK    5  A    between atoms: N_8  and  C_9 
REMARK    6  A    between atoms: C_9  and  C_10 
REMARK    7  A    between atoms: C_10  and  C_11 
REMARK    8  A    between atoms: C_14  and  O_15 
REMARK    9  A    between atoms: C_22  and  C_23 
ROOT
HETATM    1  C   UNL     1      26.090  48.629  49.178  1.00  0.00     0.185 C 
ENDROOT
BRANCH   1   2
HETATM    2  S   UNL     1      24.954  47.471  49.996  1.00  0.00    -0.081 SA
BRANCH   2   3
HETATM    3  C   UNL     1      26.028  46.139  50.249  1.00  0.00     0.192 A 
HETATM    4  N   UNL     1      26.152  45.450  51.429  1.00  0.00    -0.308 N 
HETATM    5  C   UNL     1      27.136  44.502  51.203  1.00  0.00     0.164 A 
HETATM    6  N   UNL     1      27.547  44.637  49.950  1.00  0.00    -0.128 NA
HETATM    7  N   UNL     1      26.849  45.651  49.354  1.00  0.00    -0.122 NA
BRANCH   4   8
HETATM    8  C   UNL     1      25.479  45.759  52.674  1.00  0.00     0.128 C 
HETATM    9  C   UNL     1      26.203  46.818  53.493  1.00  0.00     0.027 C 
ENDBRANCH   4   8
BRANCH   5  10
HETATM   10  C   UNL     1      27.725  43.546  52.151  1.00  0.00     0.012 A 
HETATM   11  C   UNL     1      28.686  44.015  53.063  1.00  0.00     0.015 A 
HETATM   12  C   UNL     1      29.299  43.155  53.977  1.00  0.00     0.001 A 
HETATM   13  C   UNL     1      28.961  41.805  53.993  1.00  0.00     0.000 A 
HETATM   14  C   UNL     1      28.025  41.317  53.084  1.00  0.00     0.001 A 
HETATM   15  C   UNL     1      27.421  42.180  52.162  1.00  0.00     0.015 A 
ENDBRANCH   5  10
ENDBRANCH   2   3
ENDBRANCH   1   2
BRANCH   1  16
HETATM   16  C   UNL     1      25.286  49.653  48.395  1.00  0.00     0.227 C 
HETATM   17  N   UNL     1      23.977  49.798  48.820  1.00  0.00    -0.360 N 
HETATM   18  H   UNL     1      23.741  49.443  49.738  1.00  0.00     0.162 HD
HETATM   19  O   UNL     1      25.760  50.290  47.457  1.00  0.00    -0.273 OA
BRANCH  17  20
HETATM   20  C   UNL     1      23.116  50.821  48.250  1.00  0.00     0.127 C 
BRANCH  20  21
HETATM   21  C   UNL     1      21.915  51.114  49.149  1.00  0.00     0.058 C 
BRANCH  21  22
HETATM   22  C   UNL     1      20.629  51.186  48.367  1.00  0.00    -0.057 A 
HETATM   23  C   UNL     1      20.406  50.325  47.286  1.00  0.00     0.010 A 
HETATM   24  C   UNL     1      19.222  50.410  46.549  1.00  0.00     0.037 A 
HETATM   25  C   UNL     1      18.246  51.355  46.873  1.00  0.00     0.068 A 
HETATM   26  C   UNL     1      18.465  52.217  47.947  1.00  0.00     0.037 A 
HETATM   27  C   UNL     1      19.650  52.133  48.688  1.00  0.00     0.010 A 
BRANCH  25  28
HETATM   28  O   UNL     1      17.140  51.333  46.069  1.00  0.00    -0.356 OA
HETATM   29  C   UNL     1      17.365  51.218  44.670  1.00  0.00     0.210 C 
ENDBRANCH  25  28
ENDBRANCH  21  22
ENDBRANCH  20  21
ENDBRANCH  17  20
ENDBRANCH   1  16
TORSDOF 9
ENDMDL
MODEL 4
REMARK VINA RESULT:      -8.5      2.638     11.367
REMARK  9 active torsions:
REMARK  status: ('A' for Active; 'I' for Inactive)
REMARK    1  A    between atoms: C_2  and  N_3 
REMARK    2  A    between atoms: C_4  and  S_5 
REMARK    3  A    between atoms: S_5  and  C_6 
REMARK    4  A    between atoms: C_6  and  C_7 
REMARK       I    between atoms: C_7  and  N_8 
REMARK    5  A    between atoms: N_8  and  C_9 
REMARK    6  A    between atoms: C_9  and  C_10 
REMARK    7  A    between atoms: C_10  and  C_11 
REMARK    8  A    between atoms: C_14  and  O_15 
REMARK    9  A    between atoms: C_22  and  C_23 
ROOT
HETATM    1  C   UNL     1      25.765  46.648  51.248  1.00  0.00     0.185 C 
ENDROOT
BRANCH   1   2
HETATM    2  S   UNL     1      25.350  45.624  52.691  1.00  0.00    -0.081 SA
BRANCH   2   3
HETATM    3  C   UNL     1      26.655  46.058  53.741  1.00  0.00     0.192 A 
HETATM    4  N   UNL     1      27.428  45.161  54.434  1.00  0.00    -0.308 N 
HETATM    5  C   UNL     1      28.317  45.930  55.168  1.00  0.00     0.164 A 
HETATM    6  N   UNL     1      28.069  47.203  54.899  1.00  0.00    -0.128 NA
HETATM    7  N   UNL     1      27.039  47.281  54.001  1.00  0.00    -0.122 NA
BRANCH   4   8
HETATM    8  C   UNL     1      27.245  43.725  54.475  1.00  0.00     0.128 C 
HETATM    9  C   UNL     1      28.025  42.997  53.389  1.00  0.00     0.027 C 
ENDBRANCH   4   8
BRANCH   5  10
HETATM   10  C   UNL     1      29.320  45.489  56.147  1.00  0.00     0.012 A 
HETATM   11  C   UNL     1      30.281  44.547  55.742  1.00  0.00     0.015 A 
HETATM   12  C   UNL     1      31.250  44.072  56.629  1.00  0.00     0.001 A 
HETATM   13  C   UNL     1      31.273  44.531  57.942  1.00  0.00     0.000 A 
HETATM   14  C   UNL     1      30.318  45.450  58.369  1.00  0.00     0.001 A 
HETATM   15  C   UNL     1      29.341  45.916  57.480  1.00  0.00     0.015 A 
ENDBRANCH   5  10
ENDBRANCH   2   3
ENDBRANCH   1   2
BRANCH   1  16
HETATM   16  C   UNL     1      24.619  46.601  50.253  1.00  0.00     0.227 C 
HETATM   17  N   UNL     1      24.079  47.837  49.944  1.00  0.00    -0.360 N 
HETATM   18  H   UNL     1      24.629  48.657  50.168  1.00  0.00     0.162 HD
HETATM   19  O   UNL     1      24.201  45.550  49.772  1.00  0.00    -0.273 OA
BRANCH  17  20
HETATM   20  C   UNL     1      23.057  47.971  48.919  1.00  0.00     0.127 C 
BRANCH  20  21
HETATM   21  C   UNL     1      22.775  49.436  48.589  1.00  0.00     0.058 C 
BRANCH  21  22
HETATM   22  C   UNL     1      21.391  49.855  49.016  1.00  0.00    -0.057 A 
HETATM   23  C   UNL     1      21.019  51.203  48.995  1.00  0.00     0.010 A 
HETATM   24  C   UNL     1      19.744  51.589  49.414  1.00  0.00     0.037 A 
HETATM   25  C   UNL     1      18.822  50.641  49.863  1.00  0.00     0.068 A 
HETATM   26  C   UNL     1      19.189  49.295  49.887  1.00  0.00     0.037 A 
HETATM   27  C   UNL     1      20.466  48.906  49.467  1.00  0.00     0.010 A 
BRANCH  25  28
HETATM   28  O   UNL     1      17.613  51.154  50.245  1.00  0.00    -0.356 OA
HETATM   29  C   UNL     1      17.049  52.158  49.411  1.00  0.00     0.210 C 
ENDBRANCH  25  28
ENDBRANCH  21  22
ENDBRANCH  20  21
ENDBRANCH  17  20
ENDBRANCH   1  16
TORSDOF 9
ENDMDL
MODEL 5
REMARK VINA RESULT:      -8.4      2.702     11.320
REMARK  9 active torsions:
REMARK  status: ('A' for Active; 'I' for Inactive)
REMARK    1  A    between atoms: C_2  and  N_3 
REMARK    2  A    between atoms: C_4  and  S_5 
REMARK    3  A    between atoms: S_5  and  C_6 
REMARK    4  A    between atoms: C_6  and  C_7 
REMARK       I    between atoms: C_7  and  N_8 
REMARK    5  A    between atoms: N_8  and  C_9 
REMARK    6  A    between atoms: C_9  and  C_10 
REMARK    7  A    between atoms: C_10  and  C_11 
REMARK    8  A    between atoms: C_14  and  O_15 
REMARK    9  A    between atoms: C_22  and  C_23 
ROOT
HETATM    1  C   UNL     1      24.693  46.213  50.679  1.00  0.00     0.185 C 
ENDROOT
BRANCH   1   2
HETATM    2  S   UNL     1      24.490  44.476  51.171  1.00  0.00    -0.081 SA
BRANCH   2   3
HETATM    3  C   UNL     1      25.416  44.478  52.632  1.00  0.00     0.192 A 
HETATM    4  N   UNL     1      26.785  44.398  52.687  1.00  0.00    -0.308 N 
HETATM    5  C   UNL     1      27.100  44.394  54.037  1.00  0.00     0.164 A 
HETATM    6  N   UNL     1      25.967  44.478  54.718  1.00  0.00    -0.128 NA
HETATM    7  N   UNL     1      24.919  44.540  53.840  1.00  0.00    -0.122 NA
BRANCH   4   8
HETATM    8  C   UNL     1      27.678  44.220  51.561  1.00  0.00     0.128 C 
HETATM    9  C   UNL     1      27.847  42.760  51.164  1.00  0.00     0.027 C 
ENDBRANCH   4   8
BRANCH   5  10
HETATM   10  C   UNL     1      28.418  44.243  54.670  1.00  0.00     0.012 A 
HETATM   11  C   UNL     1      28.926  45.318  55.420  1.00  0.00     0.015 A 
HETATM   12  C   UNL     1      30.179  45.247  56.031  1.00  0.00     0.001 A 
HETATM   13  C   UNL     1      30.951  44.096  55.901  1.00  0.00     0.000 A 
HETATM   14  C   UNL     1      30.474  43.027  55.146  1.00  0.00     0.001 A 
HETATM   15  C   UNL     1      29.221  43.106  54.526  1.00  0.00     0.015 A 
ENDBRANCH   5  10
ENDBRANCH   2   3
ENDBRANCH   1   2
BRANCH   1  16
HETATM   16  C   UNL     1      23.716  46.536  49.561  1.00  0.00     0.227 C 
HETATM   17  N   UNL     1      23.168  47.804  49.629  1.00  0.00    -0.360 N 
HETATM   18  H   UNL     1      23.634  48.485  50.215  1.00  0.00     0.162 HD
HETATM   19  O   UNL     1      23.431  45.730  48.677  1.00  0.00    -0.273 OA
BRANCH  17  20
HETATM   20  C   UNL     1      22.309  48.305  48.568  1.00  0.00     0.127 C 
BRANCH  20  21
HETATM   21  C   UNL     1      22.202  49.829  48.598  1.00  0.00     0.058 C 
BRANCH  21  22
HETATM   22  C   UNL     1      20.830  50.291  49.015  1.00  0.00    -0.057 A 
HETATM   23  C   UNL     1      20.400  51.591  48.728  1.00  0.00     0.010 A 
HETATM   24  C   UNL     1      19.136  52.022  49.138  1.00  0.00     0.037 A 
HETATM   25  C   UNL     1      18.283  51.169  49.841  1.00  0.00     0.068 A 
HETATM   26  C   UNL     1      18.708  49.873  50.132  1.00  0.00     0.037 A 
HETATM   27  C   UNL     1      19.974  49.437  49.722  1.00  0.00     0.010 A 
BRANCH  25  28
HETATM   28  O   UNL     1      17.079  51.718  50.183  1.00  0.00    -0.356 OA
HETATM   29  C   UNL     1      16.124  51.873  49.140  1.00  0.00     0.210 C 
ENDBRANCH  25  28
ENDBRANCH  21  22
ENDBRANCH  20  21
ENDBRANCH  17  20
ENDBRANCH   1  16
TORSDOF 9
ENDMDL
MODEL 6
REMARK VINA RESULT:      -8.4      2.773     10.673
REMARK  9 active torsions:
REMARK  status: ('A' for Active; 'I' for Inactive)
REMARK    1  A    between atoms: C_2  and  N_3 
REMARK    2  A    between atoms: C_4  and  S_5 
REMARK    3  A    between atoms: S_5  and  C_6 
REMARK    4  A    between atoms: C_6  and  C_7 
REMARK       I    between atoms: C_7  and  N_8 
REMARK    5  A    between atoms: N_8  and  C_9 
REMARK    6  A    between atoms: C_9  and  C_10 
REMARK    7  A    between atoms: C_10  and  C_11 
REMARK    8  A    between atoms: C_14  and  O_15 
REMARK    9  A    between atoms: C_22  and  C_23 
ROOT
HETATM    1  C   UNL     1      26.805  45.917  49.752  1.00  0.00     0.185 C 
ENDROOT
BRANCH   1   2
HETATM    2  S   UNL     1      25.945  44.838  50.934  1.00  0.00    -0.081 SA
BRANCH   2   3
HETATM    3  C   UNL     1      27.290  44.318  51.888  1.00  0.00     0.192 A 
HETATM    4  N   UNL     1      27.540  44.730  53.172  1.00  0.00    -0.308 N 
HETATM    5  C   UNL     1      28.722  44.105  53.537  1.00  0.00     0.164 A 
HETATM    6  N   UNL     1      29.121  43.365  52.513  1.00  0.00    -0.128 NA
HETATM    7  N   UNL     1      28.222  43.491  51.489  1.00  0.00    -0.122 NA
BRANCH   4   8
HETATM    8  C   UNL     1      26.785  45.715  53.918  1.00  0.00     0.128 C 
HETATM    9  C   UNL     1      25.526  45.141  54.553  1.00  0.00     0.027 C 
ENDBRANCH   4   8
BRANCH   5  10
HETATM   10  C   UNL     1      29.493  44.252  54.780  1.00  0.00     0.012 A 
HETATM   11  C   UNL     1      30.365  43.215  55.153  1.00  0.00     0.015 A 
HETATM   12  C   UNL     1      31.111  43.284  56.331  1.00  0.00     0.001 A 
HETATM   13  C   UNL     1      30.995  44.395  57.162  1.00  0.00     0.000 A 
HETATM   14  C   UNL     1      30.122  45.424  56.820  1.00  0.00     0.001 A 
HETATM   15  C   UNL     1      29.367  45.347  55.643  1.00  0.00     0.015 A 
ENDBRANCH   5  10
ENDBRANCH   2   3
ENDBRANCH   1   2
BRANCH   1  16
HETATM   16  C   UNL     1      26.381  47.357  49.985  1.00  0.00     0.227 C 
HETATM   17  N   UNL     1      26.811  48.243  49.013  1.00  0.00    -0.360 N 
HETATM   18  H   UNL     1      27.117  47.857  48.129  1.00  0.00     0.162 HD
HETATM   19  O   UNL     1      25.718  47.702  50.960  1.00  0.00    -0.273 OA
BRANCH  17  20
HETATM   20  C   UNL     1      26.386  49.634  49.031  1.00  0.00     0.127 C 
BRANCH  20  21
HETATM   21  C   UNL     1      25.451  49.953  47.864  1.00  0.00     0.058 C 
BRANCH  21  22
HETATM   22  C   UNL     1      24.001  49.888  48.269  1.00  0.00    -0.057 A 
HETATM   23  C   UNL     1      23.270  51.062  48.485  1.00  0.00     0.010 A 
HETATM   24  C   UNL     1      21.933  50.996  48.883  1.00  0.00     0.037 A 
HETATM   25  C   UNL     1      21.304  49.764  49.076  1.00  0.00     0.068 A 
HETATM   26  C   UNL     1      22.029  48.591  48.864  1.00  0.00     0.037 A 
HETATM   27  C   UNL     1      23.369  48.654  48.464  1.00  0.00     0.010 A 
BRANCH  25  28
HETATM   28  O   UNL     1      19.997  49.844  49.468  1.00  0.00    -0.356 OA
HETATM   29  C   UNL     1      19.062  49.048  48.750  1.00  0.00     0.210 C 
ENDBRANCH  25  28
ENDBRANCH  21  22
ENDBRANCH  20  21
ENDBRANCH  17  20
ENDBRANCH   1  16
TORSDOF 9
ENDMDL
MODEL 7
REMARK VINA RESULT:      -8.1      1.538      2.089
REMARK  9 active torsions:
REMARK  status: ('A' for Active; 'I' for Inactive)
REMARK    1  A    between atoms: C_2  and  N_3 
REMARK    2  A    between atoms: C_4  and  S_5 
REMARK    3  A    between atoms: S_5  and  C_6 
REMARK    4  A    between atoms: C_6  and  C_7 
REMARK       I    between atoms: C_7  and  N_8 
REMARK    5  A    between atoms: N_8  and  C_9 
REMARK    6  A    between atoms: C_9  and  C_10 
REMARK    7  A    between atoms: C_10  and  C_11 
REMARK    8  A    between atoms: C_14  and  O_15 
REMARK    9  A    between atoms: C_22  and  C_23 
ROOT
HETATM    1  C   UNL     1      25.686  45.572  49.560  1.00  0.00     0.185 C 
ENDROOT
BRANCH   1   2
HETATM    2  S   UNL     1      23.929  45.456  49.111  1.00  0.00    -0.081 SA
BRANCH   2   3
HETATM    3  C   UNL     1      23.470  47.113  49.302  1.00  0.00     0.192 A 
HETATM    4  N   UNL     1      22.231  47.618  48.997  1.00  0.00    -0.308 N 
HETATM    5  C   UNL     1      22.310  48.976  49.263  1.00  0.00     0.164 A 
HETATM    6  N   UNL     1      23.532  49.230  49.709  1.00  0.00    -0.128 NA
HETATM    7  N   UNL     1      24.250  48.066  49.742  1.00  0.00    -0.122 NA
BRANCH   4   8
HETATM    8  C   UNL     1      21.134  46.889  48.396  1.00  0.00     0.128 C 
HETATM    9  C   UNL     1      21.195  46.873  46.875  1.00  0.00     0.027 C 
ENDBRANCH   4   8
BRANCH   5  10
HETATM   10  C   UNL     1      21.296  50.015  49.040  1.00  0.00     0.012 A 
HETATM   11  C   UNL     1      20.644  50.564  50.157  1.00  0.00     0.015 A 
HETATM   12  C   UNL     1      19.656  51.542  50.012  1.00  0.00     0.001 A 
HETATM   13  C   UNL     1      19.301  51.986  48.742  1.00  0.00     0.000 A 
HETATM   14  C   UNL     1      19.922  51.441  47.622  1.00  0.00     0.001 A 
HETATM   15  C   UNL     1      20.904  50.454  47.769  1.00  0.00     0.015 A 
ENDBRANCH   5  10
ENDBRANCH   2   3
ENDBRANCH   1   2
BRANCH   1  16
HETATM   16  C   UNL     1      26.045  44.421  50.483  1.00  0.00     0.227 C 
HETATM   17  N   UNL     1      26.438  44.807  51.753  1.00  0.00    -0.360 N 
HETATM   18  H   UNL     1      26.205  45.747  52.049  1.00  0.00     0.162 HD
HETATM   19  O   UNL     1      25.999  43.246  50.126  1.00  0.00    -0.273 OA
BRANCH  17  20
HETATM   20  C   UNL     1      26.698  43.819  52.787  1.00  0.00     0.127 C 
BRANCH  20  21
HETATM   21  C   UNL     1      28.186  43.484  52.886  1.00  0.00     0.058 C 
BRANCH  21  22
HETATM   22  C   UNL     1      28.837  44.147  54.072  1.00  0.00    -0.057 A 
HETATM   23  C   UNL     1      29.968  43.582  54.670  1.00  0.00     0.010 A 
HETATM   24  C   UNL     1      30.554  44.187  55.785  1.00  0.00     0.037 A 
HETATM   25  C   UNL     1      30.021  45.361  56.322  1.00  0.00     0.068 A 
HETATM   26  C   UNL     1      28.891  45.927  55.731  1.00  0.00     0.037 A 
HETATM   27  C   UNL     1      28.303  45.323  54.613  1.00  0.00     0.010 A 
BRANCH  25  28
HETATM   28  O   UNL     1      30.688  45.846  57.413  1.00  0.00    -0.356 OA
HETATM   29  C   UNL     1      31.060  44.902  58.409  1.00  0.00     0.210 C 
ENDBRANCH  25  28
ENDBRANCH  21  22
ENDBRANCH  20  21
ENDBRANCH  17  20
ENDBRANCH   1  16
TORSDOF 9
ENDMDL
MODEL 8
REMARK VINA RESULT:      -8.1      3.013     11.180
REMARK  9 active torsions:
REMARK  status: ('A' for Active; 'I' for Inactive)
REMARK    1  A    between atoms: C_2  and  N_3 
REMARK    2  A    between atoms: C_4  and  S_5 
REMARK    3  A    between atoms: S_5  and  C_6 
REMARK    4  A    between atoms: C_6  and  C_7 
REMARK       I    between atoms: C_7  and  N_8 
REMARK    5  A    between atoms: N_8  and  C_9 
REMARK    6  A    between atoms: C_9  and  C_10 
REMARK    7  A    between atoms: C_10  and  C_11 
REMARK    8  A    between atoms: C_14  and  O_15 
REMARK    9  A    between atoms: C_22  and  C_23 
ROOT
HETATM    1  C   UNL     1      25.251  43.494  51.496  1.00  0.00     0.185 C 
ENDROOT
BRANCH   1   2
HETATM    2  S   UNL     1      26.913  44.099  51.080  1.00  0.00    -0.081 SA
BRANCH   2   3
HETATM    3  C   UNL     1      27.459  44.560  52.654  1.00  0.00     0.192 A 
HETATM    4  N   UNL     1      28.626  44.127  53.232  1.00  0.00    -0.308 N 
HETATM    5  C   UNL     1      28.650  44.704  54.492  1.00  0.00     0.164 A 
HETATM    6  N   UNL     1      27.555  45.438  54.622  1.00  0.00    -0.128 NA
HETATM    7  N   UNL     1      26.818  45.355  53.472  1.00  0.00    -0.122 NA
BRANCH   4   8
HETATM    8  C   UNL     1      29.552  43.164  52.674  1.00  0.00     0.128 C 
HETATM    9  C   UNL     1      29.114  41.723  52.896  1.00  0.00     0.027 C 
ENDBRANCH   4   8
BRANCH   5  10
HETATM   10  C   UNL     1      29.633  44.517  55.568  1.00  0.00     0.012 A 
HETATM   11  C   UNL     1      29.710  45.489  56.580  1.00  0.00     0.015 A 
HETATM   12  C   UNL     1      30.635  45.380  57.621  1.00  0.00     0.001 A 
HETATM   13  C   UNL     1      31.505  44.295  57.666  1.00  0.00     0.000 A 
HETATM   14  C   UNL     1      31.457  43.331  56.662  1.00  0.00     0.001 A 
HETATM   15  C   UNL     1      30.536  43.448  55.615  1.00  0.00     0.015 A 
ENDBRANCH   5  10
ENDBRANCH   2   3
ENDBRANCH   1   2
BRANCH   1  16
HETATM   16  C   UNL     1      24.215  44.330  50.767  1.00  0.00     0.227 C 
HETATM   17  N   UNL     1      24.706  45.503  50.223  1.00  0.00    -0.360 N 
HETATM   18  H   UNL     1      25.709  45.584  50.111  1.00  0.00     0.162 HD
HETATM   19  O   UNL     1      23.036  43.994  50.677  1.00  0.00    -0.273 OA
BRANCH  17  20
HETATM   20  C   UNL     1      23.866  46.352  49.393  1.00  0.00     0.127 C 
BRANCH  20  21
HETATM   21  C   UNL     1      23.981  47.823  49.792  1.00  0.00     0.058 C 
BRANCH  21  22
HETATM   22  C   UNL     1      22.867  48.654  49.209  1.00  0.00    -0.057 A 
HETATM   23  C   UNL     1      22.945  50.051  49.216  1.00  0.00     0.010 A 
HETATM   24  C   UNL     1      21.900  50.819  48.696  1.00  0.00     0.037 A 
HETATM   25  C   UNL     1      20.761  50.208  48.165  1.00  0.00     0.068 A 
HETATM   26  C   UNL     1      20.678  48.816  48.158  1.00  0.00     0.037 A 
HETATM   27  C   UNL     1      21.724  48.045  48.678  1.00  0.00     0.010 A 
BRANCH  25  28
HETATM   28  O   UNL     1      19.814  51.075  47.694  1.00  0.00    -0.356 OA
HETATM   29  C   UNL     1      19.521  52.207  48.502  1.00  0.00     0.210 C 
ENDBRANCH  25  28
ENDBRANCH  21  22
ENDBRANCH  20  21
ENDBRANCH  17  20
ENDBRANCH   1  16
TORSDOF 9
ENDMDL
MODEL 9
REMARK VINA RESULT:      -7.9      3.165     10.971
REMARK  9 active torsions:
REMARK  status: ('A' for Active; 'I' for Inactive)
REMARK    1  A    between atoms: C_2  and  N_3 
REMARK    2  A    between atoms: C_4  and  S_5 
REMARK    3  A    between atoms: S_5  and  C_6 
REMARK    4  A    between atoms: C_6  and  C_7 
REMARK       I    between atoms: C_7  and  N_8 
REMARK    5  A    between atoms: N_8  and  C_9 
REMARK    6  A    between atoms: C_9  and  C_10 
REMARK    7  A    between atoms: C_10  and  C_11 
REMARK    8  A    between atoms: C_14  and  O_15 
REMARK    9  A    between atoms: C_22  and  C_23 
ROOT
HETATM    1  C   UNL     1      24.128  43.923  50.610  1.00  0.00     0.185 C 
ENDROOT
BRANCH   1   2
HETATM    2  S   UNL     1      24.720  45.395  51.494  1.00  0.00    -0.081 SA
BRANCH   2   3
HETATM    3  C   UNL     1      26.235  44.797  52.074  1.00  0.00     0.192 A 
HETATM    4  N   UNL     1      26.744  45.044  53.325  1.00  0.00    -0.308 N 
HETATM    5  C   UNL     1      27.978  44.414  53.353  1.00  0.00     0.164 A 
HETATM    6  N   UNL     1      28.160  43.827  52.180  1.00  0.00    -0.128 NA
HETATM    7  N   UNL     1      27.068  44.058  51.387  1.00  0.00    -0.122 NA
BRANCH   4   8
HETATM    8  C   UNL     1      26.155  45.899  54.334  1.00  0.00     0.128 C 
HETATM    9  C   UNL     1      26.386  47.380  54.065  1.00  0.00     0.027 C 
ENDBRANCH   4   8
BRANCH   5  10
HETATM   10  C   UNL     1      28.987  44.421  54.421  1.00  0.00     0.012 A 
HETATM   11  C   UNL     1      29.795  43.283  54.586  1.00  0.00     0.015 A 
HETATM   12  C   UNL     1      30.760  43.218  55.593  1.00  0.00     0.001 A 
HETATM   13  C   UNL     1      30.932  44.294  56.459  1.00  0.00     0.000 A 
HETATM   14  C   UNL     1      30.129  45.423  56.324  1.00  0.00     0.001 A 
HETATM   15  C   UNL     1      29.156  45.481  55.320  1.00  0.00     0.015 A 
ENDBRANCH   5  10
ENDBRANCH   2   3
ENDBRANCH   1   2
BRANCH   1  16
HETATM   16  C   UNL     1      23.010  44.322  49.662  1.00  0.00     0.227 C 
HETATM   17  N   UNL     1      22.932  45.680  49.410  1.00  0.00    -0.360 N 
HETATM   18  H   UNL     1      23.741  46.245  49.634  1.00  0.00     0.162 HD
HETATM   19  O   UNL     1      22.236  43.504  49.169  1.00  0.00    -0.273 OA
BRANCH  17  20
HETATM   20  C   UNL     1      21.993  46.205  48.432  1.00  0.00     0.127 C 
BRANCH  20  21
HETATM   21  C   UNL     1      22.212  47.698  48.184  1.00  0.00     0.058 C 
BRANCH  21  22
HETATM   22  C   UNL     1      21.138  48.539  48.824  1.00  0.00    -0.057 A 
HETATM   23  C   UNL     1      19.869  48.003  49.071  1.00  0.00     0.010 A 
HETATM   24  C   UNL     1      18.869  48.794  49.643  1.00  0.00     0.037 A 
HETATM   25  C   UNL     1      19.115  50.129  49.972  1.00  0.00     0.068 A 
HETATM   26  C   UNL     1      20.377  50.668  49.725  1.00  0.00     0.037 A 
HETATM   27  C   UNL     1      21.382  49.878  49.153  1.00  0.00     0.010 A 
BRANCH  25  28
HETATM   28  O   UNL     1      18.050  50.788  50.521  1.00  0.00    -0.356 OA
HETATM   29  C   UNL     1      17.569  51.927  49.818  1.00  0.00     0.210 C 
ENDBRANCH  25  28
ENDBRANCH  21  22
ENDBRANCH  20  21
ENDBRANCH  17  20
ENDBRANCH   1  16
TORSDOF 9
ENDMDL
MODEL 10
REMARK VINA RESULT:      -7.8      1.715      2.387
REMARK  9 active torsions:
REMARK  status: ('A' for Active; 'I' for Inactive)
REMARK    1  A    between atoms: C_2  and  N_3 
REMARK    2  A    between atoms: C_4  and  S_5 
REMARK    3  A    between atoms: S_5  and  C_6 
REMARK    4  A    between atoms: C_6  and  C_7 
REMARK       I    between atoms: C_7  and  N_8 
REMARK    5  A    between atoms: N_8  and  C_9 
REMARK    6  A    between atoms: C_9  and  C_10 
REMARK    7  A    between atoms: C_10  and  C_11 
REMARK    8  A    between atoms: C_14  and  O_15 
REMARK    9  A    between atoms: C_22  and  C_23 
ROOT
HETATM    1  C   UNL     1      23.480  44.339  49.968  1.00  0.00     0.185 C 
ENDROOT
BRANCH   1   2
HETATM    2  S   UNL     1      23.071  44.701  48.235  1.00  0.00    -0.081 SA
BRANCH   2   3
HETATM    3  C   UNL     1      21.760  45.804  48.469  1.00  0.00     0.192 A 
HETATM    4  N   UNL     1      21.885  47.171  48.486  1.00  0.00    -0.308 N 
HETATM    5  C   UNL     1      20.611  47.655  48.736  1.00  0.00     0.164 A 
HETATM    6  N   UNL     1      19.797  46.616  48.846  1.00  0.00    -0.128 NA
HETATM    7  N   UNL     1      20.513  45.463  48.670  1.00  0.00    -0.122 NA
BRANCH   4   8
HETATM    8  C   UNL     1      23.122  47.919  48.394  1.00  0.00     0.128 C 
HETATM    9  C   UNL     1      23.771  48.160  49.750  1.00  0.00     0.027 C 
ENDBRANCH   4   8
BRANCH   5  10
HETATM   10  C   UNL     1      20.181  49.046  48.937  1.00  0.00     0.012 A 
HETATM   11  C   UNL     1      20.512  49.996  47.956  1.00  0.00     0.015 A 
HETATM   12  C   UNL     1      20.150  51.338  48.096  1.00  0.00     0.001 A 
HETATM   13  C   UNL     1      19.451  51.755  49.225  1.00  0.00     0.000 A 
HETATM   14  C   UNL     1      19.131  50.832  50.217  1.00  0.00     0.001 A 
HETATM   15  C   UNL     1      19.504  49.489  50.079  1.00  0.00     0.015 A 
ENDBRANCH   5  10
ENDBRANCH   2   3
ENDBRANCH   1   2
BRANCH   1  16
HETATM   16  C   UNL     1      24.902  44.790  50.254  1.00  0.00     0.227 C 
HETATM   17  N   UNL     1      25.240  44.799  51.596  1.00  0.00    -0.360 N 
HETATM   18  H   UNL     1      24.652  44.273  52.230  1.00  0.00     0.162 HD
HETATM   19  O   UNL     1      25.681  45.127  49.366  1.00  0.00    -0.273 OA
BRANCH  17  20
HETATM   20  C   UNL     1      26.599  45.091  52.022  1.00  0.00     0.127 C 
BRANCH  20  21
HETATM   21  C   UNL     1      27.411  43.814  52.234  1.00  0.00     0.058 C 
BRANCH  21  22
HETATM   22  C   UNL     1      28.373  43.942  53.387  1.00  0.00    -0.057 A 
HETATM   23  C   UNL     1      28.195  44.939  54.352  1.00  0.00     0.010 A 
HETATM   24  C   UNL     1      29.103  45.069  55.407  1.00  0.00     0.037 A 
HETATM   25  C   UNL     1      30.201  44.213  55.514  1.00  0.00     0.068 A 
HETATM   26  C   UNL     1      30.383  43.219  54.553  1.00  0.00     0.037 A 
HETATM   27  C   UNL     1      29.475  43.085  53.496  1.00  0.00     0.010 A 
BRANCH  25  28
HETATM   28  O   UNL     1      31.010  44.452  56.590  1.00  0.00    -0.356 OA
HETATM   29  C   UNL     1      31.639  43.323  57.184  1.00  0.00     0.210 C 
ENDBRANCH  25  28
ENDBRANCH  21  22
ENDBRANCH  20  21
ENDBRANCH  17  20
ENDBRANCH   1  16
TORSDOF 9
ENDMDL
