MODEL 1
REMARK VINA RESULT:     -11.1      0.000      0.000
REMARK  7 active torsions:
REMARK  status: ('A' for Active; 'I' for Inactive)
REMARK    1  A    between atoms: C_2  and  N_3 
REMARK    2  A    between atoms: C_2  and  C_25 
REMARK       I    between atoms: N_3  and  C_4 
REMARK    3  A    between atoms: C_4  and  C_5 
REMARK    4  A    between atoms: C_8  and  C_9 
REMARK       I    between atoms: C_9  and  N_10 
REMARK    5  A    between atoms: N_10  and  C_11 
REMARK    6  A    between atoms: N_19  and  C_20 
REMARK    7  A    between atoms: C_33  and  O_34 
ROOT
HETATM    1  C   UNL     1      24.642  45.642  49.998  1.00  0.00     0.098 A 
HETATM    2  C   UNL     1      23.362  45.950  49.287  1.00  0.00     0.206 A 
HETATM    3  O   UNL     1      22.472  45.101  49.199  1.00  0.00    -0.286 OA
HETATM    4  C   UNL     1      23.174  47.310  48.698  1.00  0.00     0.098 A 
HETATM    5  C   UNL     1      24.203  48.166  48.818  1.00  0.00     0.112 A 
HETATM    6  N   UNL     1      25.398  47.852  49.435  1.00  0.00    -0.360 N 
HETATM    7  C   UNL     1      25.564  46.619  50.035  1.00  0.00     0.112 A 
ENDROOT
BRANCH   1   8
HETATM    8  C   UNL     1      24.943  44.334  50.650  1.00  0.00     0.257 C 
HETATM    9  N   UNL     1      26.126  43.767  50.262  1.00  0.00    -0.348 N 
HETATM   10  H   UNL     1      26.690  44.259  49.571  1.00  0.00     0.163 HD
HETATM   11  O   UNL     1      24.188  43.826  51.472  1.00  0.00    -0.267 OA
BRANCH   9  12
HETATM   12  C   UNL     1      26.646  42.511  50.773  1.00  0.00     0.114 C 
HETATM   13  C   UNL     1      27.215  41.646  49.649  1.00  0.00     0.037 C 
BRANCH  12  14
HETATM   14  C   UNL     1      27.683  42.817  51.842  1.00  0.00    -0.035 A 
HETATM   15  C   UNL     1      27.551  43.936  52.687  1.00  0.00     0.021 A 
HETATM   16  C   UNL     1      28.443  44.164  53.746  1.00  0.00    -0.025 A 
HETATM   17  C   UNL     1      29.508  43.265  53.958  1.00  0.00    -0.023 A 
HETATM   18  C   UNL     1      28.287  45.258  54.612  1.00  0.00     0.015 A 
HETATM   19  C   UNL     1      29.656  42.165  53.099  1.00  0.00     0.013 A 
HETATM   20  C   UNL     1      30.387  43.487  55.031  1.00  0.00     0.049 A 
HETATM   21  C   UNL     1      28.750  41.939  52.059  1.00  0.00     0.010 A 
HETATM   22  C   UNL     1      30.218  44.571  55.897  1.00  0.00     0.069 A 
HETATM   23  C   UNL     1      29.167  45.459  55.681  1.00  0.00     0.037 A 
BRANCH  22  24
HETATM   24  O   UNL     1      31.140  44.647  56.905  1.00  0.00    -0.356 OA
HETATM   25  C   UNL     1      31.857  43.458  57.211  1.00  0.00     0.210 C 
ENDBRANCH  22  24
ENDBRANCH  12  14
ENDBRANCH   9  12
ENDBRANCH   1   8
BRANCH   4  26
HETATM   26  C   UNL     1      21.933  47.760  48.007  1.00  0.00     0.257 C 
HETATM   27  N   UNL     1      21.158  48.641  48.721  1.00  0.00    -0.352 N 
HETATM   28  H   UNL     1      21.428  48.827  49.687  1.00  0.00     0.163 HD
HETATM   29  O   UNL     1      21.639  47.364  46.883  1.00  0.00    -0.267 OA
BRANCH  27  30
HETATM   30  C   UNL     1      19.848  49.101  48.282  1.00  0.00     0.084 C 
HETATM   31  C   UNL     1      18.862  49.153  49.457  1.00  0.00     0.025 C 
HETATM   32  C   UNL     1      19.178  50.283  50.437  1.00  0.00     0.002 C 
HETATM   33  C   UNL     1      19.266  51.633  49.732  1.00  0.00     0.000 C 
HETATM   34  C   UNL     1      20.261  51.607  48.577  1.00  0.00     0.002 C 
HETATM   35  C   UNL     1      19.962  50.470  47.597  1.00  0.00     0.025 C 
ENDBRANCH  27  30
ENDBRANCH   4  26
BRANCH   6  36
HETATM   36  C   UNL     1      26.406  48.902  49.636  1.00  0.00     0.089 A 
HETATM   37  C   UNL     1      27.810  48.776  49.104  1.00  0.00     0.028 A 
HETATM   38  C   UNL     1      26.871  49.773  48.497  1.00  0.00     0.028 A 
ENDBRANCH   6  36
TORSDOF 7
ENDMDL
MODEL 2
REMARK VINA RESULT:     -10.8      1.897      3.317
REMARK  7 active torsions:
REMARK  status: ('A' for Active; 'I' for Inactive)
REMARK    1  A    between atoms: C_2  and  N_3 
REMARK    2  A    between atoms: C_2  and  C_25 
REMARK       I    between atoms: N_3  and  C_4 
REMARK    3  A    between atoms: C_4  and  C_5 
REMARK    4  A    between atoms: C_8  and  C_9 
REMARK       I    between atoms: C_9  and  N_10 
REMARK    5  A    between atoms: N_10  and  C_11 
REMARK    6  A    between atoms: N_19  and  C_20 
REMARK    7  A    between atoms: C_33  and  O_34 
ROOT
HETATM    1  C   UNL     1      23.828  44.598  49.772  1.00  0.00     0.098 A 
HETATM    2  C   UNL     1      24.014  46.050  50.079  1.00  0.00     0.206 A 
HETATM    3  O   UNL     1      24.686  46.406  51.050  1.00  0.00    -0.286 OA
HETATM    4  C   UNL     1      23.386  47.063  49.179  1.00  0.00     0.098 A 
HETATM    5  C   UNL     1      22.651  46.590  48.158  1.00  0.00     0.112 A 
HETATM    6  N   UNL     1      22.447  45.245  47.915  1.00  0.00    -0.360 N 
HETATM    7  C   UNL     1      23.070  44.298  48.703  1.00  0.00     0.112 A 
ENDROOT
BRANCH   1   8
HETATM    8  C   UNL     1      24.422  43.489  50.575  1.00  0.00     0.257 C 
HETATM    9  N   UNL     1      25.780  43.556  50.716  1.00  0.00    -0.348 N 
HETATM   10  H   UNL     1      26.272  44.328  50.268  1.00  0.00     0.163 HD
HETATM   11  O   UNL     1      23.734  42.602  51.070  1.00  0.00    -0.267 OA
BRANCH   9  12
HETATM   12  C   UNL     1      26.579  42.608  51.470  1.00  0.00     0.114 C 
HETATM   13  C   UNL     1      27.652  41.962  50.594  1.00  0.00     0.037 C 
BRANCH  12  14
HETATM   14  C   UNL     1      27.176  43.325  52.671  1.00  0.00    -0.035 A 
HETATM   15  C   UNL     1      28.390  42.901  53.244  1.00  0.00     0.021 A 
HETATM   16  C   UNL     1      29.003  43.622  54.282  1.00  0.00    -0.025 A 
HETATM   17  C   UNL     1      28.379  44.785  54.776  1.00  0.00    -0.023 A 
HETATM   18  C   UNL     1      30.232  43.220  54.826  1.00  0.00     0.015 A 
HETATM   19  C   UNL     1      27.155  45.194  54.223  1.00  0.00     0.013 A 
HETATM   20  C   UNL     1      29.006  45.515  55.800  1.00  0.00     0.049 A 
HETATM   21  C   UNL     1      26.565  44.477  53.178  1.00  0.00     0.010 A 
HETATM   22  C   UNL     1      30.237  45.116  56.328  1.00  0.00     0.069 A 
HETATM   23  C   UNL     1      30.847  43.962  55.840  1.00  0.00     0.037 A 
BRANCH  22  24
HETATM   24  O   UNL     1      30.732  45.934  57.306  1.00  0.00    -0.356 OA
HETATM   25  C   UNL     1      30.988  45.339  58.572  1.00  0.00     0.210 C 
ENDBRANCH  22  24
ENDBRANCH  12  14
ENDBRANCH   9  12
ENDBRANCH   1   8
BRANCH   4  26
HETATM   26  C   UNL     1      23.533  48.537  49.345  1.00  0.00     0.257 C 
HETATM   27  N   UNL     1      22.364  49.211  49.600  1.00  0.00    -0.352 N 
HETATM   28  H   UNL     1      21.494  48.681  49.547  1.00  0.00     0.163 HD
HETATM   29  O   UNL     1      24.625  49.092  49.257  1.00  0.00    -0.267 OA
BRANCH  27  30
HETATM   30  C   UNL     1      22.270  50.663  49.667  1.00  0.00     0.084 C 
HETATM   31  C   UNL     1      21.961  51.258  48.286  1.00  0.00     0.025 C 
HETATM   32  C   UNL     1      20.532  50.962  47.827  1.00  0.00     0.002 C 
HETATM   33  C   UNL     1      19.504  51.410  48.862  1.00  0.00     0.000 C 
HETATM   34  C   UNL     1      19.781  50.807  50.235  1.00  0.00     0.002 C 
HETATM   35  C   UNL     1      21.213  51.085  50.698  1.00  0.00     0.025 C 
ENDBRANCH  27  30
ENDBRANCH   4  26
BRANCH   6  36
HETATM   36  C   UNL     1      21.744  44.830  46.694  1.00  0.00     0.089 A 
HETATM   37  C   UNL     1      21.302  43.407  46.469  1.00  0.00     0.028 A 
HETATM   38  C   UNL     1      20.279  44.474  46.713  1.00  0.00     0.028 A 
ENDBRANCH   6  36
TORSDOF 7
ENDMDL
MODEL 3
REMARK VINA RESULT:     -10.5      1.019      1.642
REMARK  7 active torsions:
REMARK  status: ('A' for Active; 'I' for Inactive)
REMARK    1  A    between atoms: C_2  and  N_3 
REMARK    2  A    between atoms: C_2  and  C_25 
REMARK       I    between atoms: N_3  and  C_4 
REMARK    3  A    between atoms: C_4  and  C_5 
REMARK    4  A    between atoms: C_8  and  C_9 
REMARK       I    between atoms: C_9  and  N_10 
REMARK    5  A    between atoms: N_10  and  C_11 
REMARK    6  A    between atoms: N_19  and  C_20 
REMARK    7  A    between atoms: C_33  and  O_34 
ROOT
HETATM    1  C   UNL     1      23.827  46.069  49.612  1.00  0.00     0.098 A 
HETATM    2  C   UNL     1      22.500  46.329  48.973  1.00  0.00     0.206 A 
HETATM    3  O   UNL     1      21.632  45.453  48.949  1.00  0.00    -0.286 OA
HETATM    4  C   UNL     1      22.237  47.673  48.378  1.00  0.00     0.098 A 
HETATM    5  C   UNL     1      23.245  48.561  48.425  1.00  0.00     0.112 A 
HETATM    6  N   UNL     1      24.484  48.291  48.974  1.00  0.00    -0.360 N 
HETATM    7  C   UNL     1      24.720  47.073  49.581  1.00  0.00     0.112 A 
ENDROOT
BRANCH   1   8
HETATM    8  C   UNL     1      24.205  44.781  50.263  1.00  0.00     0.257 C 
HETATM    9  N   UNL     1      25.552  44.597  50.415  1.00  0.00    -0.348 N 
HETATM   10  H   UNL     1      26.177  45.325  50.074  1.00  0.00     0.163 HD
HETATM   11  O   UNL     1      23.366  43.968  50.636  1.00  0.00    -0.267 OA
BRANCH   9  12
HETATM   12  C   UNL     1      26.161  43.436  51.040  1.00  0.00     0.114 C 
HETATM   13  C   UNL     1      27.085  42.703  50.069  1.00  0.00     0.037 C 
BRANCH  12  14
HETATM   14  C   UNL     1      26.891  43.890  52.294  1.00  0.00    -0.035 A 
HETATM   15  C   UNL     1      28.032  43.210  52.760  1.00  0.00     0.021 A 
HETATM   16  C   UNL     1      28.775  43.686  53.852  1.00  0.00    -0.025 A 
HETATM   17  C   UNL     1      28.357  44.859  54.512  1.00  0.00    -0.023 A 
HETATM   18  C   UNL     1      29.935  43.028  54.290  1.00  0.00     0.015 A 
HETATM   19  C   UNL     1      27.204  45.522  54.066  1.00  0.00     0.013 A 
HETATM   20  C   UNL     1      29.115  45.342  55.592  1.00  0.00     0.049 A 
HETATM   21  C   UNL     1      26.484  45.048  52.966  1.00  0.00     0.010 A 
HETATM   22  C   UNL     1      30.278  44.689  56.014  1.00  0.00     0.069 A 
HETATM   23  C   UNL     1      30.683  43.527  55.362  1.00  0.00     0.037 A 
BRANCH  22  24
HETATM   24  O   UNL     1      30.918  45.286  57.065  1.00  0.00    -0.356 OA
HETATM   25  C   UNL     1      30.099  45.822  58.097  1.00  0.00     0.210 C 
ENDBRANCH  22  24
ENDBRANCH  12  14
ENDBRANCH   9  12
ENDBRANCH   1   8
BRANCH   4  26
HETATM   26  C   UNL     1      20.944  48.077  47.755  1.00  0.00     0.257 C 
HETATM   27  N   UNL     1      20.451  49.287  48.174  1.00  0.00    -0.352 N 
HETATM   28  H   UNL     1      20.937  49.752  48.941  1.00  0.00     0.163 HD
HETATM   29  O   UNL     1      20.376  47.368  46.929  1.00  0.00    -0.267 OA
BRANCH  27  30
HETATM   30  C   UNL     1      19.145  49.803  47.787  1.00  0.00     0.084 C 
HETATM   31  C   UNL     1      18.128  49.634  48.925  1.00  0.00     0.025 C 
HETATM   32  C   UNL     1      18.401  50.575  50.098  1.00  0.00     0.002 C 
HETATM   33  C   UNL     1      18.485  52.031  49.647  1.00  0.00     0.000 C 
HETATM   34  C   UNL     1      19.510  52.221  48.534  1.00  0.00     0.002 C 
HETATM   35  C   UNL     1      19.255  51.274  47.359  1.00  0.00     0.025 C 
ENDBRANCH  27  30
ENDBRANCH   4  26
BRANCH   6  36
HETATM   36  C   UNL     1      25.469  49.373  49.101  1.00  0.00     0.089 A 
HETATM   37  C   UNL     1      26.933  49.159  48.815  1.00  0.00     0.028 A 
HETATM   38  C   UNL     1      26.109  49.999  47.889  1.00  0.00     0.028 A 
ENDBRANCH   6  36
TORSDOF 7
ENDMDL
MODEL 4
REMARK VINA RESULT:      -9.6      1.563      2.384
REMARK  7 active torsions:
REMARK  status: ('A' for Active; 'I' for Inactive)
REMARK    1  A    between atoms: C_2  and  N_3 
REMARK    2  A    between atoms: C_2  and  C_25 
REMARK       I    between atoms: N_3  and  C_4 
REMARK    3  A    between atoms: C_4  and  C_5 
REMARK    4  A    between atoms: C_8  and  C_9 
REMARK       I    between atoms: C_9  and  N_10 
REMARK    5  A    between atoms: N_10  and  C_11 
REMARK    6  A    between atoms: N_19  and  C_20 
REMARK    7  A    between atoms: C_33  and  O_34 
ROOT
HETATM    1  C   UNL     1      23.936  46.315  49.543  1.00  0.00     0.098 A 
HETATM    2  C   UNL     1      22.624  46.661  48.914  1.00  0.00     0.206 A 
HETATM    3  O   UNL     1      21.712  45.832  48.866  1.00  0.00    -0.286 OA
HETATM    4  C   UNL     1      22.430  48.034  48.359  1.00  0.00     0.098 A 
HETATM    5  C   UNL     1      23.482  48.868  48.431  1.00  0.00     0.112 A 
HETATM    6  N   UNL     1      24.705  48.518  48.970  1.00  0.00    -0.360 N 
HETATM    7  C   UNL     1      24.879  47.273  49.540  1.00  0.00     0.112 A 
ENDROOT
BRANCH   1   8
HETATM    8  C   UNL     1      24.248  44.991  50.156  1.00  0.00     0.257 C 
HETATM    9  N   UNL     1      25.535  44.860  50.597  1.00  0.00    -0.348 N 
HETATM   10  H   UNL     1      26.169  45.647  50.469  1.00  0.00     0.163 HD
HETATM   11  O   UNL     1      23.405  44.106  50.258  1.00  0.00    -0.267 OA
BRANCH   9  12
HETATM   12  C   UNL     1      26.069  43.676  51.247  1.00  0.00     0.114 C 
HETATM   13  C   UNL     1      26.932  42.856  50.289  1.00  0.00     0.037 C 
BRANCH  12  14
HETATM   14  C   UNL     1      26.839  44.110  52.484  1.00  0.00    -0.035 A 
HETATM   15  C   UNL     1      27.955  43.383  52.940  1.00  0.00     0.021 A 
HETATM   16  C   UNL     1      28.737  43.836  54.014  1.00  0.00    -0.025 A 
HETATM   17  C   UNL     1      28.385  45.036  54.666  1.00  0.00    -0.023 A 
HETATM   18  C   UNL     1      29.872  43.131  54.442  1.00  0.00     0.015 A 
HETATM   19  C   UNL     1      27.257  45.747  54.229  1.00  0.00     0.013 A 
HETATM   20  C   UNL     1      29.182  45.496  55.727  1.00  0.00     0.049 A 
HETATM   21  C   UNL     1      26.498  45.294  53.147  1.00  0.00     0.010 A 
HETATM   22  C   UNL     1      30.320  44.795  56.140  1.00  0.00     0.069 A 
HETATM   23  C   UNL     1      30.660  43.607  55.496  1.00  0.00     0.037 A 
BRANCH  22  24
HETATM   24  O   UNL     1      31.004  45.373  57.173  1.00  0.00    -0.356 OA
HETATM   25  C   UNL     1      30.392  45.328  58.455  1.00  0.00     0.210 C 
ENDBRANCH  22  24
ENDBRANCH  12  14
ENDBRANCH   9  12
ENDBRANCH   1   8
BRANCH   4  26
HETATM   26  C   UNL     1      21.159  48.521  47.750  1.00  0.00     0.257 C 
HETATM   27  N   UNL     1      20.183  47.566  47.604  1.00  0.00    -0.352 N 
HETATM   28  H   UNL     1      20.435  46.601  47.815  1.00  0.00     0.163 HD
HETATM   29  O   UNL     1      21.013  49.691  47.409  1.00  0.00    -0.267 OA
BRANCH  27  30
HETATM   30  C   UNL     1      18.921  47.804  46.917  1.00  0.00     0.084 C 
HETATM   31  C   UNL     1      18.157  46.489  46.702  1.00  0.00     0.025 C 
HETATM   32  C   UNL     1      17.599  45.916  48.004  1.00  0.00     0.002 C 
HETATM   33  C   UNL     1      16.740  46.935  48.747  1.00  0.00     0.000 C 
HETATM   34  C   UNL     1      17.492  48.239  48.993  1.00  0.00     0.002 C 
HETATM   35  C   UNL     1      18.068  48.815  47.698  1.00  0.00     0.025 C 
ENDBRANCH  27  30
ENDBRANCH   4  26
BRANCH   6  36
HETATM   36  C   UNL     1      25.744  49.544  49.127  1.00  0.00     0.089 A 
HETATM   37  C   UNL     1      27.204  49.245  48.904  1.00  0.00     0.028 A 
HETATM   38  C   UNL     1      26.467  50.119  47.936  1.00  0.00     0.028 A 
ENDBRANCH   6  36
TORSDOF 7
ENDMDL
MODEL 5
REMARK VINA RESULT:      -9.4      2.970      5.825
REMARK  7 active torsions:
REMARK  status: ('A' for Active; 'I' for Inactive)
REMARK    1  A    between atoms: C_2  and  N_3 
REMARK    2  A    between atoms: C_2  and  C_25 
REMARK       I    between atoms: N_3  and  C_4 
REMARK    3  A    between atoms: C_4  and  C_5 
REMARK    4  A    between atoms: C_8  and  C_9 
REMARK       I    between atoms: C_9  and  N_10 
REMARK    5  A    between atoms: N_10  and  C_11 
REMARK    6  A    between atoms: N_19  and  C_20 
REMARK    7  A    between atoms: C_33  and  O_34 
ROOT
HETATM    1  C   UNL     1      24.291  46.913  50.052  1.00  0.00     0.098 A 
HETATM    2  C   UNL     1      23.718  45.626  49.549  1.00  0.00     0.206 A 
HETATM    3  O   UNL     1      24.204  44.545  49.892  1.00  0.00    -0.286 OA
HETATM    4  C   UNL     1      22.536  45.670  48.637  1.00  0.00     0.098 A 
HETATM    5  C   UNL     1      22.084  46.889  48.295  1.00  0.00     0.112 A 
HETATM    6  N   UNL     1      22.654  48.070  48.727  1.00  0.00    -0.360 N 
HETATM    7  C   UNL     1      23.710  48.044  49.617  1.00  0.00     0.112 A 
ENDROOT
BRANCH   1   8
HETATM    8  C   UNL     1      25.451  47.005  50.985  1.00  0.00     0.257 C 
HETATM    9  N   UNL     1      25.484  46.034  51.947  1.00  0.00    -0.348 N 
HETATM   10  H   UNL     1      24.732  45.347  51.961  1.00  0.00     0.163 HD
HETATM   11  O   UNL     1      26.304  47.881  50.879  1.00  0.00    -0.267 OA
BRANCH   9  12
HETATM   12  C   UNL     1      26.524  45.902  52.951  1.00  0.00     0.114 C 
HETATM   13  C   UNL     1      25.997  46.239  54.345  1.00  0.00     0.037 C 
BRANCH  12  14
HETATM   14  C   UNL     1      27.090  44.492  52.878  1.00  0.00    -0.035 A 
HETATM   15  C   UNL     1      26.949  43.710  51.716  1.00  0.00     0.021 A 
HETATM   16  C   UNL     1      27.562  42.452  51.600  1.00  0.00    -0.025 A 
HETATM   17  C   UNL     1      28.319  41.951  52.679  1.00  0.00    -0.023 A 
HETATM   18  C   UNL     1      27.453  41.690  50.427  1.00  0.00     0.015 A 
HETATM   19  C   UNL     1      28.438  42.719  53.847  1.00  0.00     0.013 A 
HETATM   20  C   UNL     1      28.947  40.701  52.550  1.00  0.00     0.049 A 
HETATM   21  C   UNL     1      27.837  43.977  53.943  1.00  0.00     0.010 A 
HETATM   22  C   UNL     1      28.845  39.953  51.373  1.00  0.00     0.069 A 
HETATM   23  C   UNL     1      28.091  40.450  50.313  1.00  0.00     0.037 A 
BRANCH  22  24
HETATM   24  O   UNL     1      29.524  38.765  51.390  1.00  0.00    -0.356 OA
HETATM   25  C   UNL     1      29.562  38.030  50.173  1.00  0.00     0.210 C 
ENDBRANCH  22  24
ENDBRANCH  12  14
ENDBRANCH   9  12
ENDBRANCH   1   8
BRANCH   4  26
HETATM   26  C   UNL     1      21.841  44.463  48.105  1.00  0.00     0.257 C 
HETATM   27  N   UNL     1      22.668  43.417  47.774  1.00  0.00    -0.352 N 
HETATM   28  H   UNL     1      23.674  43.583  47.813  1.00  0.00     0.163 HD
HETATM   29  O   UNL     1      20.621  44.423  47.977  1.00  0.00    -0.267 OA
BRANCH  27  30
HETATM   30  C   UNL     1      22.205  42.201  47.121  1.00  0.00     0.084 C 
HETATM   31  C   UNL     1      22.616  42.182  45.642  1.00  0.00     0.025 C 
HETATM   32  C   UNL     1      24.119  41.978  45.454  1.00  0.00     0.002 C 
HETATM   33  C   UNL     1      24.615  40.730  46.178  1.00  0.00     0.000 C 
HETATM   34  C   UNL     1      24.238  40.745  47.656  1.00  0.00     0.002 C 
HETATM   35  C   UNL     1      22.737  40.962  47.857  1.00  0.00     0.025 C 
ENDBRANCH  27  30
ENDBRANCH   4  26
BRANCH   6  36
HETATM   36  C   UNL     1      22.001  49.347  48.408  1.00  0.00     0.089 A 
HETATM   37  C   UNL     1      22.433  50.646  49.038  1.00  0.00     0.028 A 
HETATM   38  C   UNL     1      22.694  50.400  47.583  1.00  0.00     0.028 A 
ENDBRANCH   6  36
TORSDOF 7
ENDMDL
MODEL 6
REMARK VINA RESULT:      -9.3      2.859     10.587
REMARK  7 active torsions:
REMARK  status: ('A' for Active; 'I' for Inactive)
REMARK    1  A    between atoms: C_2  and  N_3 
REMARK    2  A    between atoms: C_2  and  C_25 
REMARK       I    between atoms: N_3  and  C_4 
REMARK    3  A    between atoms: C_4  and  C_5 
REMARK    4  A    between atoms: C_8  and  C_9 
REMARK       I    between atoms: C_9  and  N_10 
REMARK    5  A    between atoms: N_10  and  C_11 
REMARK    6  A    between atoms: N_19  and  C_20 
REMARK    7  A    between atoms: C_33  and  O_34 
ROOT
HETATM    1  C   UNL     1      25.173  46.381  50.802  1.00  0.00     0.098 A 
HETATM    2  C   UNL     1      24.895  45.151  49.997  1.00  0.00     0.206 A 
HETATM    3  O   UNL     1      24.699  45.226  48.782  1.00  0.00    -0.286 OA
HETATM    4  C   UNL     1      24.875  43.827  50.687  1.00  0.00     0.098 A 
HETATM    5  C   UNL     1      25.075  43.837  52.017  1.00  0.00     0.112 A 
HETATM    6  N   UNL     1      25.281  44.985  52.755  1.00  0.00    -0.360 N 
HETATM    7  C   UNL     1      25.361  46.210  52.122  1.00  0.00     0.112 A 
ENDROOT
BRANCH   1   8
HETATM    8  C   UNL     1      25.246  47.757  50.230  1.00  0.00     0.257 C 
HETATM    9  N   UNL     1      24.075  48.208  49.687  1.00  0.00    -0.348 N 
HETATM   10  H   UNL     1      23.268  47.587  49.703  1.00  0.00     0.163 HD
HETATM   11  O   UNL     1      26.277  48.422  50.261  1.00  0.00    -0.267 OA
BRANCH   9  12
HETATM   12  C   UNL     1      23.892  49.520  49.094  1.00  0.00     0.114 C 
HETATM   13  C   UNL     1      24.872  49.753  47.945  1.00  0.00     0.037 C 
BRANCH  12  14
HETATM   14  C   UNL     1      22.444  49.651  48.648  1.00  0.00    -0.035 A 
HETATM   15  C   UNL     1      21.714  50.833  48.877  1.00  0.00     0.021 A 
HETATM   16  C   UNL     1      20.415  51.003  48.373  1.00  0.00    -0.025 A 
HETATM   17  C   UNL     1      19.818  49.959  47.638  1.00  0.00    -0.023 A 
HETATM   18  C   UNL     1      19.704  52.197  48.570  1.00  0.00     0.015 A 
HETATM   19  C   UNL     1      20.535  48.770  47.432  1.00  0.00     0.013 A 
HETATM   20  C   UNL     1      18.526  50.141  47.118  1.00  0.00     0.049 A 
HETATM   21  C   UNL     1      21.834  48.621  47.924  1.00  0.00     0.010 A 
HETATM   22  C   UNL     1      17.829  51.339  47.307  1.00  0.00     0.069 A 
HETATM   23  C   UNL     1      18.421  52.365  48.039  1.00  0.00     0.037 A 
BRANCH  22  24
HETATM   24  O   UNL     1      16.589  51.376  46.729  1.00  0.00    -0.356 OA
HETATM   25  C   UNL     1      15.749  50.249  46.939  1.00  0.00     0.210 C 
ENDBRANCH  22  24
ENDBRANCH  12  14
ENDBRANCH   9  12
ENDBRANCH   1   8
BRANCH   4  26
HETATM   26  C   UNL     1      24.657  42.524  49.996  1.00  0.00     0.257 C 
HETATM   27  N   UNL     1      25.769  41.723  49.906  1.00  0.00    -0.352 N 
HETATM   28  H   UNL     1      26.659  42.117  50.211  1.00  0.00     0.163 HD
HETATM   29  O   UNL     1      23.560  42.206  49.547  1.00  0.00    -0.267 OA
BRANCH  27  30
HETATM   30  C   UNL     1      25.802  40.472  49.161  1.00  0.00     0.084 C 
HETATM   31  C   UNL     1      26.299  40.700  47.726  1.00  0.00     0.025 C 
HETATM   32  C   UNL     1      27.790  41.033  47.669  1.00  0.00     0.002 C 
HETATM   33  C   UNL     1      28.632  39.978  48.382  1.00  0.00     0.000 C 
HETATM   34  C   UNL     1      28.168  39.758  49.818  1.00  0.00     0.002 C 
HETATM   35  C   UNL     1      26.673  39.437  49.888  1.00  0.00     0.025 C 
ENDBRANCH  27  30
ENDBRANCH   4  26
BRANCH   6  36
HETATM   36  C   UNL     1      25.627  44.877  54.178  1.00  0.00     0.089 A 
HETATM   37  C   UNL     1      26.272  43.642  54.753  1.00  0.00     0.028 A 
HETATM   38  C   UNL     1      27.060  44.911  54.644  1.00  0.00     0.028 A 
ENDBRANCH   6  36
TORSDOF 7
ENDMDL
MODEL 7
REMARK VINA RESULT:      -9.1      2.298     10.757
REMARK  7 active torsions:
REMARK  status: ('A' for Active; 'I' for Inactive)
REMARK    1  A    between atoms: C_2  and  N_3 
REMARK    2  A    between atoms: C_2  and  C_25 
REMARK       I    between atoms: N_3  and  C_4 
REMARK    3  A    between atoms: C_4  and  C_5 
REMARK    4  A    between atoms: C_8  and  C_9 
REMARK       I    between atoms: C_9  and  N_10 
REMARK    5  A    between atoms: N_10  and  C_11 
REMARK    6  A    between atoms: N_19  and  C_20 
REMARK    7  A    between atoms: C_33  and  O_34 
ROOT
HETATM    1  C   UNL     1      23.509  46.493  48.936  1.00  0.00     0.098 A 
HETATM    2  C   UNL     1      23.676  45.307  49.831  1.00  0.00     0.206 A 
HETATM    3  O   UNL     1      22.865  44.378  49.802  1.00  0.00    -0.286 OA
HETATM    4  C   UNL     1      24.851  45.258  50.751  1.00  0.00     0.098 A 
HETATM    5  C   UNL     1      25.673  46.322  50.737  1.00  0.00     0.112 A 
HETATM    6  N   UNL     1      25.479  47.433  49.940  1.00  0.00    -0.360 N 
HETATM    7  C   UNL     1      24.430  47.466  49.042  1.00  0.00     0.112 A 
ENDROOT
BRANCH   1   8
HETATM    8  C   UNL     1      22.395  46.652  47.955  1.00  0.00     0.257 C 
HETATM    9  N   UNL     1      21.348  47.407  48.405  1.00  0.00    -0.348 N 
HETATM   10  H   UNL     1      21.399  47.783  49.350  1.00  0.00     0.163 HD
HETATM   11  O   UNL     1      22.435  46.150  46.837  1.00  0.00    -0.267 OA
BRANCH   9  12
HETATM   12  C   UNL     1      20.163  47.721  47.627  1.00  0.00     0.114 C 
HETATM   13  C   UNL     1      19.163  46.565  47.643  1.00  0.00     0.037 C 
BRANCH  12  14
HETATM   14  C   UNL     1      19.559  49.009  48.166  1.00  0.00    -0.035 A 
HETATM   15  C   UNL     1      18.183  49.279  48.036  1.00  0.00     0.021 A 
HETATM   16  C   UNL     1      17.599  50.411  48.625  1.00  0.00    -0.025 A 
HETATM   17  C   UNL     1      18.410  51.310  49.347  1.00  0.00    -0.023 A 
HETATM   18  C   UNL     1      16.221  50.658  48.527  1.00  0.00     0.015 A 
HETATM   19  C   UNL     1      19.786  51.055  49.454  1.00  0.00     0.013 A 
HETATM   20  C   UNL     1      17.817  52.431  49.952  1.00  0.00     0.049 A 
HETATM   21  C   UNL     1      20.352  49.915  48.878  1.00  0.00     0.010 A 
HETATM   22  C   UNL     1      16.442  52.664  49.861  1.00  0.00     0.069 A 
HETATM   23  C   UNL     1      15.645  51.775  49.142  1.00  0.00     0.037 A 
BRANCH  22  24
HETATM   24  O   UNL     1      16.007  53.784  50.515  1.00  0.00    -0.356 OA
HETATM   25  C   UNL     1      15.063  54.600  49.833  1.00  0.00     0.210 C 
ENDBRANCH  22  24
ENDBRANCH  12  14
ENDBRANCH   9  12
ENDBRANCH   1   8
BRANCH   4  26
HETATM   26  C   UNL     1      25.159  44.116  51.658  1.00  0.00     0.257 C 
HETATM   27  N   UNL     1      26.489  43.962  51.966  1.00  0.00    -0.352 N 
HETATM   28  H   UNL     1      27.157  44.556  51.475  1.00  0.00     0.163 HD
HETATM   29  O   UNL     1      24.279  43.377  52.090  1.00  0.00    -0.267 OA
BRANCH  27  30
HETATM   30  C   UNL     1      27.014  42.838  52.729  1.00  0.00     0.084 C 
HETATM   31  C   UNL     1      28.389  42.408  52.198  1.00  0.00     0.025 C 
HETATM   32  C   UNL     1      29.484  43.426  52.518  1.00  0.00     0.002 C 
HETATM   33  C   UNL     1      29.544  43.741  54.010  1.00  0.00     0.000 C 
HETATM   34  C   UNL     1      28.191  44.194  54.549  1.00  0.00     0.002 C 
HETATM   35  C   UNL     1      27.084  43.189  54.222  1.00  0.00     0.025 C 
ENDBRANCH  27  30
ENDBRANCH   4  26
BRANCH   6  36
HETATM   36  C   UNL     1      26.509  48.479  49.897  1.00  0.00     0.089 A 
HETATM   37  C   UNL     1      27.763  48.335  49.074  1.00  0.00     0.028 A 
HETATM   38  C   UNL     1      26.717  49.327  48.668  1.00  0.00     0.028 A 
ENDBRANCH   6  36
TORSDOF 7
ENDMDL
MODEL 8
REMARK VINA RESULT:      -9.0      2.005      2.771
REMARK  7 active torsions:
REMARK  status: ('A' for Active; 'I' for Inactive)
REMARK    1  A    between atoms: C_2  and  N_3 
REMARK    2  A    between atoms: C_2  and  C_25 
REMARK       I    between atoms: N_3  and  C_4 
REMARK    3  A    between atoms: C_4  and  C_5 
REMARK    4  A    between atoms: C_8  and  C_9 
REMARK       I    between atoms: C_9  and  N_10 
REMARK    5  A    between atoms: N_10  and  C_11 
REMARK    6  A    between atoms: N_19  and  C_20 
REMARK    7  A    between atoms: C_33  and  O_34 
ROOT
HETATM    1  C   UNL     1      24.167  45.854  49.359  1.00  0.00     0.098 A 
HETATM    2  C   UNL     1      22.845  45.277  48.962  1.00  0.00     0.206 A 
HETATM    3  O   UNL     1      22.662  44.057  48.980  1.00  0.00    -0.286 OA
HETATM    4  C   UNL     1      21.746  46.203  48.558  1.00  0.00     0.098 A 
HETATM    5  C   UNL     1      22.038  47.515  48.543  1.00  0.00     0.112 A 
HETATM    6  N   UNL     1      23.278  48.031  48.864  1.00  0.00    -0.360 N 
HETATM    7  C   UNL     1      24.286  47.191  49.296  1.00  0.00     0.112 A 
ENDROOT
BRANCH   1   8
HETATM    8  C   UNL     1      25.336  45.042  49.805  1.00  0.00     0.257 C 
HETATM    9  N   UNL     1      25.028  44.038  50.681  1.00  0.00    -0.348 N 
HETATM   10  H   UNL     1      24.055  43.930  50.963  1.00  0.00     0.163 HD
HETATM   11  O   UNL     1      26.474  45.261  49.403  1.00  0.00    -0.267 OA
BRANCH   9  12
HETATM   12  C   UNL     1      25.989  43.103  51.237  1.00  0.00     0.114 C 
HETATM   13  C   UNL     1      27.032  42.694  50.198  1.00  0.00     0.037 C 
BRANCH  12  14
HETATM   14  C   UNL     1      26.621  43.733  52.468  1.00  0.00    -0.035 A 
HETATM   15  C   UNL     1      27.852  43.272  52.972  1.00  0.00     0.021 A 
HETATM   16  C   UNL     1      28.496  43.917  54.040  1.00  0.00    -0.025 A 
HETATM   17  C   UNL     1      27.887  45.041  54.635  1.00  0.00    -0.023 A 
HETATM   18  C   UNL     1      29.741  43.479  54.516  1.00  0.00     0.015 A 
HETATM   19  C   UNL     1      26.647  45.486  54.150  1.00  0.00     0.013 A 
HETATM   20  C   UNL     1      28.545  45.696  55.689  1.00  0.00     0.049 A 
HETATM   21  C   UNL     1      26.026  44.844  53.075  1.00  0.00     0.010 A 
HETATM   22  C   UNL     1      29.792  45.262  56.150  1.00  0.00     0.069 A 
HETATM   23  C   UNL     1      30.386  44.148  55.562  1.00  0.00     0.037 A 
BRANCH  22  24
HETATM   24  O   UNL     1      30.316  46.009  57.169  1.00  0.00    -0.356 OA
HETATM   25  C   UNL     1      30.891  45.296  58.257  1.00  0.00     0.210 C 
ENDBRANCH  22  24
ENDBRANCH  12  14
ENDBRANCH   9  12
ENDBRANCH   1   8
BRANCH   4  26
HETATM   26  C   UNL     1      20.371  45.762  48.186  1.00  0.00     0.257 C 
HETATM   27  N   UNL     1      19.589  46.728  47.603  1.00  0.00    -0.352 N 
HETATM   28  H   UNL     1      19.961  47.678  47.573  1.00  0.00     0.163 HD
HETATM   29  O   UNL     1      19.983  44.615  48.392  1.00  0.00    -0.267 OA
BRANCH  27  30
HETATM   30  C   UNL     1      18.181  46.541  47.284  1.00  0.00     0.084 C 
HETATM   31  C   UNL     1      17.299  46.805  48.513  1.00  0.00     0.025 C 
HETATM   32  C   UNL     1      17.247  48.286  48.888  1.00  0.00     0.002 C 
HETATM   33  C   UNL     1      16.820  49.154  47.708  1.00  0.00     0.000 C 
HETATM   34  C   UNL     1      17.703  48.922  46.486  1.00  0.00     0.002 C 
HETATM   35  C   UNL     1      17.773  47.441  46.109  1.00  0.00     0.025 C 
ENDBRANCH  27  30
ENDBRANCH   4  26
BRANCH   6  36
HETATM   36  C   UNL     1      23.454  49.487  48.951  1.00  0.00     0.089 A 
HETATM   37  C   UNL     1      22.614  50.444  48.145  1.00  0.00     0.028 A 
HETATM   38  C   UNL     1      22.432  50.363  49.630  1.00  0.00     0.028 A 
ENDBRANCH   6  36
TORSDOF 7
ENDMDL
MODEL 9
REMARK VINA RESULT:      -9.0     12.334     17.108
REMARK  7 active torsions:
REMARK  status: ('A' for Active; 'I' for Inactive)
REMARK    1  A    between atoms: C_2  and  N_3 
REMARK    2  A    between atoms: C_2  and  C_25 
REMARK       I    between atoms: N_3  and  C_4 
REMARK    3  A    between atoms: C_4  and  C_5 
REMARK    4  A    between atoms: C_8  and  C_9 
REMARK       I    between atoms: C_9  and  N_10 
REMARK    5  A    between atoms: N_10  and  C_11 
REMARK    6  A    between atoms: N_19  and  C_20 
REMARK    7  A    between atoms: C_33  and  O_34 
ROOT
HETATM    1  C   UNL     1      35.852  51.949  41.833  1.00  0.00     0.098 A 
HETATM    2  C   UNL     1      36.709  52.854  42.658  1.00  0.00     0.206 A 
HETATM    3  O   UNL     1      36.498  52.991  43.866  1.00  0.00    -0.286 OA
HETATM    4  C   UNL     1      37.837  53.580  41.999  1.00  0.00     0.098 A 
HETATM    5  C   UNL     1      37.981  53.393  40.675  1.00  0.00     0.112 A 
HETATM    6  N   UNL     1      37.151  52.592  39.916  1.00  0.00    -0.360 N 
HETATM    7  C   UNL     1      36.142  51.870  40.523  1.00  0.00     0.112 A 
ENDROOT
BRANCH   1   8
HETATM    8  C   UNL     1      34.714  51.150  42.373  1.00  0.00     0.257 C 
HETATM    9  N   UNL     1      33.896  51.835  43.228  1.00  0.00    -0.348 N 
HETATM   10  H   UNL     1      34.123  52.807  43.434  1.00  0.00     0.163 HD
HETATM   11  O   UNL     1      34.533  49.978  42.059  1.00  0.00    -0.267 OA
BRANCH   9  12
HETATM   12  C   UNL     1      32.713  51.281  43.862  1.00  0.00     0.114 C 
HETATM   13  C   UNL     1      32.242  52.155  45.024  1.00  0.00     0.037 C 
BRANCH  12  14
HETATM   14  C   UNL     1      31.635  51.105  42.803  1.00  0.00    -0.035 A 
HETATM   15  C   UNL     1      31.187  52.194  42.032  1.00  0.00     0.021 A 
HETATM   16  C   UNL     1      30.273  52.021  40.981  1.00  0.00    -0.025 A 
HETATM   17  C   UNL     1      29.776  50.732  40.703  1.00  0.00    -0.023 A 
HETATM   18  C   UNL     1      29.856  53.102  40.188  1.00  0.00     0.015 A 
HETATM   19  C   UNL     1      30.203  49.650  41.488  1.00  0.00     0.013 A 
HETATM   20  C   UNL     1      28.878  50.560  39.636  1.00  0.00     0.049 A 
HETATM   21  C   UNL     1      31.126  49.833  42.521  1.00  0.00     0.010 A 
HETATM   22  C   UNL     1      28.478  51.639  38.842  1.00  0.00     0.069 A 
HETATM   23  C   UNL     1      28.967  52.912  39.125  1.00  0.00     0.037 A 
BRANCH  22  24
HETATM   24  O   UNL     1      27.614  51.316  37.832  1.00  0.00    -0.356 OA
HETATM   25  C   UNL     1      26.620  50.343  38.124  1.00  0.00     0.210 C 
ENDBRANCH  22  24
ENDBRANCH  12  14
ENDBRANCH   9  12
ENDBRANCH   1   8
BRANCH   4  26
HETATM   26  C   UNL     1      38.792  54.473  42.714  1.00  0.00     0.257 C 
HETATM   27  N   UNL     1      39.111  54.077  43.990  1.00  0.00    -0.352 N 
HETATM   28  H   UNL     1      38.599  53.286  44.379  1.00  0.00     0.163 HD
HETATM   29  O   UNL     1      39.250  55.483  42.188  1.00  0.00    -0.267 OA
BRANCH  27  30
HETATM   30  C   UNL     1      39.923  54.873  44.900  1.00  0.00     0.084 C 
HETATM   31  C   UNL     1      39.042  55.608  45.921  1.00  0.00     0.025 C 
HETATM   32  C   UNL     1      38.420  54.661  46.947  1.00  0.00     0.002 C 
HETATM   33  C   UNL     1      39.477  53.810  47.644  1.00  0.00     0.000 C 
HETATM   34  C   UNL     1      40.345  53.052  46.645  1.00  0.00     0.002 C 
HETATM   35  C   UNL     1      40.962  53.989  45.604  1.00  0.00     0.025 C 
ENDBRANCH  27  30
ENDBRANCH   4  26
BRANCH   6  36
HETATM   36  C   UNL     1      37.478  52.345  38.506  1.00  0.00     0.089 A 
HETATM   37  C   UNL     1      38.894  52.389  37.993  1.00  0.00     0.028 A 
HETATM   38  C   UNL     1      38.170  51.079  38.069  1.00  0.00     0.028 A 
ENDBRANCH   6  36
TORSDOF 7
ENDMDL
MODEL 10
REMARK VINA RESULT:      -8.9      3.345      4.927
REMARK  7 active torsions:
REMARK  status: ('A' for Active; 'I' for Inactive)
REMARK    1  A    between atoms: C_2  and  N_3 
REMARK    2  A    between atoms: C_2  and  C_25 
REMARK       I    between atoms: N_3  and  C_4 
REMARK    3  A    between atoms: C_4  and  C_5 
REMARK    4  A    between atoms: C_8  and  C_9 
REMARK       I    between atoms: C_9  and  N_10 
REMARK    5  A    between atoms: N_10  and  C_11 
REMARK    6  A    between atoms: N_19  and  C_20 
REMARK    7  A    between atoms: C_33  and  O_34 
ROOT
HETATM    1  C   UNL     1      23.418  45.549  48.840  1.00  0.00     0.098 A 
HETATM    2  C   UNL     1      22.792  46.747  48.200  1.00  0.00     0.206 A 
HETATM    3  O   UNL     1      21.898  46.615  47.361  1.00  0.00    -0.286 OA
HETATM    4  C   UNL     1      23.257  48.107  48.606  1.00  0.00     0.098 A 
HETATM    5  C   UNL     1      24.251  48.160  49.509  1.00  0.00     0.112 A 
HETATM    6  N   UNL     1      24.855  47.044  50.055  1.00  0.00    -0.360 N 
HETATM    7  C   UNL     1      24.396  45.782  49.733  1.00  0.00     0.112 A 
ENDROOT
BRANCH   1   8
HETATM    8  C   UNL     1      23.028  44.140  48.542  1.00  0.00     0.257 C 
HETATM    9  N   UNL     1      24.064  43.334  48.159  1.00  0.00    -0.348 N 
HETATM   10  H   UNL     1      24.994  43.744  48.097  1.00  0.00     0.163 HD
HETATM   11  O   UNL     1      21.871  43.748  48.647  1.00  0.00    -0.267 OA
BRANCH   9  12
HETATM   12  C   UNL     1      23.938  41.923  47.841  1.00  0.00     0.114 C 
HETATM   13  C   UNL     1      23.927  41.692  46.330  1.00  0.00     0.037 C 
BRANCH  12  14
HETATM   14  C   UNL     1      25.067  41.170  48.527  1.00  0.00    -0.035 A 
HETATM   15  C   UNL     1      25.688  40.067  47.910  1.00  0.00     0.021 A 
HETATM   16  C   UNL     1      26.802  39.435  48.487  1.00  0.00    -0.025 A 
HETATM   17  C   UNL     1      27.297  39.901  49.722  1.00  0.00    -0.023 A 
HETATM   18  C   UNL     1      27.444  38.361  47.852  1.00  0.00     0.015 A 
HETATM   19  C   UNL     1      26.661  40.983  50.350  1.00  0.00     0.013 A 
HETATM   20  C   UNL     1      28.423  39.278  50.285  1.00  0.00     0.049 A 
HETATM   21  C   UNL     1      25.565  41.614  49.757  1.00  0.00     0.010 A 
HETATM   22  C   UNL     1      29.066  38.217  49.640  1.00  0.00     0.069 A 
HETATM   23  C   UNL     1      28.569  37.758  48.423  1.00  0.00     0.037 A 
BRANCH  22  24
HETATM   24  O   UNL     1      30.158  37.725  50.300  1.00  0.00    -0.356 OA
HETATM   25  C   UNL     1      29.910  36.805  51.355  1.00  0.00     0.210 C 
ENDBRANCH  22  24
ENDBRANCH  12  14
ENDBRANCH   9  12
ENDBRANCH   1   8
BRANCH   4  26
HETATM   26  C   UNL     1      22.685  49.380  48.082  1.00  0.00     0.257 C 
HETATM   27  N   UNL     1      21.430  49.687  48.548  1.00  0.00    -0.352 N 
HETATM   28  H   UNL     1      20.954  48.985  49.114  1.00  0.00     0.163 HD
HETATM   29  O   UNL     1      23.302  50.089  47.292  1.00  0.00    -0.267 OA
BRANCH  27  30
HETATM   30  C   UNL     1      20.645  50.815  48.064  1.00  0.00     0.084 C 
HETATM   31  C   UNL     1      19.655  50.369  46.978  1.00  0.00     0.025 C 
HETATM   32  C   UNL     1      18.511  49.525  47.540  1.00  0.00     0.002 C 
HETATM   33  C   UNL     1      17.792  50.238  48.682  1.00  0.00     0.000 C 
HETATM   34  C   UNL     1      18.758  50.665  49.782  1.00  0.00     0.002 C 
HETATM   35  C   UNL     1      19.915  51.499  49.229  1.00  0.00     0.025 C 
ENDBRANCH  27  30
ENDBRANCH   4  26
BRANCH   6  36
HETATM   36  C   UNL     1      25.836  47.210  51.135  1.00  0.00     0.089 A 
HETATM   37  C   UNL     1      25.464  47.050  52.586  1.00  0.00     0.028 A 
HETATM   38  C   UNL     1      26.340  46.030  51.927  1.00  0.00     0.028 A 
ENDBRANCH   6  36
TORSDOF 7
ENDMDL
