MODEL 1
REMARK VINA RESULT:     -10.5      0.000      0.000
REMARK  6 active torsions:
REMARK  status: ('A' for Active; 'I' for Inactive)
REMARK    1  A    between atoms: C_2  and  O_3 
REMARK    2  A    between atoms: O_3  and  C_4 
REMARK    3  A    between atoms: C_5  and  C_6 
REMARK       I    between atoms: C_6  and  N_7 
REMARK    4  A    between atoms: N_7  and  C_8 
REMARK    5  A    between atoms: N_9  and  C_10 
REMARK    6  A    between atoms: C_22  and  C_23 
ROOT
HETATM    1  C   UNL     1      28.127  42.249  51.160  1.00  0.00     0.152 A 
HETATM    2  N   UNL     1      27.194  42.596  50.195  1.00  0.00    -0.044 N 
HETATM    3  N   UNL     1      26.923  41.568  49.336  1.00  0.00    -0.148 NA
HETATM    4  C   UNL     1      27.712  40.575  49.768  1.00  0.00     0.115 A 
HETATM    5  C   UNL     1      28.498  40.956  50.876  1.00  0.00     0.087 A 
ENDROOT
BRANCH   1   6
HETATM    6  N   UNL     1      28.493  43.121  52.174  1.00  0.00    -0.307 N 
HETATM    7  C   UNL     1      28.151  42.936  53.496  1.00  0.00     0.261 C 
HETATM    8  O   UNL     1      27.685  41.931  54.014  1.00  0.00    -0.267 OA
HETATM    9  H   UNL     1      28.983  43.975  51.904  1.00  0.00     0.170 HD
BRANCH   7  10
HETATM   10  C   UNL     1      28.426  44.129  54.330  1.00  0.00     0.076 A 
HETATM   11  C   UNL     1      27.635  45.273  54.105  1.00  0.00     0.085 A 
HETATM   12  C   UNL     1      27.888  46.419  54.855  1.00  0.00     0.039 A 
HETATM   13  C   UNL     1      28.917  46.426  55.800  1.00  0.00     0.015 A 
HETATM   14  C   UNL     1      29.717  45.292  56.020  1.00  0.00    -0.025 A 
HETATM   15  C   UNL     1      29.475  44.109  55.283  1.00  0.00    -0.007 A 
HETATM   16  C   UNL     1      30.757  45.329  56.963  1.00  0.00     0.012 A 
HETATM   17  C   UNL     1      30.301  42.989  55.534  1.00  0.00     0.013 A 
HETATM   18  C   UNL     1      31.334  43.042  56.472  1.00  0.00     0.001 A 
HETATM   19  C   UNL     1      31.563  44.212  57.185  1.00  0.00     0.001 A 
BRANCH  11  20
HETATM   20  O   UNL     1      26.678  45.175  53.131  1.00  0.00    -0.350 OA
BRANCH  20  21
HETATM   21  C   UNL     1      25.321  45.420  53.488  1.00  0.00     0.171 C 
HETATM   22  C   UNL     1      24.899  44.331  54.459  1.00  0.00     0.034 C 
ENDBRANCH  20  21
ENDBRANCH  11  20
ENDBRANCH   7  10
ENDBRANCH   1   6
BRANCH   2  23
HETATM   23  C   UNL     1      26.546  43.836  50.029  1.00  0.00     0.732 A 
HETATM   24  N   UNL     1      27.183  44.960  49.910  1.00  0.00    -0.067 NA
HETATM   25  C   UNL     1      26.407  46.081  49.721  1.00  0.00     0.065 A 
HETATM   26  C   UNL     1      25.061  46.071  49.670  1.00  0.00     0.036 A 
HETATM   27  C   UNL     1      27.184  47.366  49.534  1.00  0.00     0.060 C 
HETATM   28  C   UNL     1      24.210  47.289  49.461  1.00  0.00     0.046 C 
HETATM   29  C   UNL     1      24.368  44.768  49.825  1.00  0.00     0.268 A 
HETATM   30  C   UNL     1      24.992  48.597  49.600  1.00  0.00     0.005 C 
HETATM   31  C   UNL     1      26.355  48.498  48.926  1.00  0.00     0.006 C 
HETATM   32  O   UNL     1      23.148  44.667  49.791  1.00  0.00    -0.267 OA
HETATM   33  N   UNL     1      25.188  43.698  50.000  1.00  0.00    -0.152 N 
HETATM   34  H   UNL     1      24.781  42.774  50.102  1.00  0.00     0.188 HD
ENDBRANCH   2  23
BRANCH   4  35
HETATM   35  C   UNL     1      27.720  39.221  49.143  1.00  0.00     0.105 A 
HETATM   36  O   UNL     1      26.991  38.154  49.595  1.00  0.00    -0.320 OA
HETATM   37  C   UNL     1      27.244  37.110  48.766  1.00  0.00     0.142 A 
HETATM   38  C   UNL     1      28.127  37.480  47.780  1.00  0.00     0.027 A 
HETATM   39  C   UNL     1      28.436  38.841  48.023  1.00  0.00     0.041 A 
ENDBRANCH   4  35
TORSDOF 6
ENDMDL
MODEL 2
REMARK VINA RESULT:     -10.4      1.892      6.166
REMARK  6 active torsions:
REMARK  status: ('A' for Active; 'I' for Inactive)
REMARK    1  A    between atoms: C_2  and  O_3 
REMARK    2  A    between atoms: O_3  and  C_4 
REMARK    3  A    between atoms: C_5  and  C_6 
REMARK       I    between atoms: C_6  and  N_7 
REMARK    4  A    between atoms: N_7  and  C_8 
REMARK    5  A    between atoms: N_9  and  C_10 
REMARK    6  A    between atoms: C_22  and  C_23 
ROOT
HETATM    1  C   UNL     1      25.999  45.357  50.756  1.00  0.00     0.152 A 
HETATM    2  N   UNL     1      25.383  44.719  49.690  1.00  0.00    -0.044 N 
HETATM    3  N   UNL     1      24.435  45.499  49.090  1.00  0.00    -0.148 NA
HETATM    4  C   UNL     1      24.454  46.632  49.805  1.00  0.00     0.115 A 
HETATM    5  C   UNL     1      25.385  46.583  50.865  1.00  0.00     0.087 A 
ENDROOT
BRANCH   1   6
HETATM    6  N   UNL     1      27.040  44.772  51.459  1.00  0.00    -0.307 N 
HETATM    7  C   UNL     1      26.890  44.201  52.705  1.00  0.00     0.261 C 
HETATM    8  O   UNL     1      25.845  43.930  53.282  1.00  0.00    -0.267 OA
HETATM    9  H   UNL     1      27.974  44.833  51.052  1.00  0.00     0.170 HD
BRANCH   7  10
HETATM   10  C   UNL     1      28.186  43.891  53.351  1.00  0.00     0.076 A 
HETATM   11  C   UNL     1      28.934  42.820  52.823  1.00  0.00     0.085 A 
HETATM   12  C   UNL     1      30.144  42.488  53.425  1.00  0.00     0.039 A 
HETATM   13  C   UNL     1      30.591  43.202  54.541  1.00  0.00     0.015 A 
HETATM   14  C   UNL     1      29.845  44.263  55.079  1.00  0.00    -0.025 A 
HETATM   15  C   UNL     1      28.617  44.631  54.480  1.00  0.00    -0.007 A 
HETATM   16  C   UNL     1      30.305  44.953  56.212  1.00  0.00     0.012 A 
HETATM   17  C   UNL     1      27.894  45.705  55.051  1.00  0.00     0.013 A 
HETATM   18  C   UNL     1      28.365  46.380  56.180  1.00  0.00     0.001 A 
HETATM   19  C   UNL     1      29.569  46.003  56.760  1.00  0.00     0.001 A 
BRANCH  11  20
HETATM   20  O   UNL     1      28.390  42.163  51.753  1.00  0.00    -0.350 OA
BRANCH  20  21
HETATM   21  C   UNL     1      27.815  40.877  51.970  1.00  0.00     0.171 C 
HETATM   22  C   UNL     1      28.914  39.847  51.787  1.00  0.00     0.034 C 
ENDBRANCH  20  21
ENDBRANCH  11  20
ENDBRANCH   7  10
ENDBRANCH   1   6
BRANCH   2  23
HETATM   23  C   UNL     1      25.628  43.419  49.205  1.00  0.00     0.732 A 
HETATM   24  N   UNL     1      26.821  42.946  49.013  1.00  0.00    -0.067 NA
HETATM   25  C   UNL     1      26.895  41.646  48.566  1.00  0.00     0.065 A 
HETATM   26  C   UNL     1      25.823  40.871  48.312  1.00  0.00     0.036 A 
HETATM   27  C   UNL     1      28.300  41.110  48.404  1.00  0.00     0.060 C 
HETATM   28  C   UNL     1      25.897  39.453  47.827  1.00  0.00     0.046 C 
HETATM   29  C   UNL     1      24.475  41.453  48.528  1.00  0.00     0.268 A 
HETATM   30  C   UNL     1      27.299  39.049  47.366  1.00  0.00     0.005 C 
HETATM   31  C   UNL     1      28.366  39.585  48.314  1.00  0.00     0.006 C 
HETATM   32  O   UNL     1      23.447  40.820  48.322  1.00  0.00    -0.267 OA
HETATM   33  N   UNL     1      24.469  42.736  48.978  1.00  0.00    -0.152 N 
HETATM   34  H   UNL     1      23.581  43.192  49.158  1.00  0.00     0.188 HD
ENDBRANCH   2  23
BRANCH   4  35
HETATM   35  C   UNL     1      23.595  47.807  49.479  1.00  0.00     0.105 A 
HETATM   36  O   UNL     1      23.868  49.095  49.854  1.00  0.00    -0.320 OA
HETATM   37  C   UNL     1      22.875  49.879  49.363  1.00  0.00     0.142 A 
HETATM   38  C   UNL     1      21.959  49.121  48.673  1.00  0.00     0.027 A 
HETATM   39  C   UNL     1      22.421  47.784  48.749  1.00  0.00     0.041 A 
ENDBRANCH   4  35
TORSDOF 6
ENDMDL
MODEL 3
REMARK VINA RESULT:     -10.1      2.260      6.472
REMARK  6 active torsions:
REMARK  status: ('A' for Active; 'I' for Inactive)
REMARK    1  A    between atoms: C_2  and  O_3 
REMARK    2  A    between atoms: O_3  and  C_4 
REMARK    3  A    between atoms: C_5  and  C_6 
REMARK       I    between atoms: C_6  and  N_7 
REMARK    4  A    between atoms: N_7  and  C_8 
REMARK    5  A    between atoms: N_9  and  C_10 
REMARK    6  A    between atoms: C_22  and  C_23 
ROOT
HETATM    1  C   UNL     1      25.162  46.349  50.721  1.00  0.00     0.152 A 
HETATM    2  N   UNL     1      24.557  45.683  49.665  1.00  0.00    -0.044 N 
HETATM    3  N   UNL     1      23.709  46.488  48.957  1.00  0.00    -0.148 NA
HETATM    4  C   UNL     1      23.780  47.665  49.593  1.00  0.00     0.115 A 
HETATM    5  C   UNL     1      24.643  47.622  50.708  1.00  0.00     0.087 A 
ENDROOT
BRANCH   1   6
HETATM    6  N   UNL     1      26.112  45.739  51.524  1.00  0.00    -0.307 N 
HETATM    7  C   UNL     1      25.805  45.062  52.685  1.00  0.00     0.261 C 
HETATM    8  O   UNL     1      24.700  44.712  53.076  1.00  0.00    -0.267 OA
HETATM    9  H   UNL     1      27.092  45.862  51.268  1.00  0.00     0.170 HD
BRANCH   7  10
HETATM   10  C   UNL     1      27.004  44.738  53.492  1.00  0.00     0.076 A 
HETATM   11  C   UNL     1      27.451  45.711  54.408  1.00  0.00     0.085 A 
HETATM   12  C   UNL     1      28.591  45.447  55.162  1.00  0.00     0.039 A 
HETATM   13  C   UNL     1      29.278  44.240  54.995  1.00  0.00     0.015 A 
HETATM   14  C   UNL     1      28.844  43.272  54.076  1.00  0.00    -0.025 A 
HETATM   15  C   UNL     1      27.681  43.507  53.305  1.00  0.00    -0.007 A 
HETATM   16  C   UNL     1      29.560  42.075  53.913  1.00  0.00     0.012 A 
HETATM   17  C   UNL     1      27.275  42.507  52.391  1.00  0.00     0.013 A 
HETATM   18  C   UNL     1      28.001  41.324  52.238  1.00  0.00     0.001 A 
HETATM   19  C   UNL     1      29.143  41.109  52.997  1.00  0.00     0.001 A 
BRANCH  11  20
HETATM   20  O   UNL     1      26.730  46.873  54.468  1.00  0.00    -0.350 OA
BRANCH  20  21
HETATM   21  C   UNL     1      27.278  47.974  55.187  1.00  0.00     0.171 C 
HETATM   22  C   UNL     1      26.143  48.635  55.948  1.00  0.00     0.034 C 
ENDBRANCH  20  21
ENDBRANCH  11  20
ENDBRANCH   7  10
ENDBRANCH   1   6
BRANCH   2  23
HETATM   23  C   UNL     1      24.724  44.336  49.286  1.00  0.00     0.732 A 
HETATM   24  N   UNL     1      25.884  43.763  49.195  1.00  0.00    -0.067 NA
HETATM   25  C   UNL     1      25.878  42.432  48.843  1.00  0.00     0.065 A 
HETATM   26  C   UNL     1      24.763  41.723  48.583  1.00  0.00     0.036 A 
HETATM   27  C   UNL     1      27.243  41.782  48.798  1.00  0.00     0.060 C 
HETATM   28  C   UNL     1      24.750  40.271  48.203  1.00  0.00     0.046 C 
HETATM   29  C   UNL     1      23.456  42.418  48.682  1.00  0.00     0.268 A 
HETATM   30  C   UNL     1      26.138  39.731  47.851  1.00  0.00     0.005 C 
HETATM   31  C   UNL     1      27.193  40.254  48.818  1.00  0.00     0.006 C 
HETATM   32  O   UNL     1      22.393  41.850  48.463  1.00  0.00    -0.267 OA
HETATM   33  N   UNL     1      23.527  43.727  49.041  1.00  0.00    -0.152 N 
HETATM   34  H   UNL     1      22.670  44.261  49.139  1.00  0.00     0.188 HD
ENDBRANCH   2  23
BRANCH   4  35
HETATM   35  C   UNL     1      23.037  48.875  49.136  1.00  0.00     0.105 A 
HETATM   36  O   UNL     1      23.143  50.113  49.710  1.00  0.00    -0.320 OA
HETATM   37  C   UNL     1      22.336  50.953  49.014  1.00  0.00     0.142 A 
HETATM   38  C   UNL     1      21.705  50.280  47.994  1.00  0.00     0.027 A 
HETATM   39  C   UNL     1      22.154  48.940  48.073  1.00  0.00     0.041 A 
ENDBRANCH   4  35
TORSDOF 6
ENDMDL
MODEL 4
REMARK VINA RESULT:     -10.0      0.930      2.946
REMARK  6 active torsions:
REMARK  status: ('A' for Active; 'I' for Inactive)
REMARK    1  A    between atoms: C_2  and  O_3 
REMARK    2  A    between atoms: O_3  and  C_4 
REMARK    3  A    between atoms: C_5  and  C_6 
REMARK       I    between atoms: C_6  and  N_7 
REMARK    4  A    between atoms: N_7  and  C_8 
REMARK    5  A    between atoms: N_9  and  C_10 
REMARK    6  A    between atoms: C_22  and  C_23 
ROOT
HETATM    1  C   UNL     1      27.981  42.315  51.413  1.00  0.00     0.152 A 
HETATM    2  N   UNL     1      27.014  42.591  50.458  1.00  0.00    -0.044 N 
HETATM    3  N   UNL     1      26.728  41.509  49.674  1.00  0.00    -0.148 NA
HETATM    4  C   UNL     1      27.541  40.552  50.142  1.00  0.00     0.115 A 
HETATM    5  C   UNL     1      28.356  41.010  51.199  1.00  0.00     0.087 A 
ENDROOT
BRANCH   1   6
HETATM    6  N   UNL     1      28.368  43.252  52.357  1.00  0.00    -0.307 N 
HETATM    7  C   UNL     1      27.919  43.249  53.661  1.00  0.00     0.261 C 
HETATM    8  O   UNL     1      27.313  42.358  54.240  1.00  0.00    -0.267 OA
HETATM    9  H   UNL     1      28.964  44.018  52.041  1.00  0.00     0.170 HD
BRANCH   7  10
HETATM   10  C   UNL     1      28.263  44.494  54.387  1.00  0.00     0.076 A 
HETATM   11  C   UNL     1      29.414  44.473  55.200  1.00  0.00     0.085 A 
HETATM   12  C   UNL     1      29.748  45.620  55.914  1.00  0.00     0.039 A 
HETATM   13  C   UNL     1      28.943  46.759  55.829  1.00  0.00     0.015 A 
HETATM   14  C   UNL     1      27.789  46.782  55.029  1.00  0.00    -0.025 A 
HETATM   15  C   UNL     1      27.431  45.636  54.281  1.00  0.00    -0.007 A 
HETATM   16  C   UNL     1      26.986  47.933  54.974  1.00  0.00     0.012 A 
HETATM   17  C   UNL     1      26.262  45.698  53.488  1.00  0.00     0.013 A 
HETATM   18  C   UNL     1      25.472  46.849  53.445  1.00  0.00     0.001 A 
HETATM   19  C   UNL     1      25.833  47.964  54.189  1.00  0.00     0.001 A 
BRANCH  11  20
HETATM   20  O   UNL     1      30.112  43.297  55.243  1.00  0.00    -0.350 OA
BRANCH  20  21
HETATM   21  C   UNL     1      31.452  43.322  55.727  1.00  0.00     0.171 C 
HETATM   22  C   UNL     1      31.414  42.955  57.199  1.00  0.00     0.034 C 
ENDBRANCH  20  21
ENDBRANCH  11  20
ENDBRANCH   7  10
ENDBRANCH   1   6
BRANCH   2  23
HETATM   23  C   UNL     1      26.347  43.813  50.235  1.00  0.00     0.732 A 
HETATM   24  N   UNL     1      26.962  44.951  50.147  1.00  0.00    -0.067 NA
HETATM   25  C   UNL     1      26.172  46.050  49.894  1.00  0.00     0.065 A 
HETATM   26  C   UNL     1      24.834  46.004  49.752  1.00  0.00     0.036 A 
HETATM   27  C   UNL     1      26.927  47.353  49.746  1.00  0.00     0.060 C 
HETATM   28  C   UNL     1      23.968  47.198  49.473  1.00  0.00     0.046 C 
HETATM   29  C   UNL     1      24.165  44.685  49.875  1.00  0.00     0.268 A 
HETATM   30  C   UNL     1      24.705  48.527  49.650  1.00  0.00     0.005 C 
HETATM   31  C   UNL     1      26.113  48.457  49.071  1.00  0.00     0.006 C 
HETATM   32  O   UNL     1      22.953  44.552  49.760  1.00  0.00    -0.267 OA
HETATM   33  N   UNL     1      24.998  43.639  50.116  1.00  0.00    -0.152 N 
HETATM   34  H   UNL     1      24.609  42.706  50.200  1.00  0.00     0.188 HD
ENDBRANCH   2  23
BRANCH   4  35
HETATM   35  C   UNL     1      27.544  39.161  49.604  1.00  0.00     0.105 A 
HETATM   36  O   UNL     1      28.423  38.184  49.984  1.00  0.00    -0.320 OA
HETATM   37  C   UNL     1      28.104  37.060  49.295  1.00  0.00     0.142 A 
HETATM   38  C   UNL     1      27.028  37.290  48.470  1.00  0.00     0.027 A 
HETATM   39  C   UNL     1      26.667  38.645  48.667  1.00  0.00     0.041 A 
ENDBRANCH   4  35
TORSDOF 6
ENDMDL
MODEL 5
REMARK VINA RESULT:      -9.4      2.146      7.932
REMARK  6 active torsions:
REMARK  status: ('A' for Active; 'I' for Inactive)
REMARK    1  A    between atoms: C_2  and  O_3 
REMARK    2  A    between atoms: O_3  and  C_4 
REMARK    3  A    between atoms: C_5  and  C_6 
REMARK       I    between atoms: C_6  and  N_7 
REMARK    4  A    between atoms: N_7  and  C_8 
REMARK    5  A    between atoms: N_9  and  C_10 
REMARK    6  A    between atoms: C_22  and  C_23 
ROOT
HETATM    1  C   UNL     1      27.383  43.139  52.020  1.00  0.00     0.152 A 
HETATM    2  N   UNL     1      28.363  42.165  51.903  1.00  0.00    -0.044 N 
HETATM    3  N   UNL     1      29.333  42.282  52.859  1.00  0.00    -0.148 NA
HETATM    4  C   UNL     1      28.954  43.353  53.569  1.00  0.00     0.115 A 
HETATM    5  C   UNL     1      27.769  43.936  53.072  1.00  0.00     0.087 A 
ENDROOT
BRANCH   1   6
HETATM    6  N   UNL     1      26.269  43.161  51.196  1.00  0.00    -0.307 N 
HETATM    7  C   UNL     1      26.198  43.898  50.033  1.00  0.00     0.261 C 
HETATM    8  O   UNL     1      27.115  44.454  49.444  1.00  0.00    -0.267 OA
HETATM    9  H   UNL     1      25.441  42.655  51.512  1.00  0.00     0.170 HD
BRANCH   7  10
HETATM   10  C   UNL     1      24.825  43.965  49.482  1.00  0.00     0.076 A 
HETATM   11  C   UNL     1      24.074  45.126  49.751  1.00  0.00     0.085 A 
HETATM   12  C   UNL     1      22.771  45.207  49.269  1.00  0.00     0.039 A 
HETATM   13  C   UNL     1      22.224  44.144  48.544  1.00  0.00     0.015 A 
HETATM   14  C   UNL     1      22.963  42.979  48.282  1.00  0.00    -0.025 A 
HETATM   15  C   UNL     1      24.295  42.874  48.749  1.00  0.00    -0.007 A 
HETATM   16  C   UNL     1      22.387  41.917  47.567  1.00  0.00     0.012 A 
HETATM   17  C   UNL     1      25.007  41.685  48.465  1.00  0.00     0.013 A 
HETATM   18  C   UNL     1      24.418  40.636  47.755  1.00  0.00     0.001 A 
HETATM   19  C   UNL     1      23.108  40.752  47.308  1.00  0.00     0.001 A 
BRANCH  11  20
HETATM   20  O   UNL     1      24.689  46.092  50.501  1.00  0.00    -0.350 OA
BRANCH  20  21
HETATM   21  C   UNL     1      24.746  47.418  49.982  1.00  0.00     0.171 C 
HETATM   22  C   UNL     1      26.204  47.840  49.966  1.00  0.00     0.034 C 
ENDBRANCH  20  21
ENDBRANCH  11  20
ENDBRANCH   7  10
ENDBRANCH   1   6
BRANCH   2  23
HETATM   23  C   UNL     1      28.446  41.136  50.944  1.00  0.00     0.732 A 
HETATM   24  N   UNL     1      28.079  41.285  49.710  1.00  0.00    -0.067 NA
HETATM   25  C   UNL     1      28.253  40.194  48.888  1.00  0.00     0.065 A 
HETATM   26  C   UNL     1      28.756  39.013  49.294  1.00  0.00     0.036 A 
HETATM   27  C   UNL     1      27.863  40.420  47.444  1.00  0.00     0.060 C 
HETATM   28  C   UNL     1      28.952  37.822  48.402  1.00  0.00     0.046 C 
HETATM   29  C   UNL     1      29.151  38.877  50.718  1.00  0.00     0.268 A 
HETATM   30  C   UNL     1      28.258  37.968  47.047  1.00  0.00     0.005 C 
HETATM   31  C   UNL     1      28.435  39.374  46.486  1.00  0.00     0.006 C 
HETATM   32  O   UNL     1      29.617  37.839  51.172  1.00  0.00    -0.267 OA
HETATM   33  N   UNL     1      28.963  39.990  51.475  1.00  0.00    -0.152 N 
HETATM   34  H   UNL     1      29.222  39.970  52.456  1.00  0.00     0.188 HD
ENDBRANCH   2  23
BRANCH   4  35
HETATM   35  C   UNL     1      29.707  43.838  54.763  1.00  0.00     0.105 A 
HETATM   36  O   UNL     1      29.504  45.048  55.369  1.00  0.00    -0.320 OA
HETATM   37  C   UNL     1      30.357  45.122  56.422  1.00  0.00     0.142 A 
HETATM   38  C   UNL     1      31.113  43.978  56.511  1.00  0.00     0.027 A 
HETATM   39  C   UNL     1      30.696  43.149  55.440  1.00  0.00     0.041 A 
ENDBRANCH   4  35
TORSDOF 6
ENDMDL
MODEL 6
REMARK VINA RESULT:      -9.4      2.117      7.497
REMARK  6 active torsions:
REMARK  status: ('A' for Active; 'I' for Inactive)
REMARK    1  A    between atoms: C_2  and  O_3 
REMARK    2  A    between atoms: O_3  and  C_4 
REMARK    3  A    between atoms: C_5  and  C_6 
REMARK       I    between atoms: C_6  and  N_7 
REMARK    4  A    between atoms: N_7  and  C_8 
REMARK    5  A    between atoms: N_9  and  C_10 
REMARK    6  A    between atoms: C_22  and  C_23 
ROOT
HETATM    1  C   UNL     1      28.255  42.566  51.805  1.00  0.00     0.152 A 
HETATM    2  N   UNL     1      27.515  43.715  52.043  1.00  0.00    -0.044 N 
HETATM    3  N   UNL     1      27.917  44.372  53.171  1.00  0.00    -0.148 NA
HETATM    4  C   UNL     1      28.911  43.610  53.648  1.00  0.00     0.115 A 
HETATM    5  C   UNL     1      29.139  42.466  52.854  1.00  0.00     0.087 A 
ENDROOT
BRANCH   1   6
HETATM    6  N   UNL     1      28.060  41.788  50.676  1.00  0.00    -0.307 N 
HETATM    7  C   UNL     1      27.216  40.698  50.639  1.00  0.00     0.261 C 
HETATM    8  O   UNL     1      26.380  40.372  51.470  1.00  0.00    -0.267 OA
HETATM    9  H   UNL     1      28.627  42.002  49.855  1.00  0.00     0.170 HD
BRANCH   7  10
HETATM   10  C   UNL     1      27.386  39.885  49.413  1.00  0.00     0.076 A 
HETATM   11  C   UNL     1      28.413  38.920  49.412  1.00  0.00     0.085 A 
HETATM   12  C   UNL     1      28.614  38.159  48.264  1.00  0.00     0.039 A 
HETATM   13  C   UNL     1      27.815  38.365  47.136  1.00  0.00     0.015 A 
HETATM   14  C   UNL     1      26.797  39.333  47.127  1.00  0.00    -0.025 A 
HETATM   15  C   UNL     1      26.561  40.113  48.283  1.00  0.00    -0.007 A 
HETATM   16  C   UNL     1      26.019  39.535  45.976  1.00  0.00     0.012 A 
HETATM   17  C   UNL     1      25.527  41.077  48.235  1.00  0.00     0.013 A 
HETATM   18  C   UNL     1      24.763  41.268  47.081  1.00  0.00     0.001 A 
HETATM   19  C   UNL     1      25.011  40.499  45.952  1.00  0.00     0.001 A 
BRANCH  11  20
HETATM   20  O   UNL     1      29.162  38.823  50.553  1.00  0.00    -0.350 OA
BRANCH  20  21
HETATM   21  C   UNL     1      30.234  37.884  50.581  1.00  0.00     0.171 C 
HETATM   22  C   UNL     1      29.812  36.734  51.478  1.00  0.00     0.034 C 
ENDBRANCH  20  21
ENDBRANCH  11  20
ENDBRANCH   7  10
ENDBRANCH   1   6
BRANCH   2  23
HETATM   23  C   UNL     1      26.450  44.228  51.276  1.00  0.00     0.732 A 
HETATM   24  N   UNL     1      25.396  43.536  50.973  1.00  0.00    -0.067 NA
HETATM   25  C   UNL     1      24.428  44.191  50.244  1.00  0.00     0.065 A 
HETATM   26  C   UNL     1      24.527  45.469  49.831  1.00  0.00     0.036 A 
HETATM   27  C   UNL     1      23.190  43.372  49.955  1.00  0.00     0.060 C 
HETATM   28  C   UNL     1      23.475  46.189  49.039  1.00  0.00     0.046 C 
HETATM   29  C   UNL     1      25.756  46.222  50.183  1.00  0.00     0.268 A 
HETATM   30  C   UNL     1      22.395  45.255  48.488  1.00  0.00     0.005 C 
HETATM   31  C   UNL     1      21.988  44.213  49.524  1.00  0.00     0.006 C 
HETATM   32  O   UNL     1      25.929  47.388  49.849  1.00  0.00    -0.267 OA
HETATM   33  N   UNL     1      26.668  45.525  50.910  1.00  0.00    -0.152 N 
HETATM   34  H   UNL     1      27.528  45.983  51.195  1.00  0.00     0.188 HD
ENDBRANCH   2  23
BRANCH   4  35
HETATM   35  C   UNL     1      29.689  43.970  54.868  1.00  0.00     0.105 A 
HETATM   36  O   UNL     1      29.523  45.126  55.582  1.00  0.00    -0.320 OA
HETATM   37  C   UNL     1      30.390  45.087  56.625  1.00  0.00     0.142 A 
HETATM   38  C   UNL     1      31.120  43.923  56.602  1.00  0.00     0.027 A 
HETATM   39  C   UNL     1      30.670  43.202  55.468  1.00  0.00     0.041 A 
ENDBRANCH   4  35
TORSDOF 6
ENDMDL
MODEL 7
REMARK VINA RESULT:      -9.3      3.192      8.123
REMARK  6 active torsions:
REMARK  status: ('A' for Active; 'I' for Inactive)
REMARK    1  A    between atoms: C_2  and  O_3 
REMARK    2  A    between atoms: O_3  and  C_4 
REMARK    3  A    between atoms: C_5  and  C_6 
REMARK       I    between atoms: C_6  and  N_7 
REMARK    4  A    between atoms: N_7  and  C_8 
REMARK    5  A    between atoms: N_9  and  C_10 
REMARK    6  A    between atoms: C_22  and  C_23 
ROOT
HETATM    1  C   UNL     1      25.416  44.499  50.420  1.00  0.00     0.152 A 
HETATM    2  N   UNL     1      25.719  45.830  50.665  1.00  0.00    -0.044 N 
HETATM    3  N   UNL     1      26.626  45.983  51.676  1.00  0.00    -0.148 NA
HETATM    4  C   UNL     1      26.876  44.728  52.072  1.00  0.00     0.115 A 
HETATM    5  C   UNL     1      26.130  43.776  51.346  1.00  0.00     0.087 A 
ENDROOT
BRANCH   1   6
HETATM    6  N   UNL     1      24.572  44.117  49.390  1.00  0.00    -0.307 N 
HETATM    7  C   UNL     1      23.293  43.641  49.591  1.00  0.00     0.261 C 
HETATM    8  O   UNL     1      22.638  43.673  50.623  1.00  0.00    -0.267 OA
HETATM    9  H   UNL     1      24.952  44.130  48.443  1.00  0.00     0.170 HD
BRANCH   7  10
HETATM   10  C   UNL     1      22.703  43.055  48.365  1.00  0.00     0.076 A 
HETATM   11  C   UNL     1      23.102  41.750  48.013  1.00  0.00     0.085 A 
HETATM   12  C   UNL     1      22.585  41.183  46.852  1.00  0.00     0.039 A 
HETATM   13  C   UNL     1      21.697  41.908  46.052  1.00  0.00     0.015 A 
HETATM   14  C   UNL     1      21.305  43.213  46.391  1.00  0.00    -0.025 A 
HETATM   15  C   UNL     1      21.804  43.811  47.572  1.00  0.00    -0.007 A 
HETATM   16  C   UNL     1      20.425  43.928  45.563  1.00  0.00     0.012 A 
HETATM   17  C   UNL     1      21.384  45.126  47.880  1.00  0.00     0.013 A 
HETATM   18  C   UNL     1      20.512  45.826  47.043  1.00  0.00     0.001 A 
HETATM   19  C   UNL     1      20.034  45.228  45.885  1.00  0.00     0.001 A 
BRANCH  11  20
HETATM   20  O   UNL     1      24.004  41.141  48.844  1.00  0.00    -0.350 OA
BRANCH  20  21
HETATM   21  C   UNL     1      25.250  40.719  48.297  1.00  0.00     0.171 C 
HETATM   22  C   UNL     1      26.215  40.523  49.452  1.00  0.00     0.034 C 
ENDBRANCH  20  21
ENDBRANCH  11  20
ENDBRANCH   7  10
ENDBRANCH   1   6
BRANCH   2  23
HETATM   23  C   UNL     1      25.204  46.967  50.010  1.00  0.00     0.732 A 
HETATM   24  N   UNL     1      23.935  47.167  49.829  1.00  0.00    -0.067 NA
HETATM   25  C   UNL     1      23.589  48.342  49.200  1.00  0.00     0.065 A 
HETATM   26  C   UNL     1      24.476  49.257  48.765  1.00  0.00     0.036 A 
HETATM   27  C   UNL     1      22.101  48.567  49.051  1.00  0.00     0.060 C 
HETATM   28  C   UNL     1      24.106  50.541  48.082  1.00  0.00     0.046 C 
HETATM   29  C   UNL     1      25.920  48.985  48.978  1.00  0.00     0.268 A 
HETATM   30  C   UNL     1      22.636  50.592  47.658  1.00  0.00     0.005 C 
HETATM   31  C   UNL     1      21.731  50.018  48.742  1.00  0.00     0.006 C 
HETATM   32  O   UNL     1      26.794  49.763  48.615  1.00  0.00    -0.267 OA
HETATM   33  N   UNL     1      26.196  47.814  49.611  1.00  0.00    -0.152 N 
HETATM   34  H   UNL     1      27.163  47.570  49.798  1.00  0.00     0.188 HD
ENDBRANCH   2  23
BRANCH   4  35
HETATM   35  C   UNL     1      27.858  44.401  53.147  1.00  0.00     0.105 A 
HETATM   36  O   UNL     1      28.124  45.203  54.224  1.00  0.00    -0.320 OA
HETATM   37  C   UNL     1      29.052  44.567  54.983  1.00  0.00     0.142 A 
HETATM   38  C   UNL     1      29.395  43.362  54.417  1.00  0.00     0.027 A 
HETATM   39  C   UNL     1      28.627  43.255  53.231  1.00  0.00     0.041 A 
ENDBRANCH   4  35
TORSDOF 6
ENDMDL
MODEL 8
REMARK VINA RESULT:      -9.2      2.689      7.431
REMARK  6 active torsions:
REMARK  status: ('A' for Active; 'I' for Inactive)
REMARK    1  A    between atoms: C_2  and  O_3 
REMARK    2  A    between atoms: O_3  and  C_4 
REMARK    3  A    between atoms: C_5  and  C_6 
REMARK       I    between atoms: C_6  and  N_7 
REMARK    4  A    between atoms: N_7  and  C_8 
REMARK    5  A    between atoms: N_9  and  C_10 
REMARK    6  A    between atoms: C_22  and  C_23 
ROOT
HETATM    1  C   UNL     1      26.107  45.147  51.342  1.00  0.00     0.152 A 
HETATM    2  N   UNL     1      26.057  46.529  51.453  1.00  0.00    -0.044 N 
HETATM    3  N   UNL     1      26.645  46.983  52.601  1.00  0.00    -0.148 NA
HETATM    4  C   UNL     1      27.052  45.864  53.215  1.00  0.00     0.115 A 
HETATM    5  C   UNL     1      26.717  44.701  52.491  1.00  0.00     0.087 A 
ENDROOT
BRANCH   1   6
HETATM    6  N   UNL     1      25.632  44.484  50.222  1.00  0.00    -0.307 N 
HETATM    7  C   UNL     1      24.655  43.513  50.270  1.00  0.00     0.261 C 
HETATM    8  O   UNL     1      23.926  43.233  51.212  1.00  0.00    -0.267 OA
HETATM    9  H   UNL     1      26.085  44.687  49.330  1.00  0.00     0.170 HD
BRANCH   7  10
HETATM   10  C   UNL     1      24.518  42.776  48.992  1.00  0.00     0.076 A 
HETATM   11  C   UNL     1      23.719  43.361  47.990  1.00  0.00     0.085 A 
HETATM   12  C   UNL     1      23.550  42.680  46.787  1.00  0.00     0.039 A 
HETATM   13  C   UNL     1      24.156  41.435  46.595  1.00  0.00     0.015 A 
HETATM   14  C   UNL     1      24.944  40.842  47.595  1.00  0.00    -0.025 A 
HETATM   15  C   UNL     1      25.144  41.517  48.822  1.00  0.00    -0.007 A 
HETATM   16  C   UNL     1      25.528  39.582  47.385  1.00  0.00     0.012 A 
HETATM   17  C   UNL     1      25.945  40.887  49.804  1.00  0.00     0.013 A 
HETATM   18  C   UNL     1      26.516  39.632  49.581  1.00  0.00     0.001 A 
HETATM   19  C   UNL     1      26.306  38.980  48.374  1.00  0.00     0.001 A 
BRANCH  11  20
HETATM   20  O   UNL     1      23.141  44.564  48.292  1.00  0.00    -0.350 OA
BRANCH  20  21
HETATM   21  C   UNL     1      21.811  44.808  47.842  1.00  0.00     0.171 C 
HETATM   22  C   UNL     1      21.857  45.998  46.901  1.00  0.00     0.034 C 
ENDBRANCH  20  21
ENDBRANCH  11  20
ENDBRANCH   7  10
ENDBRANCH   1   6
BRANCH   2  23
HETATM   23  C   UNL     1      25.486  47.447  50.549  1.00  0.00     0.732 A 
HETATM   24  N   UNL     1      24.207  47.573  50.380  1.00  0.00    -0.067 NA
HETATM   25  C   UNL     1      23.805  48.537  49.483  1.00  0.00     0.065 A 
HETATM   26  C   UNL     1      24.649  49.321  48.785  1.00  0.00     0.036 A 
HETATM   27  C   UNL     1      22.306  48.693  49.349  1.00  0.00     0.060 C 
HETATM   28  C   UNL     1      24.217  50.376  47.810  1.00  0.00     0.046 C 
HETATM   29  C   UNL     1      26.106  49.136  48.995  1.00  0.00     0.268 A 
HETATM   30  C   UNL     1      22.731  50.292  47.454  1.00  0.00     0.005 C 
HETATM   31  C   UNL     1      21.885  50.007  48.690  1.00  0.00     0.006 C 
HETATM   32  O   UNL     1      26.944  49.805  48.403  1.00  0.00    -0.267 OA
HETATM   33  N   UNL     1      26.439  48.176  49.898  1.00  0.00    -0.152 N 
HETATM   34  H   UNL     1      27.419  48.004  50.099  1.00  0.00     0.188 HD
ENDBRANCH   2  23
BRANCH   4  35
HETATM   35  C   UNL     1      27.796  45.878  54.508  1.00  0.00     0.105 A 
HETATM   36  O   UNL     1      27.533  46.732  55.545  1.00  0.00    -0.320 OA
HETATM   37  C   UNL     1      28.399  46.433  56.546  1.00  0.00     0.142 A 
HETATM   38  C   UNL     1      29.222  45.396  56.177  1.00  0.00     0.027 A 
HETATM   39  C   UNL     1      28.836  45.039  54.862  1.00  0.00     0.041 A 
ENDBRANCH   4  35
TORSDOF 6
ENDMDL
MODEL 9
REMARK VINA RESULT:      -9.1      2.615      6.583
REMARK  6 active torsions:
REMARK  status: ('A' for Active; 'I' for Inactive)
REMARK    1  A    between atoms: C_2  and  O_3 
REMARK    2  A    between atoms: O_3  and  C_4 
REMARK    3  A    between atoms: C_5  and  C_6 
REMARK       I    between atoms: C_6  and  N_7 
REMARK    4  A    between atoms: N_7  and  C_8 
REMARK    5  A    between atoms: N_9  and  C_10 
REMARK    6  A    between atoms: C_22  and  C_23 
ROOT
HETATM    1  C   UNL     1      24.275  42.716  49.323  1.00  0.00     0.152 A 
HETATM    2  N   UNL     1      23.899  43.981  49.747  1.00  0.00    -0.044 N 
HETATM    3  N   UNL     1      22.810  44.457  49.072  1.00  0.00    -0.148 NA
HETATM    4  C   UNL     1      22.518  43.477  48.206  1.00  0.00     0.115 A 
HETATM    5  C   UNL     1      23.413  42.391  48.303  1.00  0.00     0.087 A 
ENDROOT
BRANCH   1   6
HETATM    6  N   UNL     1      25.311  42.019  49.923  1.00  0.00    -0.307 N 
HETATM    7  C   UNL     1      26.641  42.227  49.626  1.00  0.00     0.261 C 
HETATM    8  O   UNL     1      27.128  43.149  48.986  1.00  0.00    -0.267 OA
HETATM    9  H   UNL     1      25.060  41.268  50.568  1.00  0.00     0.170 HD
BRANCH   7  10
HETATM   10  C   UNL     1      27.524  41.183  50.197  1.00  0.00     0.076 A 
HETATM   11  C   UNL     1      27.997  41.381  51.509  1.00  0.00     0.085 A 
HETATM   12  C   UNL     1      28.850  40.430  52.063  1.00  0.00     0.039 A 
HETATM   13  C   UNL     1      29.233  39.312  51.317  1.00  0.00     0.015 A 
HETATM   14  C   UNL     1      28.774  39.116  50.004  1.00  0.00    -0.025 A 
HETATM   15  C   UNL     1      27.896  40.058  49.420  1.00  0.00    -0.007 A 
HETATM   16  C   UNL     1      29.187  37.994  49.268  1.00  0.00     0.012 A 
HETATM   17  C   UNL     1      27.456  39.825  48.096  1.00  0.00     0.013 A 
HETATM   18  C   UNL     1      27.878  38.706  47.375  1.00  0.00     0.001 A 
HETATM   19  C   UNL     1      28.744  37.792  47.960  1.00  0.00     0.001 A 
BRANCH  11  20
HETATM   20  O   UNL     1      27.593  42.527  52.140  1.00  0.00    -0.350 OA
BRANCH  20  21
HETATM   21  C   UNL     1      28.541  43.576  52.311  1.00  0.00     0.171 C 
HETATM   22  C   UNL     1      29.139  43.432  53.699  1.00  0.00     0.034 C 
ENDBRANCH  20  21
ENDBRANCH  11  20
ENDBRANCH   7  10
ENDBRANCH   1   6
BRANCH   2  23
HETATM   23  C   UNL     1      24.504  44.772  50.745  1.00  0.00     0.732 A 
HETATM   24  N   UNL     1      24.670  44.368  51.966  1.00  0.00    -0.067 NA
HETATM   25  C   UNL     1      25.308  45.246  52.814  1.00  0.00     0.065 A 
HETATM   26  C   UNL     1      25.740  46.469  52.453  1.00  0.00     0.036 A 
HETATM   27  C   UNL     1      25.532  44.722  54.216  1.00  0.00     0.060 C 
HETATM   28  C   UNL     1      26.438  47.428  53.372  1.00  0.00     0.046 C 
HETATM   29  C   UNL     1      25.517  46.901  51.051  1.00  0.00     0.268 A 
HETATM   30  C   UNL     1      26.361  47.013  54.843  1.00  0.00     0.005 C 
HETATM   31  C   UNL     1      26.578  45.513  55.003  1.00  0.00     0.006 C 
HETATM   32  O   UNL     1      25.877  47.996  50.637  1.00  0.00    -0.267 OA
HETATM   33  N   UNL     1      24.891  45.988  50.261  1.00  0.00    -0.152 N 
HETATM   34  H   UNL     1      24.717  46.214  49.287  1.00  0.00     0.188 HD
ENDBRANCH   2  23
BRANCH   4  35
HETATM   35  C   UNL     1      21.354  43.544  47.275  1.00  0.00     0.105 A 
HETATM   36  O   UNL     1      20.180  44.191  47.547  1.00  0.00    -0.320 OA
HETATM   37  C   UNL     1      19.377  44.046  46.462  1.00  0.00     0.142 A 
HETATM   38  C   UNL     1      20.012  43.314  45.487  1.00  0.00     0.027 A 
HETATM   39  C   UNL     1      21.287  42.987  46.011  1.00  0.00     0.041 A 
ENDBRANCH   4  35
TORSDOF 6
ENDMDL
MODEL 10
REMARK VINA RESULT:      -9.0      2.136      6.778
REMARK  6 active torsions:
REMARK  status: ('A' for Active; 'I' for Inactive)
REMARK    1  A    between atoms: C_2  and  O_3 
REMARK    2  A    between atoms: O_3  and  C_4 
REMARK    3  A    between atoms: C_5  and  C_6 
REMARK       I    between atoms: C_6  and  N_7 
REMARK    4  A    between atoms: N_7  and  C_8 
REMARK    5  A    between atoms: N_9  and  C_10 
REMARK    6  A    between atoms: C_22  and  C_23 
ROOT
HETATM    1  C   UNL     1      27.835  43.716  52.232  1.00  0.00     0.152 A 
HETATM    2  N   UNL     1      26.973  44.794  52.375  1.00  0.00    -0.044 N 
HETATM    3  N   UNL     1      27.182  45.480  53.539  1.00  0.00    -0.148 NA
HETATM    4  C   UNL     1      28.179  44.808  54.131  1.00  0.00     0.115 A 
HETATM    5  C   UNL     1      28.597  43.692  53.376  1.00  0.00     0.087 A 
ENDROOT
BRANCH   1   6
HETATM    6  N   UNL     1      27.840  42.928  51.093  1.00  0.00    -0.307 N 
HETATM    7  C   UNL     1      27.155  41.737  50.988  1.00  0.00     0.261 C 
HETATM    8  O   UNL     1      26.303  41.296  51.747  1.00  0.00    -0.267 OA
HETATM    9  H   UNL     1      28.441  43.223  50.322  1.00  0.00     0.170 HD
BRANCH   7  10
HETATM   10  C   UNL     1      27.535  40.963  49.783  1.00  0.00     0.076 A 
HETATM   11  C   UNL     1      26.936  41.329  48.562  1.00  0.00     0.085 A 
HETATM   12  C   UNL     1      27.253  40.604  47.417  1.00  0.00     0.039 A 
HETATM   13  C   UNL     1      28.141  39.527  47.493  1.00  0.00     0.015 A 
HETATM   14  C   UNL     1      28.733  39.150  48.709  1.00  0.00    -0.025 A 
HETATM   15  C   UNL     1      28.439  39.877  49.887  1.00  0.00    -0.007 A 
HETATM   16  C   UNL     1      29.608  38.053  48.764  1.00  0.00     0.012 A 
HETATM   17  C   UNL     1      29.055  39.466  51.092  1.00  0.00     0.013 A 
HETATM   18  C   UNL     1      29.921  38.371  51.131  1.00  0.00     0.001 A 
HETATM   19  C   UNL     1      30.196  37.664  49.968  1.00  0.00     0.001 A 
BRANCH  11  20
HETATM   20  O   UNL     1      26.053  42.374  48.602  1.00  0.00    -0.350 OA
BRANCH  20  21
HETATM   21  C   UNL     1      24.841  42.265  47.860  1.00  0.00     0.171 C 
HETATM   22  C   UNL     1      23.989  41.200  48.527  1.00  0.00     0.034 C 
ENDBRANCH  20  21
ENDBRANCH  11  20
ENDBRANCH   7  10
ENDBRANCH   1   6
BRANCH   2  23
HETATM   23  C   UNL     1      25.962  45.213  51.488  1.00  0.00     0.732 A 
HETATM   24  N   UNL     1      24.991  44.445  51.104  1.00  0.00    -0.067 NA
HETATM   25  C   UNL     1      24.064  45.012  50.260  1.00  0.00     0.065 A 
HETATM   26  C   UNL     1      24.123  46.282  49.815  1.00  0.00     0.036 A 
HETATM   27  C   UNL     1      22.917  44.104  49.875  1.00  0.00     0.060 C 
HETATM   28  C   UNL     1      23.114  46.908  48.897  1.00  0.00     0.046 C 
HETATM   29  C   UNL     1      25.258  47.126  50.264  1.00  0.00     0.268 A 
HETATM   30  C   UNL     1      22.159  45.889  48.272  1.00  0.00     0.005 C 
HETATM   31  C   UNL     1      21.714  44.851  49.296  1.00  0.00     0.006 C 
HETATM   32  O   UNL     1      25.389  48.291  49.908  1.00  0.00    -0.267 OA
HETATM   33  N   UNL     1      26.134  46.511  51.102  1.00  0.00    -0.152 N 
HETATM   34  H   UNL     1      26.928  47.034  51.457  1.00  0.00     0.188 HD
ENDBRANCH   2  23
BRANCH   4  35
HETATM   35  C   UNL     1      28.776  45.231  55.431  1.00  0.00     0.105 A 
HETATM   36  O   UNL     1      28.114  45.944  56.393  1.00  0.00    -0.320 OA
HETATM   37  C   UNL     1      28.973  46.122  57.429  1.00  0.00     0.142 A 
HETATM   38  C   UNL     1      30.186  45.535  57.156  1.00  0.00     0.027 A 
HETATM   39  C   UNL     1      30.061  44.961  55.866  1.00  0.00     0.041 A 
ENDBRANCH   4  35
TORSDOF 6
ENDMDL
