MODEL 1
REMARK VINA RESULT:      -9.2      0.000      0.000
REMARK  7 active torsions:
REMARK  status: ('A' for Active; 'I' for Inactive)
REMARK    1  A    between atoms: C_2  and  C_3 
REMARK    2  A    between atoms: C_6  and  O_7 
REMARK    3  A    between atoms: O_7  and  C_8 
REMARK    4  A    between atoms: C_8  and  C_9 
REMARK    5  A    between atoms: C_9  and  C_10 
REMARK       I    between atoms: C_10  and  N_11 
REMARK    6  A    between atoms: N_11  and  C_12 
REMARK    7  A    between atoms: C_19  and  C_20 
REMARK       I    between atoms: C_20  and  N_21 
ROOT
HETATM    1  C   UNL     1      25.150  44.685  51.251  1.00  0.00     0.224 C 
HETATM    2  N   UNL     1      25.430  46.021  51.466  1.00  0.00    -0.327 N 
HETATM    3  O   UNL     1      24.772  44.182  50.197  1.00  0.00    -0.273 OA
HETATM    4  H   UNL     1      25.642  46.283  52.426  1.00  0.00     0.169 HD
ENDROOT
BRANCH   2   5
HETATM    5  C   UNL     1      25.370  47.077  50.535  1.00  0.00     0.035 A 
HETATM    6  C   UNL     1      24.175  47.564  49.988  1.00  0.00     0.046 A 
HETATM    7  C   UNL     1      24.219  48.613  49.043  1.00  0.00     0.030 A 
HETATM    8  C   UNL     1      25.452  49.152  48.696  1.00  0.00     0.063 A 
HETATM    9  C   UNL     1      23.268  49.334  48.260  1.00  0.00     0.156 A 
HETATM   10  N   UNL     1      25.174  50.139  47.794  1.00  0.00    -0.277 N 
HETATM   11  C   UNL     1      26.660  48.693  49.224  1.00  0.00     0.034 A 
HETATM   12  H   UNL     1      25.837  50.753  47.333  1.00  0.00     0.189 HD
HETATM   13  N   UNL     1      23.872  50.276  47.498  1.00  0.00    -0.168 NA
HETATM   14  C   UNL     1      26.593  47.637  50.139  1.00  0.00     0.032 A 
BRANCH   9  15
HETATM   15  C   UNL     1      21.812  49.138  48.209  1.00  0.00     0.270 C 
HETATM   16  N   UNL     1      21.410  48.156  47.344  1.00  0.00    -0.365 N 
HETATM   17  H   UNL     1      22.119  47.640  46.835  1.00  0.00     0.159 HD
HETATM   18  H   UNL     1      20.432  47.930  47.268  1.00  0.00     0.159 HD
HETATM   19  O   UNL     1      20.997  49.766  48.875  1.00  0.00    -0.266 OA
ENDBRANCH   9  15
ENDBRANCH   2   5
BRANCH   1  20
HETATM   20  C   UNL     1      25.388  43.808  52.468  1.00  0.00     0.130 C 
BRANCH  20  21
HETATM   21  C   UNL     1      26.767  43.161  52.464  1.00  0.00     0.185 C 
BRANCH  21  22
HETATM   22  O   UNL     1      27.738  44.219  52.417  1.00  0.00    -0.351 OA
BRANCH  22  23
HETATM   23  C   UNL     1      28.645  44.193  53.439  1.00  0.00     0.068 A 
HETATM   24  C   UNL     1      28.458  45.134  54.449  1.00  0.00     0.037 A 
HETATM   25  C   UNL     1      29.320  45.167  55.547  1.00  0.00     0.010 A 
HETATM   26  C   UNL     1      30.364  44.240  55.665  1.00  0.00    -0.055 A 
HETATM   27  C   UNL     1      30.527  43.284  54.649  1.00  0.00     0.010 A 
HETATM   28  C   UNL     1      29.670  43.257  53.543  1.00  0.00     0.037 A 
BRANCH  26  29
HETATM   29  C   UNL     1      31.317  44.253  56.847  1.00  0.00     0.010 C 
HETATM   30  C   UNL     1      31.786  42.847  57.231  1.00  0.00     0.015 C 
HETATM   31  C   UNL     1      30.687  44.962  58.048  1.00  0.00     0.015 C 
ENDBRANCH  26  29
ENDBRANCH  22  23
ENDBRANCH  21  22
ENDBRANCH  20  21
ENDBRANCH   1  20
TORSDOF 7
ENDMDL
MODEL 2
REMARK VINA RESULT:      -8.9      4.637      7.645
REMARK  7 active torsions:
REMARK  status: ('A' for Active; 'I' for Inactive)
REMARK    1  A    between atoms: C_2  and  C_3 
REMARK    2  A    between atoms: C_6  and  O_7 
REMARK    3  A    between atoms: O_7  and  C_8 
REMARK    4  A    between atoms: C_8  and  C_9 
REMARK    5  A    between atoms: C_9  and  C_10 
REMARK       I    between atoms: C_10  and  N_11 
REMARK    6  A    between atoms: N_11  and  C_12 
REMARK    7  A    between atoms: C_19  and  C_20 
REMARK       I    between atoms: C_20  and  N_21 
ROOT
HETATM    1  C   UNL     1      25.480  42.946  50.816  1.00  0.00     0.224 C 
HETATM    2  N   UNL     1      26.772  42.615  50.455  1.00  0.00    -0.327 N 
HETATM    3  O   UNL     1      24.455  42.394  50.432  1.00  0.00    -0.273 OA
HETATM    4  H   UNL     1      27.504  43.236  50.793  1.00  0.00     0.169 HD
ENDROOT
BRANCH   2   5
HETATM    5  C   UNL     1      27.191  41.574  49.601  1.00  0.00     0.035 A 
HETATM    6  C   UNL     1      27.865  40.428  50.047  1.00  0.00     0.046 A 
HETATM    7  C   UNL     1      28.264  39.449  49.110  1.00  0.00     0.030 A 
HETATM    8  C   UNL     1      27.956  39.638  47.769  1.00  0.00     0.063 A 
HETATM    9  C   UNL     1      28.973  38.210  49.155  1.00  0.00     0.156 A 
HETATM   10  N   UNL     1      28.447  38.537  47.125  1.00  0.00    -0.277 N 
HETATM   11  C   UNL     1      27.285  40.765  47.292  1.00  0.00     0.034 A 
HETATM   12  H   UNL     1      28.394  38.332  46.134  1.00  0.00     0.189 HD
HETATM   13  N   UNL     1      29.073  37.657  47.924  1.00  0.00    -0.168 NA
HETATM   14  C   UNL     1      26.921  41.733  48.235  1.00  0.00     0.032 A 
BRANCH   9  15
HETATM   15  C   UNL     1      29.565  37.555  50.330  1.00  0.00     0.270 C 
HETATM   16  N   UNL     1      28.784  36.571  50.873  1.00  0.00    -0.365 N 
HETATM   17  H   UNL     1      27.896  36.358  50.432  1.00  0.00     0.159 HD
HETATM   18  H   UNL     1      29.124  36.044  51.662  1.00  0.00     0.159 HD
HETATM   19  O   UNL     1      30.662  37.826  50.804  1.00  0.00    -0.266 OA
ENDBRANCH   9  15
ENDBRANCH   2   5
BRANCH   1  20
HETATM   20  C   UNL     1      25.400  44.087  51.815  1.00  0.00     0.130 C 
BRANCH  20  21
HETATM   21  C   UNL     1      26.257  43.847  53.050  1.00  0.00     0.185 C 
BRANCH  21  22
HETATM   22  O   UNL     1      27.624  44.089  52.680  1.00  0.00    -0.351 OA
BRANCH  22  23
HETATM   23  C   UNL     1      28.480  44.210  53.739  1.00  0.00     0.068 A 
HETATM   24  C   UNL     1      29.465  43.231  53.846  1.00  0.00     0.037 A 
HETATM   25  C   UNL     1      30.400  43.286  54.881  1.00  0.00     0.010 A 
HETATM   26  C   UNL     1      30.381  44.338  55.807  1.00  0.00    -0.055 A 
HETATM   27  C   UNL     1      29.394  45.328  55.673  1.00  0.00     0.010 A 
HETATM   28  C   UNL     1      28.450  45.268  54.642  1.00  0.00     0.037 A 
BRANCH  26  29
HETATM   29  C   UNL     1      31.385  44.423  56.943  1.00  0.00     0.010 C 
HETATM   30  C   UNL     1      32.012  43.063  57.266  1.00  0.00     0.015 C 
HETATM   31  C   UNL     1      30.748  45.037  58.191  1.00  0.00     0.015 C 
ENDBRANCH  26  29
ENDBRANCH  22  23
ENDBRANCH  21  22
ENDBRANCH  20  21
ENDBRANCH   1  20
TORSDOF 7
ENDMDL
MODEL 3
REMARK VINA RESULT:      -8.6      1.875      2.729
REMARK  7 active torsions:
REMARK  status: ('A' for Active; 'I' for Inactive)
REMARK    1  A    between atoms: C_2  and  C_3 
REMARK    2  A    between atoms: C_6  and  O_7 
REMARK    3  A    between atoms: O_7  and  C_8 
REMARK    4  A    between atoms: C_8  and  C_9 
REMARK    5  A    between atoms: C_9  and  C_10 
REMARK       I    between atoms: C_10  and  N_11 
REMARK    6  A    between atoms: N_11  and  C_12 
REMARK    7  A    between atoms: C_19  and  C_20 
REMARK       I    between atoms: C_20  and  N_21 
ROOT
HETATM    1  C   UNL     1      26.440  45.582  49.780  1.00  0.00     0.224 C 
HETATM    2  N   UNL     1      25.107  45.217  49.768  1.00  0.00    -0.327 N 
HETATM    3  O   UNL     1      26.923  46.584  49.264  1.00  0.00    -0.273 OA
HETATM    4  H   UNL     1      24.891  44.305  50.165  1.00  0.00     0.169 HD
ENDROOT
BRANCH   2   5
HETATM    5  C   UNL     1      24.025  45.914  49.192  1.00  0.00     0.035 A 
HETATM    6  C   UNL     1      23.745  47.263  49.451  1.00  0.00     0.046 A 
HETATM    7  C   UNL     1      22.623  47.868  48.843  1.00  0.00     0.030 A 
HETATM    8  C   UNL     1      21.837  47.112  47.981  1.00  0.00     0.063 A 
HETATM    9  C   UNL     1      22.002  49.153  48.876  1.00  0.00     0.156 A 
HETATM   10  N   UNL     1      20.858  47.960  47.546  1.00  0.00    -0.277 N 
HETATM   11  C   UNL     1      22.090  45.769  47.700  1.00  0.00     0.034 A 
HETATM   12  H   UNL     1      20.110  47.750  46.895  1.00  0.00     0.189 HD
HETATM   13  N   UNL     1      20.918  49.196  48.067  1.00  0.00    -0.168 NA
HETATM   14  C   UNL     1      23.193  45.184  48.334  1.00  0.00     0.032 A 
BRANCH   9  15
HETATM   15  C   UNL     1      22.405  50.326  49.666  1.00  0.00     0.270 C 
HETATM   16  N   UNL     1      21.490  50.703  50.611  1.00  0.00    -0.365 N 
HETATM   17  H   UNL     1      20.642  50.157  50.710  1.00  0.00     0.159 HD
HETATM   18  H   UNL     1      21.696  51.477  51.222  1.00  0.00     0.159 HD
HETATM   19  O   UNL     1      23.462  50.931  49.531  1.00  0.00    -0.266 OA
ENDBRANCH   9  15
ENDBRANCH   2   5
BRANCH   1  20
HETATM   20  C   UNL     1      27.327  44.625  50.556  1.00  0.00     0.130 C 
BRANCH  20  21
HETATM   21  C   UNL     1      26.629  44.031  51.772  1.00  0.00     0.185 C 
BRANCH  21  22
HETATM   22  O   UNL     1      27.468  42.982  52.281  1.00  0.00    -0.351 OA
BRANCH  22  23
HETATM   23  C   UNL     1      28.283  43.364  53.309  1.00  0.00     0.068 A 
HETATM   24  C   UNL     1      29.511  42.713  53.392  1.00  0.00     0.037 A 
HETATM   25  C   UNL     1      30.421  43.053  54.394  1.00  0.00     0.010 A 
HETATM   26  C   UNL     1      30.127  44.073  55.311  1.00  0.00    -0.055 A 
HETATM   27  C   UNL     1      28.894  44.734  55.201  1.00  0.00     0.010 A 
HETATM   28  C   UNL     1      27.977  44.385  54.203  1.00  0.00     0.037 A 
BRANCH  26  29
HETATM   29  C   UNL     1      31.098  44.464  56.411  1.00  0.00     0.010 C 
HETATM   30  C   UNL     1      31.649  43.246  57.158  1.00  0.00     0.015 C 
HETATM   31  C   UNL     1      30.451  45.452  57.385  1.00  0.00     0.015 C 
ENDBRANCH  26  29
ENDBRANCH  22  23
ENDBRANCH  21  22
ENDBRANCH  20  21
ENDBRANCH   1  20
TORSDOF 7
ENDMDL
MODEL 4
REMARK VINA RESULT:      -8.5      2.849      9.549
REMARK  7 active torsions:
REMARK  status: ('A' for Active; 'I' for Inactive)
REMARK    1  A    between atoms: C_2  and  C_3 
REMARK    2  A    between atoms: C_6  and  O_7 
REMARK    3  A    between atoms: O_7  and  C_8 
REMARK    4  A    between atoms: C_8  and  C_9 
REMARK    5  A    between atoms: C_9  and  C_10 
REMARK       I    between atoms: C_10  and  N_11 
REMARK    6  A    between atoms: N_11  and  C_12 
REMARK    7  A    between atoms: C_19  and  C_20 
REMARK       I    between atoms: C_20  and  N_21 
ROOT
HETATM    1  C   UNL     1      27.024  48.299  49.358  1.00  0.00     0.224 C 
HETATM    2  N   UNL     1      26.252  48.221  50.501  1.00  0.00    -0.327 N 
HETATM    3  O   UNL     1      27.663  47.384  48.848  1.00  0.00    -0.273 OA
HETATM    4  H   UNL     1      25.864  49.099  50.838  1.00  0.00     0.169 HD
ENDROOT
BRANCH   2   5
HETATM    5  C   UNL     1      26.012  47.088  51.305  1.00  0.00     0.035 A 
HETATM    6  C   UNL     1      26.754  46.780  52.454  1.00  0.00     0.046 A 
HETATM    7  C   UNL     1      26.452  45.608  53.182  1.00  0.00     0.030 A 
HETATM    8  C   UNL     1      25.406  44.802  52.752  1.00  0.00     0.063 A 
HETATM    9  C   UNL     1      26.975  44.950  54.336  1.00  0.00     0.156 A 
HETATM   10  N   UNL     1      25.347  43.774  53.651  1.00  0.00    -0.277 N 
HETATM   11  C   UNL     1      24.645  45.081  51.616  1.00  0.00     0.034 A 
HETATM   12  H   UNL     1      24.693  42.999  53.655  1.00  0.00     0.189 HD
HETATM   13  N   UNL     1      26.279  43.823  54.616  1.00  0.00    -0.168 NA
HETATM   14  C   UNL     1      24.979  46.234  50.896  1.00  0.00     0.032 A 
BRANCH   9  15
HETATM   15  C   UNL     1      28.121  45.357  55.162  1.00  0.00     0.270 C 
HETATM   16  N   UNL     1      27.940  46.542  55.822  1.00  0.00    -0.365 N 
HETATM   17  H   UNL     1      27.056  47.026  55.716  1.00  0.00     0.159 HD
HETATM   18  H   UNL     1      28.660  46.884  56.438  1.00  0.00     0.159 HD
HETATM   19  O   UNL     1      29.157  44.715  55.286  1.00  0.00    -0.266 OA
ENDBRANCH   9  15
ENDBRANCH   2   5
BRANCH   1  20
HETATM   20  C   UNL     1      27.005  49.669  48.701  1.00  0.00     0.130 C 
BRANCH  20  21
HETATM   21  C   UNL     1      25.703  49.947  47.963  1.00  0.00     0.185 C 
BRANCH  21  22
HETATM   22  O   UNL     1      24.785  48.894  48.297  1.00  0.00    -0.351 OA
BRANCH  22  23
HETATM   23  C   UNL     1      23.494  49.309  48.473  1.00  0.00     0.068 A 
HETATM   24  C   UNL     1      23.255  50.666  48.274  1.00  0.00     0.037 A 
HETATM   25  C   UNL     1      21.963  51.179  48.407  1.00  0.00     0.010 A 
HETATM   26  C   UNL     1      20.887  50.334  48.712  1.00  0.00    -0.055 A 
HETATM   27  C   UNL     1      21.141  48.965  48.889  1.00  0.00     0.010 A 
HETATM   28  C   UNL     1      22.437  48.453  48.767  1.00  0.00     0.037 A 
BRANCH  26  29
HETATM   29  C   UNL     1      19.471  50.864  48.863  1.00  0.00     0.010 C 
HETATM   30  C   UNL     1      19.363  52.345  48.488  1.00  0.00     0.015 C 
HETATM   31  C   UNL     1      18.946  50.623  50.280  1.00  0.00     0.015 C 
ENDBRANCH  26  29
ENDBRANCH  22  23
ENDBRANCH  21  22
ENDBRANCH  20  21
ENDBRANCH   1  20
TORSDOF 7
ENDMDL
MODEL 5
REMARK VINA RESULT:      -8.5      2.009      2.472
REMARK  7 active torsions:
REMARK  status: ('A' for Active; 'I' for Inactive)
REMARK    1  A    between atoms: C_2  and  C_3 
REMARK    2  A    between atoms: C_6  and  O_7 
REMARK    3  A    between atoms: O_7  and  C_8 
REMARK    4  A    between atoms: C_8  and  C_9 
REMARK    5  A    between atoms: C_9  and  C_10 
REMARK       I    between atoms: C_10  and  N_11 
REMARK    6  A    between atoms: N_11  and  C_12 
REMARK    7  A    between atoms: C_19  and  C_20 
REMARK       I    between atoms: C_20  and  N_21 
ROOT
HETATM    1  C   UNL     1      26.991  42.782  50.333  1.00  0.00     0.224 C 
HETATM    2  N   UNL     1      26.302  43.673  51.133  1.00  0.00    -0.327 N 
HETATM    3  O   UNL     1      27.164  42.877  49.122  1.00  0.00    -0.273 OA
HETATM    4  H   UNL     1      26.174  43.394  52.103  1.00  0.00     0.169 HD
ENDROOT
BRANCH   2   5
HETATM    5  C   UNL     1      25.680  44.878  50.748  1.00  0.00     0.035 A 
HETATM    6  C   UNL     1      24.513  44.937  49.974  1.00  0.00     0.046 A 
HETATM    7  C   UNL     1      23.977  46.194  49.619  1.00  0.00     0.030 A 
HETATM    8  C   UNL     1      24.611  47.345  50.070  1.00  0.00     0.063 A 
HETATM    9  C   UNL     1      22.872  46.661  48.845  1.00  0.00     0.156 A 
HETATM   10  N   UNL     1      23.864  48.383  49.588  1.00  0.00    -0.277 N 
HETATM   11  C   UNL     1      25.772  47.323  50.845  1.00  0.00     0.034 A 
HETATM   12  H   UNL     1      24.027  49.374  49.730  1.00  0.00     0.189 HD
HETATM   13  N   UNL     1      22.813  48.013  48.840  1.00  0.00    -0.168 NA
HETATM   14  C   UNL     1      26.298  46.065  51.162  1.00  0.00     0.032 A 
BRANCH   9  15
HETATM   15  C   UNL     1      21.890  45.857  48.104  1.00  0.00     0.270 C 
HETATM   16  N   UNL     1      20.903  45.321  48.885  1.00  0.00    -0.365 N 
HETATM   17  H   UNL     1      20.907  45.525  49.878  1.00  0.00     0.159 HD
HETATM   18  H   UNL     1      20.167  44.782  48.458  1.00  0.00     0.159 HD
HETATM   19  O   UNL     1      21.909  45.670  46.892  1.00  0.00    -0.266 OA
ENDBRANCH   9  15
ENDBRANCH   2   5
BRANCH   1  20
HETATM   20  C   UNL     1      27.595  41.617  51.097  1.00  0.00     0.130 C 
BRANCH  20  21
HETATM   21  C   UNL     1      27.912  41.965  52.545  1.00  0.00     0.185 C 
BRANCH  21  22
HETATM   22  O   UNL     1      29.239  42.515  52.575  1.00  0.00    -0.351 OA
BRANCH  22  23
HETATM   23  C   UNL     1      29.509  43.271  53.681  1.00  0.00     0.068 A 
HETATM   24  C   UNL     1      28.559  44.235  54.010  1.00  0.00     0.037 A 
HETATM   25  C   UNL     1      28.736  45.039  55.138  1.00  0.00     0.010 A 
HETATM   26  C   UNL     1      29.851  44.869  55.969  1.00  0.00    -0.055 A 
HETATM   27  C   UNL     1      30.789  43.879  55.635  1.00  0.00     0.010 A 
HETATM   28  C   UNL     1      30.618  43.080  54.499  1.00  0.00     0.037 A 
BRANCH  26  29
HETATM   29  C   UNL     1      30.069  45.730  57.201  1.00  0.00     0.010 C 
HETATM   30  C   UNL     1      30.915  45.020  58.263  1.00  0.00     0.015 C 
HETATM   31  C   UNL     1      28.734  46.190  57.790  1.00  0.00     0.015 C 
ENDBRANCH  26  29
ENDBRANCH  22  23
ENDBRANCH  21  22
ENDBRANCH  20  21
ENDBRANCH   1  20
TORSDOF 7
ENDMDL
MODEL 6
REMARK VINA RESULT:      -8.4      3.080     10.365
REMARK  7 active torsions:
REMARK  status: ('A' for Active; 'I' for Inactive)
REMARK    1  A    between atoms: C_2  and  C_3 
REMARK    2  A    between atoms: C_6  and  O_7 
REMARK    3  A    between atoms: O_7  and  C_8 
REMARK    4  A    between atoms: C_8  and  C_9 
REMARK    5  A    between atoms: C_9  and  C_10 
REMARK       I    between atoms: C_10  and  N_11 
REMARK    6  A    between atoms: N_11  and  C_12 
REMARK    7  A    between atoms: C_19  and  C_20 
REMARK       I    between atoms: C_20  and  N_21 
ROOT
HETATM    1  C   UNL     1      25.235  47.200  50.321  1.00  0.00     0.224 C 
HETATM    2  N   UNL     1      25.014  46.682  51.583  1.00  0.00    -0.327 N 
HETATM    3  O   UNL     1      26.322  47.502  49.840  1.00  0.00    -0.273 OA
HETATM    4  H   UNL     1      24.040  46.575  51.858  1.00  0.00     0.169 HD
ENDROOT
BRANCH   2   5
HETATM    5  C   UNL     1      25.973  46.367  52.568  1.00  0.00     0.035 A 
HETATM    6  C   UNL     1      26.670  45.152  52.612  1.00  0.00     0.046 A 
HETATM    7  C   UNL     1      27.596  44.920  53.653  1.00  0.00     0.030 A 
HETATM    8  C   UNL     1      27.809  45.917  54.596  1.00  0.00     0.063 A 
HETATM    9  C   UNL     1      28.444  43.844  54.056  1.00  0.00     0.156 A 
HETATM   10  N   UNL     1      28.752  45.415  55.448  1.00  0.00    -0.277 N 
HETATM   11  C   UNL     1      27.135  47.139  54.579  1.00  0.00     0.034 A 
HETATM   12  H   UNL     1      29.158  45.876  56.255  1.00  0.00     0.189 HD
HETATM   13  N   UNL     1      29.155  44.167  55.161  1.00  0.00    -0.168 NA
HETATM   14  C   UNL     1      26.204  47.336  53.553  1.00  0.00     0.032 A 
BRANCH   9  15
HETATM   15  C   UNL     1      28.580  42.523  53.427  1.00  0.00     0.270 C 
HETATM   16  N   UNL     1      27.496  41.707  53.601  1.00  0.00    -0.365 N 
HETATM   17  H   UNL     1      26.699  42.064  54.115  1.00  0.00     0.159 HD
HETATM   18  H   UNL     1      27.487  40.793  53.177  1.00  0.00     0.159 HD
HETATM   19  O   UNL     1      29.555  42.151  52.782  1.00  0.00    -0.266 OA
ENDBRANCH   9  15
ENDBRANCH   2   5
BRANCH   1  20
HETATM   20  C   UNL     1      23.970  47.350  49.494  1.00  0.00     0.130 C 
BRANCH  20  21
HETATM   21  C   UNL     1      23.842  48.731  48.863  1.00  0.00     0.185 C 
BRANCH  21  22
HETATM   22  O   UNL     1      23.375  49.628  49.884  1.00  0.00    -0.351 OA
BRANCH  22  23
HETATM   23  C   UNL     1      22.237  50.309  49.554  1.00  0.00     0.068 A 
HETATM   24  C   UNL     1      21.924  50.359  48.197  1.00  0.00     0.037 A 
HETATM   25  C   UNL     1      20.767  51.012  47.767  1.00  0.00     0.010 A 
HETATM   26  C   UNL     1      19.891  51.598  48.691  1.00  0.00    -0.055 A 
HETATM   27  C   UNL     1      20.209  51.521  50.056  1.00  0.00     0.010 A 
HETATM   28  C   UNL     1      21.374  50.877  50.487  1.00  0.00     0.037 A 
BRANCH  26  29
HETATM   29  C   UNL     1      18.626  52.314  48.250  1.00  0.00     0.010 C 
HETATM   30  C   UNL     1      17.659  52.553  49.414  1.00  0.00     0.015 C 
HETATM   31  C   UNL     1      17.934  51.554  47.116  1.00  0.00     0.015 C 
ENDBRANCH  26  29
ENDBRANCH  22  23
ENDBRANCH  21  22
ENDBRANCH  20  21
ENDBRANCH   1  20
TORSDOF 7
ENDMDL
MODEL 7
REMARK VINA RESULT:      -8.3      3.624      6.448
REMARK  7 active torsions:
REMARK  status: ('A' for Active; 'I' for Inactive)
REMARK    1  A    between atoms: C_2  and  C_3 
REMARK    2  A    between atoms: C_6  and  O_7 
REMARK    3  A    between atoms: O_7  and  C_8 
REMARK    4  A    between atoms: C_8  and  C_9 
REMARK    5  A    between atoms: C_9  and  C_10 
REMARK       I    between atoms: C_10  and  N_11 
REMARK    6  A    between atoms: N_11  and  C_12 
REMARK    7  A    between atoms: C_19  and  C_20 
REMARK       I    between atoms: C_20  and  N_21 
ROOT
HETATM    1  C   UNL     1      26.050  45.340  50.730  1.00  0.00     0.224 C 
HETATM    2  N   UNL     1      25.394  44.161  51.032  1.00  0.00    -0.327 N 
HETATM    3  O   UNL     1      26.688  45.575  49.709  1.00  0.00    -0.273 OA
HETATM    4  H   UNL     1      24.992  44.101  51.964  1.00  0.00     0.169 HD
ENDROOT
BRANCH   2   5
HETATM    5  C   UNL     1      25.293  43.001  50.238  1.00  0.00     0.035 A 
HETATM    6  C   UNL     1      26.296  42.025  50.158  1.00  0.00     0.046 A 
HETATM    7  C   UNL     1      26.111  40.906  49.316  1.00  0.00     0.030 A 
HETATM    8  C   UNL     1      24.924  40.791  48.603  1.00  0.00     0.063 A 
HETATM    9  C   UNL     1      26.877  39.760  48.944  1.00  0.00     0.156 A 
HETATM   10  N   UNL     1      25.031  39.622  47.906  1.00  0.00    -0.277 N 
HETATM   11  C   UNL     1      23.904  41.743  48.662  1.00  0.00     0.034 A 
HETATM   12  H   UNL     1      24.343  39.212  47.285  1.00  0.00     0.189 HD
HETATM   13  N   UNL     1      26.195  38.974  48.078  1.00  0.00    -0.168 NA
HETATM   14  C   UNL     1      24.121  42.855  49.484  1.00  0.00     0.032 A 
BRANCH   9  15
HETATM   15  C   UNL     1      28.236  39.407  49.379  1.00  0.00     0.270 C 
HETATM   16  N   UNL     1      29.219  40.172  48.813  1.00  0.00    -0.365 N 
HETATM   17  H   UNL     1      28.950  40.912  48.175  1.00  0.00     0.159 HD
HETATM   18  H   UNL     1      30.180  40.023  49.077  1.00  0.00     0.159 HD
HETATM   19  O   UNL     1      28.506  38.523  50.184  1.00  0.00    -0.266 OA
ENDBRANCH   9  15
ENDBRANCH   2   5
BRANCH   1  20
HETATM   20  C   UNL     1      25.894  46.414  51.792  1.00  0.00     0.130 C 
BRANCH  20  21
HETATM   21  C   UNL     1      26.309  45.935  53.177  1.00  0.00     0.185 C 
BRANCH  21  22
HETATM   22  O   UNL     1      27.275  44.886  52.998  1.00  0.00    -0.351 OA
BRANCH  22  23
HETATM   23  C   UNL     1      28.213  44.813  53.990  1.00  0.00     0.068 A 
HETATM   24  C   UNL     1      29.044  43.695  53.966  1.00  0.00     0.037 A 
HETATM   25  C   UNL     1      30.048  43.546  54.924  1.00  0.00     0.010 A 
HETATM   26  C   UNL     1      30.255  44.529  55.902  1.00  0.00    -0.055 A 
HETATM   27  C   UNL     1      29.423  45.660  55.900  1.00  0.00     0.010 A 
HETATM   28  C   UNL     1      28.409  45.805  54.946  1.00  0.00     0.037 A 
BRANCH  26  29
HETATM   29  C   UNL     1      31.340  44.393  56.956  1.00  0.00     0.010 C 
HETATM   30  C   UNL     1      31.779  42.939  57.152  1.00  0.00     0.015 C 
HETATM   31  C   UNL     1      30.891  45.008  58.284  1.00  0.00     0.015 C 
ENDBRANCH  26  29
ENDBRANCH  22  23
ENDBRANCH  21  22
ENDBRANCH  20  21
ENDBRANCH   1  20
TORSDOF 7
ENDMDL
MODEL 8
REMARK VINA RESULT:      -8.2      4.528      8.532
REMARK  7 active torsions:
REMARK  status: ('A' for Active; 'I' for Inactive)
REMARK    1  A    between atoms: C_2  and  C_3 
REMARK    2  A    between atoms: C_6  and  O_7 
REMARK    3  A    between atoms: O_7  and  C_8 
REMARK    4  A    between atoms: C_8  and  C_9 
REMARK    5  A    between atoms: C_9  and  C_10 
REMARK       I    between atoms: C_10  and  N_11 
REMARK    6  A    between atoms: N_11  and  C_12 
REMARK    7  A    between atoms: C_19  and  C_20 
REMARK       I    between atoms: C_20  and  N_21 
ROOT
HETATM    1  C   UNL     1      28.446  41.167  52.544  1.00  0.00     0.224 C 
HETATM    2  N   UNL     1      29.057  42.407  52.523  1.00  0.00    -0.327 N 
HETATM    3  O   UNL     1      27.760  40.710  53.452  1.00  0.00    -0.273 OA
HETATM    4  H   UNL     1      29.667  42.591  51.730  1.00  0.00     0.169 HD
ENDROOT
BRANCH   2   5
HETATM    5  C   UNL     1      29.007  43.411  53.512  1.00  0.00     0.035 A 
HETATM    6  C   UNL     1      29.867  43.455  54.618  1.00  0.00     0.046 A 
HETATM    7  C   UNL     1      29.724  44.490  55.568  1.00  0.00     0.030 A 
HETATM    8  C   UNL     1      28.744  45.455  55.367  1.00  0.00     0.063 A 
HETATM    9  C   UNL     1      30.351  44.852  56.798  1.00  0.00     0.156 A 
HETATM   10  N   UNL     1      28.860  46.314  56.423  1.00  0.00    -0.277 N 
HETATM   11  C   UNL     1      27.874  45.442  54.276  1.00  0.00     0.034 A 
HETATM   12  H   UNL     1      28.309  47.147  56.600  1.00  0.00     0.189 HD
HETATM   13  N   UNL     1      29.811  45.983  57.311  1.00  0.00    -0.168 NA
HETATM   14  C   UNL     1      28.018  44.393  53.362  1.00  0.00     0.032 A 
BRANCH   9  15
HETATM   15  C   UNL     1      31.433  44.144  57.499  1.00  0.00     0.270 C 
HETATM   16  N   UNL     1      31.847  43.000  56.874  1.00  0.00    -0.365 N 
HETATM   17  H   UNL     1      31.410  42.742  55.996  1.00  0.00     0.159 HD
HETATM   18  H   UNL     1      32.607  42.466  57.265  1.00  0.00     0.159 HD
HETATM   19  O   UNL     1      31.954  44.519  58.543  1.00  0.00    -0.266 OA
ENDBRANCH   9  15
ENDBRANCH   2   5
BRANCH   1  20
HETATM   20  C   UNL     1      28.657  40.363  51.273  1.00  0.00     0.130 C 
BRANCH  20  21
HETATM   21  C   UNL     1      27.951  40.973  50.069  1.00  0.00     0.185 C 
BRANCH  21  22
HETATM   22  O   UNL     1      26.607  41.284  50.470  1.00  0.00    -0.351 OA
BRANCH  22  23
HETATM   23  C   UNL     1      26.324  42.621  50.495  1.00  0.00     0.068 A 
HETATM   24  C   UNL     1      25.267  43.009  51.316  1.00  0.00     0.037 A 
HETATM   25  C   UNL     1      24.921  44.357  51.425  1.00  0.00     0.010 A 
HETATM   26  C   UNL     1      25.647  45.340  50.739  1.00  0.00    -0.055 A 
HETATM   27  C   UNL     1      26.722  44.935  49.932  1.00  0.00     0.010 A 
HETATM   28  C   UNL     1      27.063  43.583  49.813  1.00  0.00     0.037 A 
BRANCH  26  29
HETATM   29  C   UNL     1      25.292  46.813  50.839  1.00  0.00     0.010 C 
HETATM   30  C   UNL     1      26.208  47.690  49.981  1.00  0.00     0.015 C 
HETATM   31  C   UNL     1      25.302  47.279  52.296  1.00  0.00     0.015 C 
ENDBRANCH  26  29
ENDBRANCH  22  23
ENDBRANCH  21  22
ENDBRANCH  20  21
ENDBRANCH   1  20
TORSDOF 7
ENDMDL
MODEL 9
REMARK VINA RESULT:      -8.1      1.913      2.885
REMARK  7 active torsions:
REMARK  status: ('A' for Active; 'I' for Inactive)
REMARK    1  A    between atoms: C_2  and  C_3 
REMARK    2  A    between atoms: C_6  and  O_7 
REMARK    3  A    between atoms: O_7  and  C_8 
REMARK    4  A    between atoms: C_8  and  C_9 
REMARK    5  A    between atoms: C_9  and  C_10 
REMARK       I    between atoms: C_10  and  N_11 
REMARK    6  A    between atoms: N_11  and  C_12 
REMARK    7  A    between atoms: C_19  and  C_20 
REMARK       I    between atoms: C_20  and  N_21 
ROOT
HETATM    1  C   UNL     1      25.246  46.507  49.816  1.00  0.00     0.224 C 
HETATM    2  N   UNL     1      25.200  47.882  49.688  1.00  0.00    -0.327 N 
HETATM    3  O   UNL     1      24.344  45.722  49.546  1.00  0.00    -0.273 OA
HETATM    4  H   UNL     1      26.005  48.391  50.046  1.00  0.00     0.169 HD
ENDROOT
BRANCH   2   5
HETATM    5  C   UNL     1      24.135  48.670  49.204  1.00  0.00     0.035 A 
HETATM    6  C   UNL     1      22.793  48.456  49.548  1.00  0.00     0.046 A 
HETATM    7  C   UNL     1      21.793  49.285  48.993  1.00  0.00     0.030 A 
HETATM    8  C   UNL     1      22.172  50.310  48.135  1.00  0.00     0.063 A 
HETATM    9  C   UNL     1      20.369  49.367  49.059  1.00  0.00     0.156 A 
HETATM   10  N   UNL     1      21.009  50.936  47.783  1.00  0.00    -0.277 N 
HETATM   11  C   UNL     1      23.498  50.553  47.776  1.00  0.00     0.034 A 
HETATM   12  H   UNL     1      20.905  51.739  47.172  1.00  0.00     0.189 HD
HETATM   13  N   UNL     1      19.901  50.393  48.312  1.00  0.00    -0.168 NA
HETATM   14  C   UNL     1      24.468  49.702  48.318  1.00  0.00     0.032 A 
BRANCH   9  15
HETATM   15  C   UNL     1      19.452  48.488  49.799  1.00  0.00     0.270 C 
HETATM   16  N   UNL     1      19.046  48.992  51.005  1.00  0.00    -0.365 N 
HETATM   17  H   UNL     1      19.378  49.908  51.283  1.00  0.00     0.159 HD
HETATM   18  H   UNL     1      18.391  48.473  51.567  1.00  0.00     0.159 HD
HETATM   19  O   UNL     1      19.050  47.400  49.401  1.00  0.00    -0.266 OA
ENDBRANCH   9  15
ENDBRANCH   2   5
BRANCH   1  20
HETATM   20  C   UNL     1      26.584  45.986  50.309  1.00  0.00     0.130 C 
BRANCH  20  21
HETATM   21  C   UNL     1      26.454  44.693  51.104  1.00  0.00     0.185 C 
BRANCH  21  22
HETATM   22  O   UNL     1      25.948  45.037  52.405  1.00  0.00    -0.351 OA
BRANCH  22  23
HETATM   23  C   UNL     1      26.915  45.208  53.356  1.00  0.00     0.068 A 
HETATM   24  C   UNL     1      27.833  44.169  53.489  1.00  0.00     0.037 A 
HETATM   25  C   UNL     1      28.872  44.264  54.418  1.00  0.00     0.010 A 
HETATM   26  C   UNL     1      29.024  45.414  55.205  1.00  0.00    -0.055 A 
HETATM   27  C   UNL     1      28.103  46.461  55.044  1.00  0.00     0.010 A 
HETATM   28  C   UNL     1      27.056  46.362  54.121  1.00  0.00     0.037 A 
BRANCH  26  29
HETATM   29  C   UNL     1      30.144  45.545  56.222  1.00  0.00     0.010 C 
HETATM   30  C   UNL     1      30.982  44.268  56.330  1.00  0.00     0.015 C 
HETATM   31  C   UNL     1      29.593  45.950  57.591  1.00  0.00     0.015 C 
ENDBRANCH  26  29
ENDBRANCH  22  23
ENDBRANCH  21  22
ENDBRANCH  20  21
ENDBRANCH   1  20
TORSDOF 7
ENDMDL
MODEL 10
REMARK VINA RESULT:      -8.1      4.951      7.323
REMARK  7 active torsions:
REMARK  status: ('A' for Active; 'I' for Inactive)
REMARK    1  A    between atoms: C_2  and  C_3 
REMARK    2  A    between atoms: C_6  and  O_7 
REMARK    3  A    between atoms: O_7  and  C_8 
REMARK    4  A    between atoms: C_8  and  C_9 
REMARK    5  A    between atoms: C_9  and  C_10 
REMARK       I    between atoms: C_10  and  N_11 
REMARK    6  A    between atoms: N_11  and  C_12 
REMARK    7  A    between atoms: C_19  and  C_20 
REMARK       I    between atoms: C_20  and  N_21 
ROOT
HETATM    1  C   UNL     1      25.896  42.848  50.374  1.00  0.00     0.224 C 
HETATM    2  N   UNL     1      27.184  42.512  50.003  1.00  0.00    -0.327 N 
HETATM    3  O   UNL     1      24.925  42.099  50.386  1.00  0.00    -0.273 OA
HETATM    4  H   UNL     1      27.851  43.279  49.962  1.00  0.00     0.169 HD
ENDROOT
BRANCH   2   5
HETATM    5  C   UNL     1      27.663  41.253  49.587  1.00  0.00     0.035 A 
HETATM    6  C   UNL     1      27.622  40.806  48.259  1.00  0.00     0.046 A 
HETATM    7  C   UNL     1      28.107  39.517  47.945  1.00  0.00     0.030 A 
HETATM    8  C   UNL     1      28.636  38.732  48.962  1.00  0.00     0.063 A 
HETATM    9  C   UNL     1      28.204  38.712  46.770  1.00  0.00     0.156 A 
HETATM   10  N   UNL     1      29.029  37.572  48.358  1.00  0.00    -0.277 N 
HETATM   11  C   UNL     1      28.695  39.148  50.293  1.00  0.00     0.034 A 
HETATM   12  H   UNL     1      29.469  36.771  48.796  1.00  0.00     0.189 HD
HETATM   13  N   UNL     1      28.780  37.517  47.039  1.00  0.00    -0.168 NA
HETATM   14  C   UNL     1      28.185  40.419  50.584  1.00  0.00     0.032 A 
BRANCH   9  15
HETATM   15  C   UNL     1      27.751  39.045  45.412  1.00  0.00     0.270 C 
HETATM   16  N   UNL     1      26.751  38.237  44.942  1.00  0.00    -0.365 N 
HETATM   17  H   UNL     1      26.394  37.507  45.548  1.00  0.00     0.159 HD
HETATM   18  H   UNL     1      26.355  38.412  44.033  1.00  0.00     0.159 HD
HETATM   19  O   UNL     1      28.192  39.965  44.732  1.00  0.00    -0.266 OA
ENDBRANCH   9  15
ENDBRANCH   2   5
BRANCH   1  20
HETATM   20  C   UNL     1      25.750  44.287  50.835  1.00  0.00     0.130 C 
BRANCH  20  21
HETATM   21  C   UNL     1      26.811  44.689  51.850  1.00  0.00     0.185 C 
BRANCH  21  22
HETATM   22  O   UNL     1      27.111  43.528  52.641  1.00  0.00    -0.351 OA
BRANCH  22  23
HETATM   23  C   UNL     1      28.109  43.715  53.556  1.00  0.00     0.068 A 
HETATM   24  C   UNL     1      28.054  44.898  54.290  1.00  0.00     0.037 A 
HETATM   25  C   UNL     1      29.017  45.165  55.265  1.00  0.00     0.010 A 
HETATM   26  C   UNL     1      30.031  44.238  55.541  1.00  0.00    -0.055 A 
HETATM   27  C   UNL     1      30.061  43.041  54.808  1.00  0.00     0.010 A 
HETATM   28  C   UNL     1      29.103  42.778  53.823  1.00  0.00     0.037 A 
BRANCH  26  29
HETATM   29  C   UNL     1      31.092  44.503  56.596  1.00  0.00     0.010 C 
HETATM   30  C   UNL     1      31.781  43.217  57.062  1.00  0.00     0.015 C 
HETATM   31  C   UNL     1      30.501  45.264  57.785  1.00  0.00     0.015 C 
ENDBRANCH  26  29
ENDBRANCH  22  23
ENDBRANCH  21  22
ENDBRANCH  20  21
ENDBRANCH   1  20
TORSDOF 7
ENDMDL
