MODEL 1
REMARK VINA RESULT:      -9.7      0.000      0.000
REMARK  9 active torsions:
REMARK  status: ('A' for Active; 'I' for Inactive)
REMARK    1  A    between atoms: O_2  and  C_3 
REMARK    2  A    between atoms: C_5  and  O_6 
REMARK    3  A    between atoms: C_9  and  C_10 
REMARK       I    between atoms: C_10  and  N_11 
REMARK    4  A    between atoms: N_11  and  C_12 
REMARK    5  A    between atoms: C_12  and  N_13 
REMARK    6  A    between atoms: N_13  and  C_14 
REMARK    7  A    between atoms: C_17  and  N_18 
REMARK    8  A    between atoms: N_21  and  C_23 
REMARK    9  A    between atoms: C_23  and  C_24 
ROOT
HETATM    1  C   UNL     1      21.420  46.416  48.521  1.00  0.00     0.034 A 
HETATM    2  C   UNL     1      21.772  45.069  48.589  1.00  0.00     0.032 A 
HETATM    3  C   UNL     1      23.058  44.668  48.994  1.00  0.00     0.031 A 
HETATM    4  C   UNL     1      24.049  45.594  49.332  1.00  0.00     0.030 A 
HETATM    5  C   UNL     1      23.695  46.948  49.194  1.00  0.00     0.031 A 
HETATM    6  C   UNL     1      22.408  47.356  48.797  1.00  0.00     0.032 A 
ENDROOT
BRANCH   1   7
HETATM    7  N   UNL     1      20.149  46.878  48.096  1.00  0.00    -0.333 N 
HETATM    8  H   UNL     1      20.153  47.478  47.279  1.00  0.00     0.168 HD
BRANCH   7   9
HETATM    9  C   UNL     1      18.948  46.784  48.741  1.00  0.00     0.179 C 
HETATM   10  S   UNL     1      17.557  46.034  48.172  1.00  0.00    -0.040 SA
BRANCH   9  11
HETATM   11  N   UNL     1      18.844  47.365  50.000  1.00  0.00    -0.299 N 
HETATM   12  C   UNL     1      18.759  48.590  50.669  1.00  0.00     0.258 C 
HETATM   13  O   UNL     1      18.504  48.577  51.874  1.00  0.00    -0.267 OA
HETATM   14  H   UNL     1      18.748  46.635  50.700  1.00  0.00     0.171 HD
BRANCH  12  15
HETATM   15  C   UNL     1      19.054  49.887  50.039  1.00  0.00     0.037 A 
HETATM   16  C   UNL     1      20.254  50.181  49.392  1.00  0.00     0.054 A 
HETATM   17  C   UNL     1      20.436  51.432  48.789  1.00  0.00     0.071 A 
HETATM   18  C   UNL     1      19.379  52.348  48.750  1.00  0.00     0.073 A 
HETATM   19  C   UNL     1      18.151  52.015  49.320  1.00  0.00     0.071 A 
HETATM   20  C   UNL     1      17.999  50.806  49.991  1.00  0.00     0.054 A 
BRANCH  17  21
HETATM   21  O   UNL     1      21.689  51.642  48.276  1.00  0.00    -0.356 OA
HETATM   22  C   UNL     1      22.766  50.976  48.928  1.00  0.00     0.210 C 
ENDBRANCH  17  21
BRANCH  19  23
HETATM   23  O   UNL     1      17.059  52.840  49.307  1.00  0.00    -0.356 OA
HETATM   24  C   UNL     1      15.813  52.145  49.264  1.00  0.00     0.210 C 
ENDBRANCH  19  23
ENDBRANCH  12  15
ENDBRANCH   9  11
ENDBRANCH   7   9
ENDBRANCH   1   7
BRANCH   4  25
HETATM   25  N   UNL     1      25.337  45.228  49.724  1.00  0.00    -0.378 N 
HETATM   26  C   UNL     1      25.685  43.822  50.012  1.00  0.00     0.150 C 
HETATM   27  C   UNL     1      25.597  43.516  51.524  1.00  0.00     0.255 C 
HETATM   28  N   UNL     1      26.442  44.512  52.317  1.00  0.00    -0.064 N 
HETATM   29  H   UNL     1      27.417  44.406  51.995  1.00  0.00     0.280 HD
HETATM   30  C   UNL     1      26.020  45.948  52.000  1.00  0.00     0.255 C 
HETATM   31  C   UNL     1      26.135  46.213  50.484  1.00  0.00     0.150 C 
BRANCH  28  32
HETATM   32  C   UNL     1      26.458  44.205  53.795  1.00  0.00     0.276 C 
BRANCH  32  33
HETATM   33  C   UNL     1      27.834  44.159  54.396  1.00  0.00     0.006 A 
HETATM   34  C   UNL     1      28.306  45.234  55.158  1.00  0.00     0.124 A 
HETATM   35  F   UNL     1      27.495  46.283  55.368  1.00  0.00    -0.206 F 
HETATM   36  C   UNL     1      29.568  45.221  55.738  1.00  0.00     0.043 A 
HETATM   37  C   UNL     1      30.393  44.115  55.549  1.00  0.00     0.003 A 
HETATM   38  C   UNL     1      29.951  43.038  54.779  1.00  0.00     0.001 A 
HETATM   39  C   UNL     1      28.679  43.058  54.200  1.00  0.00     0.012 A 
ENDBRANCH  32  33
ENDBRANCH  28  32
ENDBRANCH   4  25
TORSDOF 9
ENDMDL
MODEL 2
REMARK VINA RESULT:      -9.6      0.338      2.202
REMARK  9 active torsions:
REMARK  status: ('A' for Active; 'I' for Inactive)
REMARK    1  A    between atoms: O_2  and  C_3 
REMARK    2  A    between atoms: C_5  and  O_6 
REMARK    3  A    between atoms: C_9  and  C_10 
REMARK       I    between atoms: C_10  and  N_11 
REMARK    4  A    between atoms: N_11  and  C_12 
REMARK    5  A    between atoms: C_12  and  N_13 
REMARK    6  A    between atoms: N_13  and  C_14 
REMARK    7  A    between atoms: C_17  and  N_18 
REMARK    8  A    between atoms: N_21  and  C_23 
REMARK    9  A    between atoms: C_23  and  C_24 
ROOT
HETATM    1  C   UNL     1      21.492  46.337  48.535  1.00  0.00     0.034 A 
HETATM    2  C   UNL     1      21.783  44.982  48.678  1.00  0.00     0.032 A 
HETATM    3  C   UNL     1      23.047  44.547  49.116  1.00  0.00     0.031 A 
HETATM    4  C   UNL     1      24.076  45.445  49.413  1.00  0.00     0.030 A 
HETATM    5  C   UNL     1      23.783  46.804  49.199  1.00  0.00     0.031 A 
HETATM    6  C   UNL     1      22.519  47.247  48.770  1.00  0.00     0.032 A 
ENDROOT
BRANCH   1   7
HETATM    7  N   UNL     1      20.246  46.832  48.074  1.00  0.00    -0.333 N 
HETATM    8  H   UNL     1      20.288  47.430  47.258  1.00  0.00     0.168 HD
BRANCH   7   9
HETATM    9  C   UNL     1      19.025  46.769  48.685  1.00  0.00     0.179 C 
HETATM   10  S   UNL     1      17.631  46.058  48.076  1.00  0.00    -0.040 SA
BRANCH   9  11
HETATM   11  N   UNL     1      18.902  47.350  49.942  1.00  0.00    -0.299 N 
HETATM   12  C   UNL     1      18.719  48.569  50.604  1.00  0.00     0.258 C 
HETATM   13  O   UNL     1      18.501  48.545  51.816  1.00  0.00    -0.267 OA
HETATM   14  H   UNL     1      18.895  46.623  50.651  1.00  0.00     0.171 HD
BRANCH  12  15
HETATM   15  C   UNL     1      18.872  49.882  49.956  1.00  0.00     0.037 A 
HETATM   16  C   UNL     1      17.881  50.864  49.950  1.00  0.00     0.054 A 
HETATM   17  C   UNL     1      18.126  52.100  49.337  1.00  0.00     0.071 A 
HETATM   18  C   UNL     1      19.394  52.384  48.821  1.00  0.00     0.073 A 
HETATM   19  C   UNL     1      20.409  51.432  48.908  1.00  0.00     0.071 A 
HETATM   20  C   UNL     1      20.141  50.175  49.442  1.00  0.00     0.054 A 
BRANCH  17  21
HETATM   21  O   UNL     1      17.047  52.944  49.304  1.00  0.00    -0.356 OA
HETATM   22  C   UNL     1      15.770  52.342  49.109  1.00  0.00     0.210 C 
ENDBRANCH  17  21
BRANCH  19  23
HETATM   23  O   UNL     1      21.682  51.635  48.451  1.00  0.00    -0.356 OA
HETATM   24  C   UNL     1      22.673  50.885  49.155  1.00  0.00     0.210 C 
ENDBRANCH  19  23
ENDBRANCH  12  15
ENDBRANCH   9  11
ENDBRANCH   7   9
ENDBRANCH   1   7
BRANCH   4  25
HETATM   25  N   UNL     1      25.344  45.044  49.835  1.00  0.00    -0.378 N 
HETATM   26  C   UNL     1      25.561  43.738  50.489  1.00  0.00     0.150 C 
HETATM   27  C   UNL     1      25.556  43.867  52.028  1.00  0.00     0.255 C 
HETATM   28  N   UNL     1      26.559  44.930  52.476  1.00  0.00    -0.064 N 
HETATM   29  H   UNL     1      27.489  44.621  52.154  1.00  0.00     0.280 HD
HETATM   30  C   UNL     1      26.268  46.266  51.790  1.00  0.00     0.255 C 
HETATM   31  C   UNL     1      26.297  46.093  50.256  1.00  0.00     0.150 C 
BRANCH  28  32
HETATM   32  C   UNL     1      26.653  45.036  53.978  1.00  0.00     0.276 C 
BRANCH  32  33
HETATM   33  C   UNL     1      28.009  44.701  54.532  1.00  0.00     0.006 A 
HETATM   34  C   UNL     1      28.647  45.583  55.411  1.00  0.00     0.124 A 
HETATM   35  F   UNL     1      28.011  46.709  55.774  1.00  0.00    -0.206 F 
HETATM   36  C   UNL     1      29.896  45.302  55.952  1.00  0.00     0.043 A 
HETATM   37  C   UNL     1      30.537  44.116  55.603  1.00  0.00     0.003 A 
HETATM   38  C   UNL     1      29.928  43.228  54.714  1.00  0.00     0.001 A 
HETATM   39  C   UNL     1      28.670  43.519  54.176  1.00  0.00     0.012 A 
ENDBRANCH  32  33
ENDBRANCH  28  32
ENDBRANCH   4  25
TORSDOF 9
ENDMDL
MODEL 3
REMARK VINA RESULT:      -9.1      4.293     10.714
REMARK  9 active torsions:
REMARK  status: ('A' for Active; 'I' for Inactive)
REMARK    1  A    between atoms: O_2  and  C_3 
REMARK    2  A    between atoms: C_5  and  O_6 
REMARK    3  A    between atoms: C_9  and  C_10 
REMARK       I    between atoms: C_10  and  N_11 
REMARK    4  A    between atoms: N_11  and  C_12 
REMARK    5  A    between atoms: C_12  and  N_13 
REMARK    6  A    between atoms: N_13  and  C_14 
REMARK    7  A    between atoms: C_17  and  N_18 
REMARK    8  A    between atoms: N_21  and  C_23 
REMARK    9  A    between atoms: C_23  and  C_24 
ROOT
HETATM    1  C   UNL     1      25.570  46.581  49.807  1.00  0.00     0.034 A 
HETATM    2  C   UNL     1      24.213  46.302  49.660  1.00  0.00     0.032 A 
HETATM    3  C   UNL     1      23.306  47.283  49.220  1.00  0.00     0.031 A 
HETATM    4  C   UNL     1      23.714  48.587  48.924  1.00  0.00     0.030 A 
HETATM    5  C   UNL     1      25.075  48.866  49.141  1.00  0.00     0.031 A 
HETATM    6  C   UNL     1      25.989  47.888  49.574  1.00  0.00     0.032 A 
ENDROOT
BRANCH   1   7
HETATM    7  N   UNL     1      26.523  45.640  50.271  1.00  0.00    -0.333 N 
HETATM    8  H   UNL     1      27.492  45.926  50.193  1.00  0.00     0.168 HD
BRANCH   7   9
HETATM    9  C   UNL     1      26.329  44.336  50.629  1.00  0.00     0.179 C 
HETATM   10  S   UNL     1      26.829  42.975  49.782  1.00  0.00    -0.040 SA
BRANCH   9  11
HETATM   11  N   UNL     1      25.647  44.087  51.815  1.00  0.00    -0.299 N 
HETATM   12  C   UNL     1      25.578  44.439  53.167  1.00  0.00     0.258 C 
HETATM   13  O   UNL     1      24.624  44.025  53.827  1.00  0.00    -0.267 OA
HETATM   14  H   UNL     1      24.882  43.445  51.635  1.00  0.00     0.171 HD
BRANCH  12  15
HETATM   15  C   UNL     1      26.629  45.193  53.870  1.00  0.00     0.037 A 
HETATM   16  C   UNL     1      26.487  46.516  54.287  1.00  0.00     0.054 A 
HETATM   17  C   UNL     1      27.528  47.146  54.982  1.00  0.00     0.071 A 
HETATM   18  C   UNL     1      28.666  46.417  55.344  1.00  0.00     0.073 A 
HETATM   19  C   UNL     1      28.765  45.069  55.002  1.00  0.00     0.071 A 
HETATM   20  C   UNL     1      27.768  44.469  54.240  1.00  0.00     0.054 A 
BRANCH  17  21
HETATM   21  O   UNL     1      27.316  48.473  55.248  1.00  0.00    -0.356 OA
HETATM   22  C   UNL     1      26.275  48.782  56.171  1.00  0.00     0.210 C 
ENDBRANCH  17  21
BRANCH  19  23
HETATM   23  O   UNL     1      29.831  44.278  55.335  1.00  0.00    -0.356 OA
HETATM   24  C   UNL     1      30.680  44.847  56.331  1.00  0.00     0.210 C 
ENDBRANCH  19  23
ENDBRANCH  12  15
ENDBRANCH   9  11
ENDBRANCH   7   9
ENDBRANCH   1   7
BRANCH   4  25
HETATM   25  N   UNL     1      22.838  49.585  48.499  1.00  0.00    -0.378 N 
HETATM   26  C   UNL     1      22.662  50.834  49.266  1.00  0.00     0.150 C 
HETATM   27  C   UNL     1      21.438  50.754  50.206  1.00  0.00     0.255 C 
HETATM   28  N   UNL     1      20.189  50.360  49.419  1.00  0.00    -0.064 N 
HETATM   29  H   UNL     1      20.037  51.091  48.708  1.00  0.00     0.280 HD
HETATM   30  C   UNL     1      20.420  49.046  48.668  1.00  0.00     0.255 C 
HETATM   31  C   UNL     1      21.641  49.177  47.733  1.00  0.00     0.150 C 
BRANCH  28  32
HETATM   32  C   UNL     1      18.948  50.348  50.277  1.00  0.00     0.276 C 
BRANCH  32  33
HETATM   33  C   UNL     1      17.772  51.052  49.661  1.00  0.00     0.006 A 
HETATM   34  C   UNL     1      16.913  50.363  48.798  1.00  0.00     0.124 A 
HETATM   35  F   UNL     1      17.139  49.061  48.563  1.00  0.00    -0.206 F 
HETATM   36  C   UNL     1      15.809  50.979  48.220  1.00  0.00     0.043 A 
HETATM   37  C   UNL     1      15.555  52.320  48.495  1.00  0.00     0.003 A 
HETATM   38  C   UNL     1      16.408  53.033  49.339  1.00  0.00     0.001 A 
HETATM   39  C   UNL     1      17.516  52.406  49.919  1.00  0.00     0.012 A 
ENDBRANCH  32  33
ENDBRANCH  28  32
ENDBRANCH   4  25
TORSDOF 9
ENDMDL
MODEL 4
REMARK VINA RESULT:      -9.0      2.212      3.113
REMARK  9 active torsions:
REMARK  status: ('A' for Active; 'I' for Inactive)
REMARK    1  A    between atoms: O_2  and  C_3 
REMARK    2  A    between atoms: C_5  and  O_6 
REMARK    3  A    between atoms: C_9  and  C_10 
REMARK       I    between atoms: C_10  and  N_11 
REMARK    4  A    between atoms: N_11  and  C_12 
REMARK    5  A    between atoms: C_12  and  N_13 
REMARK    6  A    between atoms: N_13  and  C_14 
REMARK    7  A    between atoms: C_17  and  N_18 
REMARK    8  A    between atoms: N_21  and  C_23 
REMARK    9  A    between atoms: C_23  and  C_24 
ROOT
HETATM    1  C   UNL     1      22.621  47.327  48.811  1.00  0.00     0.034 A 
HETATM    2  C   UNL     1      23.730  47.754  49.538  1.00  0.00     0.032 A 
HETATM    3  C   UNL     1      24.779  46.873  49.859  1.00  0.00     0.031 A 
HETATM    4  C   UNL     1      24.756  45.528  49.481  1.00  0.00     0.030 A 
HETATM    5  C   UNL     1      23.599  45.101  48.806  1.00  0.00     0.031 A 
HETATM    6  C   UNL     1      22.550  45.978  48.475  1.00  0.00     0.032 A 
ENDROOT
BRANCH   1   7
HETATM    7  N   UNL     1      21.524  48.162  48.482  1.00  0.00    -0.333 N 
HETATM    8  H   UNL     1      21.042  47.932  47.622  1.00  0.00     0.168 HD
BRANCH   7   9
HETATM    9  C   UNL     1      21.147  49.342  49.060  1.00  0.00     0.179 C 
HETATM   10  S   UNL     1      21.626  50.885  48.603  1.00  0.00    -0.040 SA
BRANCH   9  11
HETATM   11  N   UNL     1      20.278  49.280  50.144  1.00  0.00    -0.299 N 
HETATM   12  C   UNL     1      18.927  49.236  50.500  1.00  0.00     0.258 C 
HETATM   13  O   UNL     1      18.643  49.010  51.677  1.00  0.00    -0.267 OA
HETATM   14  H   UNL     1      20.815  49.186  51.001  1.00  0.00     0.171 HD
BRANCH  12  15
HETATM   15  C   UNL     1      17.827  49.543  49.571  1.00  0.00     0.037 A 
HETATM   16  C   UNL     1      17.079  48.571  48.906  1.00  0.00     0.054 A 
HETATM   17  C   UNL     1      16.025  48.953  48.065  1.00  0.00     0.071 A 
HETATM   18  C   UNL     1      15.661  50.301  47.971  1.00  0.00     0.073 A 
HETATM   19  C   UNL     1      16.354  51.260  48.708  1.00  0.00     0.071 A 
HETATM   20  C   UNL     1      17.453  50.889  49.477  1.00  0.00     0.054 A 
BRANCH  17  21
HETATM   21  O   UNL     1      15.432  47.920  47.388  1.00  0.00    -0.356 OA
HETATM   22  C   UNL     1      14.724  48.258  46.199  1.00  0.00     0.210 C 
ENDBRANCH  17  21
BRANCH  19  23
HETATM   23  O   UNL     1      16.050  52.594  48.693  1.00  0.00    -0.356 OA
HETATM   24  C   UNL     1      16.234  53.240  49.953  1.00  0.00     0.210 C 
ENDBRANCH  19  23
ENDBRANCH  12  15
ENDBRANCH   9  11
ENDBRANCH   7   9
ENDBRANCH   1   7
BRANCH   4  25
HETATM   25  N   UNL     1      25.774  44.627  49.796  1.00  0.00    -0.378 N 
HETATM   26  C   UNL     1      25.476  43.234  50.186  1.00  0.00     0.150 C 
HETATM   27  C   UNL     1      25.441  43.073  51.723  1.00  0.00     0.255 C 
HETATM   28  N   UNL     1      26.734  43.600  52.342  1.00  0.00    -0.064 N 
HETATM   29  H   UNL     1      27.507  43.041  51.950  1.00  0.00     0.280 HD
HETATM   30  C   UNL     1      26.976  45.053  51.927  1.00  0.00     0.255 C 
HETATM   31  C   UNL     1      27.017  45.164  50.387  1.00  0.00     0.150 C 
BRANCH  28  32
HETATM   32  C   UNL     1      26.785  43.389  53.836  1.00  0.00     0.276 C 
BRANCH  32  33
HETATM   33  C   UNL     1      28.122  43.690  54.451  1.00  0.00     0.006 A 
HETATM   34  C   UNL     1      29.164  42.761  54.358  1.00  0.00     0.124 A 
HETATM   35  F   UNL     1      28.957  41.621  53.680  1.00  0.00    -0.206 F 
HETATM   36  C   UNL     1      30.417  43.010  54.906  1.00  0.00     0.043 A 
HETATM   37  C   UNL     1      30.641  44.210  55.575  1.00  0.00     0.003 A 
HETATM   38  C   UNL     1      29.611  45.145  55.696  1.00  0.00     0.001 A 
HETATM   39  C   UNL     1      28.354  44.887  55.141  1.00  0.00     0.012 A 
ENDBRANCH  32  33
ENDBRANCH  28  32
ENDBRANCH   4  25
TORSDOF 9
ENDMDL
MODEL 5
REMARK VINA RESULT:      -8.8      2.270      3.882
REMARK  9 active torsions:
REMARK  status: ('A' for Active; 'I' for Inactive)
REMARK    1  A    between atoms: O_2  and  C_3 
REMARK    2  A    between atoms: C_5  and  O_6 
REMARK    3  A    between atoms: C_9  and  C_10 
REMARK       I    between atoms: C_10  and  N_11 
REMARK    4  A    between atoms: N_11  and  C_12 
REMARK    5  A    between atoms: C_12  and  N_13 
REMARK    6  A    between atoms: N_13  and  C_14 
REMARK    7  A    between atoms: C_17  and  N_18 
REMARK    8  A    between atoms: N_21  and  C_23 
REMARK    9  A    between atoms: C_23  and  C_24 
ROOT
HETATM    1  C   UNL     1      24.508  44.153  49.016  1.00  0.00     0.034 A 
HETATM    2  C   UNL     1      24.455  45.316  49.782  1.00  0.00     0.032 A 
HETATM    3  C   UNL     1      24.781  45.306  51.151  1.00  0.00     0.031 A 
HETATM    4  C   UNL     1      25.156  44.134  51.813  1.00  0.00     0.030 A 
HETATM    5  C   UNL     1      25.139  42.961  51.038  1.00  0.00     0.031 A 
HETATM    6  C   UNL     1      24.823  42.964  49.667  1.00  0.00     0.032 A 
ENDROOT
BRANCH   1   7
HETATM    7  N   UNL     1      24.167  44.099  47.641  1.00  0.00    -0.333 N 
HETATM    8  H   UNL     1      24.948  44.032  47.000  1.00  0.00     0.168 HD
BRANCH   7   9
HETATM    9  C   UNL     1      22.951  44.314  47.055  1.00  0.00     0.179 C 
HETATM   10  S   UNL     1      22.647  44.525  45.417  1.00  0.00    -0.040 SA
BRANCH   9  11
HETATM   11  N   UNL     1      21.836  44.371  47.884  1.00  0.00    -0.299 N 
HETATM   12  C   UNL     1      20.899  45.241  48.449  1.00  0.00     0.258 C 
HETATM   13  O   UNL     1      19.931  44.752  49.035  1.00  0.00    -0.267 OA
HETATM   14  H   UNL     1      21.564  43.428  48.147  1.00  0.00     0.171 HD
BRANCH  12  15
HETATM   15  C   UNL     1      21.052  46.705  48.471  1.00  0.00     0.037 A 
HETATM   16  C   UNL     1      22.187  47.373  48.014  1.00  0.00     0.054 A 
HETATM   17  C   UNL     1      22.233  48.774  48.040  1.00  0.00     0.071 A 
HETATM   18  C   UNL     1      21.103  49.501  48.429  1.00  0.00     0.073 A 
HETATM   19  C   UNL     1      19.939  48.830  48.800  1.00  0.00     0.071 A 
HETATM   20  C   UNL     1      19.923  47.440  48.854  1.00  0.00     0.054 A 
BRANCH  17  21
HETATM   21  O   UNL     1      23.436  49.313  47.665  1.00  0.00    -0.356 OA
HETATM   22  C   UNL     1      23.564  50.727  47.774  1.00  0.00     0.210 C 
ENDBRANCH  17  21
BRANCH  19  23
HETATM   23  O   UNL     1      18.784  49.462  49.172  1.00  0.00    -0.356 OA
HETATM   24  C   UNL     1      18.999  50.690  49.869  1.00  0.00     0.210 C 
ENDBRANCH  19  23
ENDBRANCH  12  15
ENDBRANCH   9  11
ENDBRANCH   7   9
ENDBRANCH   1   7
BRANCH   4  25
HETATM   25  N   UNL     1      25.471  44.089  53.171  1.00  0.00    -0.378 N 
HETATM   26  C   UNL     1      25.281  45.264  54.046  1.00  0.00     0.150 C 
HETATM   27  C   UNL     1      26.590  46.069  54.205  1.00  0.00     0.255 C 
HETATM   28  N   UNL     1      27.722  45.157  54.674  1.00  0.00    -0.064 N 
HETATM   29  H   UNL     1      27.438  44.768  55.586  1.00  0.00     0.280 HD
HETATM   30  C   UNL     1      27.892  43.975  53.717  1.00  0.00     0.255 C 
HETATM   31  C   UNL     1      26.566  43.193  53.599  1.00  0.00     0.150 C 
BRANCH  28  32
HETATM   32  C   UNL     1      29.004  45.912  54.925  1.00  0.00     0.276 C 
BRANCH  32  33
HETATM   33  C   UNL     1      29.792  45.406  56.100  1.00  0.00     0.006 A 
HETATM   34  C   UNL     1      30.711  44.364  55.933  1.00  0.00     0.124 A 
HETATM   35  F   UNL     1      30.898  43.856  54.705  1.00  0.00    -0.206 F 
HETATM   36  C   UNL     1      31.467  43.878  56.994  1.00  0.00     0.043 A 
HETATM   37  C   UNL     1      31.298  44.433  58.260  1.00  0.00     0.003 A 
HETATM   38  C   UNL     1      30.375  45.461  58.454  1.00  0.00     0.001 A 
HETATM   39  C   UNL     1      29.620  45.946  57.381  1.00  0.00     0.012 A 
ENDBRANCH  32  33
ENDBRANCH  28  32
ENDBRANCH   4  25
TORSDOF 9
ENDMDL
MODEL 6
REMARK VINA RESULT:      -8.8      2.389      4.342
REMARK  9 active torsions:
REMARK  status: ('A' for Active; 'I' for Inactive)
REMARK    1  A    between atoms: O_2  and  C_3 
REMARK    2  A    between atoms: C_5  and  O_6 
REMARK    3  A    between atoms: C_9  and  C_10 
REMARK       I    between atoms: C_10  and  N_11 
REMARK    4  A    between atoms: N_11  and  C_12 
REMARK    5  A    between atoms: C_12  and  N_13 
REMARK    6  A    between atoms: N_13  and  C_14 
REMARK    7  A    between atoms: C_17  and  N_18 
REMARK    8  A    between atoms: N_21  and  C_23 
REMARK    9  A    between atoms: C_23  and  C_24 
ROOT
HETATM    1  C   UNL     1      24.618  43.912  48.837  1.00  0.00     0.034 A 
HETATM    2  C   UNL     1      24.991  45.036  49.573  1.00  0.00     0.032 A 
HETATM    3  C   UNL     1      25.347  44.938  50.930  1.00  0.00     0.031 A 
HETATM    4  C   UNL     1      25.331  43.718  51.612  1.00  0.00     0.030 A 
HETATM    5  C   UNL     1      24.890  42.608  50.871  1.00  0.00     0.031 A 
HETATM    6  C   UNL     1      24.540  42.697  49.511  1.00  0.00     0.032 A 
ENDROOT
BRANCH   1   7
HETATM    7  N   UNL     1      24.225  43.955  47.476  1.00  0.00    -0.333 N 
HETATM    8  H   UNL     1      24.972  43.837  46.802  1.00  0.00     0.168 HD
BRANCH   7   9
HETATM    9  C   UNL     1      23.019  44.320  46.948  1.00  0.00     0.179 C 
HETATM   10  S   UNL     1      22.679  44.626  45.332  1.00  0.00    -0.040 SA
BRANCH   9  11
HETATM   11  N   UNL     1      21.947  44.459  47.823  1.00  0.00    -0.299 N 
HETATM   12  C   UNL     1      21.091  45.396  48.411  1.00  0.00     0.258 C 
HETATM   13  O   UNL     1      20.122  44.978  49.047  1.00  0.00    -0.267 OA
HETATM   14  H   UNL     1      21.630  43.540  48.116  1.00  0.00     0.171 HD
BRANCH  12  15
HETATM   15  C   UNL     1      21.334  46.848  48.397  1.00  0.00     0.037 A 
HETATM   16  C   UNL     1      20.350  47.797  48.120  1.00  0.00     0.054 A 
HETATM   17  C   UNL     1      20.664  49.162  48.164  1.00  0.00     0.071 A 
HETATM   18  C   UNL     1      21.934  49.573  48.580  1.00  0.00     0.073 A 
HETATM   19  C   UNL     1      22.888  48.623  48.942  1.00  0.00     0.071 A 
HETATM   20  C   UNL     1      22.602  47.267  48.818  1.00  0.00     0.054 A 
BRANCH  17  21
HETATM   21  O   UNL     1      19.647  49.993  47.774  1.00  0.00    -0.356 OA
HETATM   22  C   UNL     1      19.719  51.345  48.220  1.00  0.00     0.210 C 
ENDBRANCH  17  21
BRANCH  19  23
HETATM   23  O   UNL     1      24.145  48.938  49.381  1.00  0.00    -0.356 OA
HETATM   24  C   UNL     1      24.885  49.751  48.471  1.00  0.00     0.210 C 
ENDBRANCH  19  23
ENDBRANCH  12  15
ENDBRANCH   9  11
ENDBRANCH   7   9
ENDBRANCH   1   7
BRANCH   4  25
HETATM   25  N   UNL     1      25.666  43.591  52.960  1.00  0.00    -0.378 N 
HETATM   26  C   UNL     1      25.269  44.609  53.953  1.00  0.00     0.150 C 
HETATM   27  C   UNL     1      26.405  45.625  54.207  1.00  0.00     0.255 C 
HETATM   28  N   UNL     1      27.694  44.898  54.585  1.00  0.00    -0.064 N 
HETATM   29  H   UNL     1      27.499  44.368  55.449  1.00  0.00     0.280 HD
HETATM   30  C   UNL     1      28.071  43.877  53.510  1.00  0.00     0.255 C 
HETATM   31  C   UNL     1      26.914  42.876  53.300  1.00  0.00     0.150 C 
BRANCH  28  32
HETATM   32  C   UNL     1      28.814  45.850  54.926  1.00  0.00     0.276 C 
BRANCH  32  33
HETATM   33  C   UNL     1      29.680  45.394  56.065  1.00  0.00     0.006 A 
HETATM   34  C   UNL     1      29.466  45.895  57.354  1.00  0.00     0.124 A 
HETATM   35  F   UNL     1      28.456  46.756  57.555  1.00  0.00    -0.206 F 
HETATM   36  C   UNL     1      30.240  45.488  58.435  1.00  0.00     0.043 A 
HETATM   37  C   UNL     1      31.264  44.566  58.230  1.00  0.00     0.003 A 
HETATM   38  C   UNL     1      31.507  44.065  56.950  1.00  0.00     0.001 A 
HETATM   39  C   UNL     1      30.722  44.479  55.869  1.00  0.00     0.012 A 
ENDBRANCH  32  33
ENDBRANCH  28  32
ENDBRANCH   4  25
TORSDOF 9
ENDMDL
MODEL 7
REMARK VINA RESULT:      -8.6      2.418      3.902
REMARK  9 active torsions:
REMARK  status: ('A' for Active; 'I' for Inactive)
REMARK    1  A    between atoms: O_2  and  C_3 
REMARK    2  A    between atoms: C_5  and  O_6 
REMARK    3  A    between atoms: C_9  and  C_10 
REMARK       I    between atoms: C_10  and  N_11 
REMARK    4  A    between atoms: N_11  and  C_12 
REMARK    5  A    between atoms: C_12  and  N_13 
REMARK    6  A    between atoms: N_13  and  C_14 
REMARK    7  A    between atoms: C_17  and  N_18 
REMARK    8  A    between atoms: N_21  and  C_23 
REMARK    9  A    between atoms: C_23  and  C_24 
ROOT
HETATM    1  C   UNL     1      22.018  49.041  48.555  1.00  0.00     0.034 A 
HETATM    2  C   UNL     1      21.844  47.663  48.434  1.00  0.00     0.032 A 
HETATM    3  C   UNL     1      22.833  46.760  48.863  1.00  0.00     0.031 A 
HETATM    4  C   UNL     1      24.041  47.193  49.415  1.00  0.00     0.030 A 
HETATM    5  C   UNL     1      24.225  48.587  49.468  1.00  0.00     0.031 A 
HETATM    6  C   UNL     1      23.237  49.496  49.048  1.00  0.00     0.032 A 
ENDROOT
BRANCH   1   7
HETATM    7  N   UNL     1      21.068  49.997  48.117  1.00  0.00    -0.333 N 
HETATM    8  H   UNL     1      21.226  50.377  47.191  1.00  0.00     0.168 HD
BRANCH   7   9
HETATM    9  C   UNL     1      20.084  50.614  48.838  1.00  0.00     0.179 C 
HETATM   10  S   UNL     1      19.456  52.149  48.575  1.00  0.00    -0.040 SA
BRANCH   9  11
HETATM   11  N   UNL     1      19.534  49.916  49.907  1.00  0.00    -0.299 N 
HETATM   12  C   UNL     1      18.721  48.827  50.240  1.00  0.00     0.258 C 
HETATM   13  O   UNL     1      18.652  48.495  51.424  1.00  0.00    -0.267 OA
HETATM   14  H   UNL     1      19.881  50.305  50.778  1.00  0.00     0.171 HD
BRANCH  12  15
HETATM   15  C   UNL     1      17.868  48.119  49.272  1.00  0.00     0.037 A 
HETATM   16  C   UNL     1      16.747  48.685  48.665  1.00  0.00     0.054 A 
HETATM   17  C   UNL     1      16.012  47.948  47.727  1.00  0.00     0.071 A 
HETATM   18  C   UNL     1      16.460  46.684  47.327  1.00  0.00     0.073 A 
HETATM   19  C   UNL     1      17.631  46.158  47.870  1.00  0.00     0.071 A 
HETATM   20  C   UNL     1      18.314  46.856  48.862  1.00  0.00     0.054 A 
BRANCH  17  21
HETATM   21  O   UNL     1      14.876  48.568  47.278  1.00  0.00    -0.356 OA
HETATM   22  C   UNL     1      14.637  48.525  45.874  1.00  0.00     0.210 C 
ENDBRANCH  17  21
BRANCH  19  23
HETATM   23  O   UNL     1      18.152  44.943  47.519  1.00  0.00    -0.356 OA
HETATM   24  C   UNL     1      19.574  44.941  47.395  1.00  0.00     0.210 C 
ENDBRANCH  19  23
ENDBRANCH  12  15
ENDBRANCH   9  11
ENDBRANCH   7   9
ENDBRANCH   1   7
BRANCH   4  25
HETATM   25  N   UNL     1      25.046  46.323  49.837  1.00  0.00    -0.378 N 
HETATM   26  C   UNL     1      24.729  45.013  50.440  1.00  0.00     0.150 C 
HETATM   27  C   UNL     1      24.732  45.085  51.984  1.00  0.00     0.255 C 
HETATM   28  N   UNL     1      26.054  45.666  52.485  1.00  0.00    -0.064 N 
HETATM   29  H   UNL     1      26.803  45.034  52.163  1.00  0.00     0.280 HD
HETATM   30  C   UNL     1      26.316  47.033  51.850  1.00  0.00     0.255 C 
HETATM   31  C   UNL     1      26.317  46.910  50.311  1.00  0.00     0.150 C 
BRANCH  28  32
HETATM   32  C   UNL     1      26.141  45.680  53.992  1.00  0.00     0.276 C 
BRANCH  32  33
HETATM   33  C   UNL     1      27.493  45.306  54.530  1.00  0.00     0.006 A 
HETATM   34  C   UNL     1      28.183  46.185  55.371  1.00  0.00     0.124 A 
HETATM   35  F   UNL     1      27.600  47.345  55.713  1.00  0.00    -0.206 F 
HETATM   36  C   UNL     1      29.430  45.869  55.897  1.00  0.00     0.043 A 
HETATM   37  C   UNL     1      30.016  44.648  55.570  1.00  0.00     0.003 A 
HETATM   38  C   UNL     1      29.355  43.762  54.719  1.00  0.00     0.001 A 
HETATM   39  C   UNL     1      28.100  44.088  54.196  1.00  0.00     0.012 A 
ENDBRANCH  32  33
ENDBRANCH  28  32
ENDBRANCH   4  25
TORSDOF 9
ENDMDL
MODEL 8
REMARK VINA RESULT:      -8.6      1.673      3.034
REMARK  9 active torsions:
REMARK  status: ('A' for Active; 'I' for Inactive)
REMARK    1  A    between atoms: O_2  and  C_3 
REMARK    2  A    between atoms: C_5  and  O_6 
REMARK    3  A    between atoms: C_9  and  C_10 
REMARK       I    between atoms: C_10  and  N_11 
REMARK    4  A    between atoms: N_11  and  C_12 
REMARK    5  A    between atoms: C_12  and  N_13 
REMARK    6  A    between atoms: N_13  and  C_14 
REMARK    7  A    between atoms: C_17  and  N_18 
REMARK    8  A    between atoms: N_21  and  C_23 
REMARK    9  A    between atoms: C_23  and  C_24 
ROOT
HETATM    1  C   UNL     1      22.312  45.931  48.000  1.00  0.00     0.034 A 
HETATM    2  C   UNL     1      23.160  44.862  48.282  1.00  0.00     0.032 A 
HETATM    3  C   UNL     1      24.325  45.034  49.052  1.00  0.00     0.031 A 
HETATM    4  C   UNL     1      24.699  46.282  49.557  1.00  0.00     0.030 A 
HETATM    5  C   UNL     1      23.865  47.360  49.207  1.00  0.00     0.031 A 
HETATM    6  C   UNL     1      22.694  47.193  48.445  1.00  0.00     0.032 A 
ENDROOT
BRANCH   1   7
HETATM    7  N   UNL     1      21.140  45.822  47.210  1.00  0.00    -0.333 N 
HETATM    8  H   UNL     1      21.278  45.470  46.270  1.00  0.00     0.168 HD
BRANCH   7   9
HETATM    9  C   UNL     1      19.886  46.299  47.473  1.00  0.00     0.179 C 
HETATM   10  S   UNL     1      18.860  45.803  48.707  1.00  0.00    -0.040 SA
BRANCH   9  11
HETATM   11  N   UNL     1      19.389  47.297  46.643  1.00  0.00    -0.299 N 
HETATM   12  C   UNL     1      19.200  48.678  46.535  1.00  0.00     0.258 C 
HETATM   13  O   UNL     1      18.828  49.131  45.451  1.00  0.00    -0.267 OA
HETATM   14  H   UNL     1      19.088  46.886  45.764  1.00  0.00     0.171 HD
BRANCH  12  15
HETATM   15  C   UNL     1      19.324  49.611  47.667  1.00  0.00     0.037 A 
HETATM   16  C   UNL     1      18.247  50.036  48.444  1.00  0.00     0.054 A 
HETATM   17  C   UNL     1      18.463  50.900  49.526  1.00  0.00     0.071 A 
HETATM   18  C   UNL     1      19.767  51.254  49.887  1.00  0.00     0.073 A 
HETATM   19  C   UNL     1      20.848  50.755  49.161  1.00  0.00     0.071 A 
HETATM   20  C   UNL     1      20.627  49.966  48.037  1.00  0.00     0.054 A 
BRANCH  17  21
HETATM   21  O   UNL     1      17.321  51.330  50.150  1.00  0.00    -0.356 OA
HETATM   22  C   UNL     1      16.902  52.662  49.868  1.00  0.00     0.210 C 
ENDBRANCH  17  21
BRANCH  19  23
HETATM   23  O   UNL     1      22.154  51.032  49.458  1.00  0.00    -0.356 OA
HETATM   24  C   UNL     1      23.019  51.012  48.322  1.00  0.00     0.210 C 
ENDBRANCH  19  23
ENDBRANCH  12  15
ENDBRANCH   9  11
ENDBRANCH   7   9
ENDBRANCH   1   7
BRANCH   4  25
HETATM   25  N   UNL     1      25.854  46.488  50.312  1.00  0.00    -0.378 N 
HETATM   26  C   UNL     1      27.062  45.662  50.112  1.00  0.00     0.150 C 
HETATM   27  C   UNL     1      27.123  44.495  51.122  1.00  0.00     0.255 C 
HETATM   28  N   UNL     1      26.993  45.021  52.551  1.00  0.00    -0.064 N 
HETATM   29  H   UNL     1      27.785  45.663  52.710  1.00  0.00     0.280 HD
HETATM   30  C   UNL     1      25.711  45.844  52.706  1.00  0.00     0.255 C 
HETATM   31  C   UNL     1      25.700  47.004  51.688  1.00  0.00     0.150 C 
BRANCH  28  32
HETATM   32  C   UNL     1      27.130  43.928  53.582  1.00  0.00     0.276 C 
BRANCH  32  33
HETATM   33  C   UNL     1      28.371  44.031  54.422  1.00  0.00     0.006 A 
HETATM   34  C   UNL     1      29.294  42.979  54.446  1.00  0.00     0.124 A 
HETATM   35  F   UNL     1      29.066  41.901  53.679  1.00  0.00    -0.206 F 
HETATM   36  C   UNL     1      30.458  43.044  55.202  1.00  0.00     0.043 A 
HETATM   37  C   UNL     1      30.710  44.181  55.966  1.00  0.00     0.003 A 
HETATM   38  C   UNL     1      29.796  45.235  55.972  1.00  0.00     0.001 A 
HETATM   39  C   UNL     1      28.628  45.163  55.207  1.00  0.00     0.012 A 
ENDBRANCH  32  33
ENDBRANCH  28  32
ENDBRANCH   4  25
TORSDOF 9
ENDMDL
MODEL 9
REMARK VINA RESULT:      -8.5      3.011      4.779
REMARK  9 active torsions:
REMARK  status: ('A' for Active; 'I' for Inactive)
REMARK    1  A    between atoms: O_2  and  C_3 
REMARK    2  A    between atoms: C_5  and  O_6 
REMARK    3  A    between atoms: C_9  and  C_10 
REMARK       I    between atoms: C_10  and  N_11 
REMARK    4  A    between atoms: N_11  and  C_12 
REMARK    5  A    between atoms: C_12  and  N_13 
REMARK    6  A    between atoms: N_13  and  C_14 
REMARK    7  A    between atoms: C_17  and  N_18 
REMARK    8  A    between atoms: N_21  and  C_23 
REMARK    9  A    between atoms: C_23  and  C_24 
ROOT
HETATM    1  C   UNL     1      24.509  44.357  48.967  1.00  0.00     0.034 A 
HETATM    2  C   UNL     1      23.968  45.107  50.009  1.00  0.00     0.032 A 
HETATM    3  C   UNL     1      24.358  44.895  51.344  1.00  0.00     0.031 A 
HETATM    4  C   UNL     1      25.291  43.916  51.694  1.00  0.00     0.030 A 
HETATM    5  C   UNL     1      25.776  43.126  50.636  1.00  0.00     0.031 A 
HETATM    6  C   UNL     1      25.397  43.338  49.298  1.00  0.00     0.032 A 
ENDROOT
BRANCH   1   7
HETATM    7  N   UNL     1      24.135  44.510  47.608  1.00  0.00    -0.333 N 
HETATM    8  H   UNL     1      24.587  45.270  47.114  1.00  0.00     0.168 HD
BRANCH   7   9
HETATM    9  C   UNL     1      23.118  43.900  46.930  1.00  0.00     0.179 C 
HETATM   10  S   UNL     1      22.508  42.359  47.204  1.00  0.00    -0.040 SA
BRANCH   9  11
HETATM   11  N   UNL     1      22.512  44.610  45.900  1.00  0.00    -0.299 N 
HETATM   12  C   UNL     1      21.675  45.696  45.624  1.00  0.00     0.258 C 
HETATM   13  O   UNL     1      21.547  46.048  44.450  1.00  0.00    -0.267 OA
HETATM   14  H   UNL     1      22.821  44.239  45.007  1.00  0.00     0.171 HD
BRANCH  12  15
HETATM   15  C   UNL     1      20.861  46.380  46.643  1.00  0.00     0.037 A 
HETATM   16  C   UNL     1      19.527  46.071  46.906  1.00  0.00     0.054 A 
HETATM   17  C   UNL     1      18.839  46.751  47.920  1.00  0.00     0.071 A 
HETATM   18  C   UNL     1      19.517  47.666  48.732  1.00  0.00     0.073 A 
HETATM   19  C   UNL     1      20.874  47.907  48.522  1.00  0.00     0.071 A 
HETATM   20  C   UNL     1      21.535  47.294  47.462  1.00  0.00     0.054 A 
BRANCH  17  21
HETATM   21  O   UNL     1      17.509  46.435  48.017  1.00  0.00    -0.356 OA
HETATM   22  C   UNL     1      16.738  47.194  48.944  1.00  0.00     0.210 C 
ENDBRANCH  17  21
BRANCH  19  23
HETATM   23  O   UNL     1      21.619  48.768  49.282  1.00  0.00    -0.356 OA
HETATM   24  C   UNL     1      23.027  48.552  49.182  1.00  0.00     0.210 C 
ENDBRANCH  19  23
ENDBRANCH  12  15
ENDBRANCH   9  11
ENDBRANCH   7   9
ENDBRANCH   1   7
BRANCH   4  25
HETATM   25  N   UNL     1      25.688  43.671  53.009  1.00  0.00    -0.378 N 
HETATM   26  C   UNL     1      25.294  44.570  54.112  1.00  0.00     0.150 C 
HETATM   27  C   UNL     1      26.398  45.605  54.422  1.00  0.00     0.255 C 
HETATM   28  N   UNL     1      27.730  44.901  54.676  1.00  0.00    -0.064 N 
HETATM   29  H   UNL     1      27.594  44.282  55.490  1.00  0.00     0.280 HD
HETATM   30  C   UNL     1      28.101  44.008  53.490  1.00  0.00     0.255 C 
HETATM   31  C   UNL     1      26.978  42.983  53.227  1.00  0.00     0.150 C 
BRANCH  28  32
HETATM   32  C   UNL     1      28.825  45.864  55.065  1.00  0.00     0.276 C 
BRANCH  32  33
HETATM   33  C   UNL     1      29.760  45.336  56.116  1.00  0.00     0.006 A 
HETATM   34  C   UNL     1      29.691  45.820  57.426  1.00  0.00     0.124 A 
HETATM   35  F   UNL     1      28.755  46.733  57.731  1.00  0.00    -0.206 F 
HETATM   36  C   UNL     1      30.533  45.346  58.426  1.00  0.00     0.043 A 
HETATM   37  C   UNL     1      31.478  44.372  58.116  1.00  0.00     0.003 A 
HETATM   38  C   UNL     1      31.577  43.886  56.812  1.00  0.00     0.001 A 
HETATM   39  C   UNL     1      30.726  44.367  55.812  1.00  0.00     0.012 A 
ENDBRANCH  32  33
ENDBRANCH  28  32
ENDBRANCH   4  25
TORSDOF 9
ENDMDL
MODEL 10
REMARK VINA RESULT:      -8.4      1.608      2.134
REMARK  9 active torsions:
REMARK  status: ('A' for Active; 'I' for Inactive)
REMARK    1  A    between atoms: O_2  and  C_3 
REMARK    2  A    between atoms: C_5  and  O_6 
REMARK    3  A    between atoms: C_9  and  C_10 
REMARK       I    between atoms: C_10  and  N_11 
REMARK    4  A    between atoms: N_11  and  C_12 
REMARK    5  A    between atoms: C_12  and  N_13 
REMARK    6  A    between atoms: N_13  and  C_14 
REMARK    7  A    between atoms: C_17  and  N_18 
REMARK    8  A    between atoms: N_21  and  C_23 
REMARK    9  A    between atoms: C_23  and  C_24 
ROOT
HETATM    1  C   UNL     1      21.348  46.244  48.434  1.00  0.00     0.034 A 
HETATM    2  C   UNL     1      22.234  47.269  48.762  1.00  0.00     0.032 A 
HETATM    3  C   UNL     1      23.550  46.995  49.177  1.00  0.00     0.031 A 
HETATM    4  C   UNL     1      24.031  45.689  49.297  1.00  0.00     0.030 A 
HETATM    5  C   UNL     1      23.102  44.668  49.025  1.00  0.00     0.031 A 
HETATM    6  C   UNL     1      21.787  44.934  48.601  1.00  0.00     0.032 A 
ENDROOT
BRANCH   1   7
HETATM    7  N   UNL     1      20.006  46.460  48.036  1.00  0.00    -0.333 N 
HETATM    8  H   UNL     1      19.315  46.393  48.773  1.00  0.00     0.168 HD
BRANCH   7   9
HETATM    9  C   UNL     1      19.497  46.557  46.771  1.00  0.00     0.179 C 
HETATM   10  S   UNL     1      20.023  45.728  45.408  1.00  0.00    -0.040 SA
BRANCH   9  11
HETATM   11  N   UNL     1      18.434  47.431  46.569  1.00  0.00    -0.299 N 
HETATM   12  C   UNL     1      18.008  48.748  46.767  1.00  0.00     0.258 C 
HETATM   13  O   UNL     1      16.960  49.107  46.227  1.00  0.00    -0.267 OA
HETATM   14  H   UNL     1      17.707  46.959  46.039  1.00  0.00     0.171 HD
BRANCH  12  15
HETATM   15  C   UNL     1      18.685  49.699  47.664  1.00  0.00     0.037 A 
HETATM   16  C   UNL     1      20.022  50.072  47.532  1.00  0.00     0.054 A 
HETATM   17  C   UNL     1      20.576  51.013  48.410  1.00  0.00     0.071 A 
HETATM   18  C   UNL     1      19.763  51.650  49.353  1.00  0.00     0.073 A 
HETATM   19  C   UNL     1      18.406  51.339  49.423  1.00  0.00     0.071 A 
HETATM   20  C   UNL     1      17.876  50.345  48.607  1.00  0.00     0.054 A 
BRANCH  17  21
HETATM   21  O   UNL     1      21.921  51.222  48.249  1.00  0.00    -0.356 OA
HETATM   22  C   UNL     1      22.754  50.912  49.362  1.00  0.00     0.210 C 
ENDBRANCH  17  21
BRANCH  19  23
HETATM   23  O   UNL     1      17.535  51.929  50.299  1.00  0.00    -0.356 OA
HETATM   24  C   UNL     1      16.229  52.136  49.760  1.00  0.00     0.210 C 
ENDBRANCH  19  23
ENDBRANCH  12  15
ENDBRANCH   9  11
ENDBRANCH   7   9
ENDBRANCH   1   7
BRANCH   4  25
HETATM   25  N   UNL     1      25.325  45.384  49.718  1.00  0.00    -0.378 N 
HETATM   26  C   UNL     1      25.737  43.994  49.998  1.00  0.00     0.150 C 
HETATM   27  C   UNL     1      25.627  43.663  51.503  1.00  0.00     0.255 C 
HETATM   28  N   UNL     1      26.399  44.690  52.331  1.00  0.00    -0.064 N 
HETATM   29  H   UNL     1      27.385  44.639  52.033  1.00  0.00     0.280 HD
HETATM   30  C   UNL     1      25.911  46.107  52.021  1.00  0.00     0.255 C 
HETATM   31  C   UNL     1      26.052  46.398  50.511  1.00  0.00     0.150 C 
BRANCH  28  32
HETATM   32  C   UNL     1      26.392  44.364  53.805  1.00  0.00     0.276 C 
BRANCH  32  33
HETATM   33  C   UNL     1      27.759  44.306  54.425  1.00  0.00     0.006 A 
HETATM   34  C   UNL     1      28.563  43.175  54.249  1.00  0.00     0.124 A 
HETATM   35  F   UNL     1      28.106  42.167  53.490  1.00  0.00    -0.206 F 
HETATM   36  C   UNL     1      29.837  43.090  54.798  1.00  0.00     0.043 A 
HETATM   37  C   UNL     1      30.325  44.154  55.554  1.00  0.00     0.003 A 
HETATM   38  C   UNL     1      29.534  45.285  55.758  1.00  0.00     0.001 A 
HETATM   39  C   UNL     1      28.254  45.363  55.200  1.00  0.00     0.012 A 
ENDBRANCH  32  33
ENDBRANCH  28  32
ENDBRANCH   4  25
TORSDOF 9
ENDMDL
