MODEL 1
REMARK VINA RESULT:      -8.7      0.000      0.000
REMARK  8 active torsions:
REMARK  status: ('A' for Active; 'I' for Inactive)
REMARK    1  A    between atoms: C_2  and  N_3 
REMARK    2  A    between atoms: N_3  and  C_5 
REMARK    3  A    between atoms: N_3  and  C_30 
REMARK    4  A    between atoms: C_5  and  C_6 
REMARK    5  A    between atoms: C_6  and  N_7 
REMARK       I    between atoms: N_7  and  C_8 
REMARK    6  A    between atoms: C_8  and  C_9 
REMARK    7  A    between atoms: C_9  and  O_10 
REMARK    8  A    between atoms: N_11  and  C_12 
ROOT
HETATM    1  C   UNL     1      27.668  43.472  52.156  1.00  0.00     0.256 C 
HETATM    2  N   UNL     1      27.551  43.665  53.605  1.00  0.00    -0.254 N 
HETATM    3  C   UNL     1      26.269  43.652  54.154  1.00  0.00     0.330 C 
HETATM    4  O   UNL     1      25.973  43.391  55.318  1.00  0.00    -0.246 OA
HETATM    5  N   UNL     1      25.249  44.041  53.316  1.00  0.00    -0.308 N 
HETATM    6  C   UNL     1      25.429  44.524  52.020  1.00  0.00     0.048 A 
HETATM    7  C   UNL     1      26.653  44.291  51.395  1.00  0.00     0.034 A 
HETATM    8  C   UNL     1      24.393  45.183  51.363  1.00  0.00     0.030 A 
HETATM    9  C   UNL     1      24.592  45.638  50.060  1.00  0.00     0.002 A 
HETATM   10  C   UNL     1      25.813  45.422  49.422  1.00  0.00     0.001 A 
HETATM   11  C   UNL     1      26.839  44.745  50.082  1.00  0.00     0.015 A 
HETATM   12  H   UNL     1      24.369  44.200  53.795  1.00  0.00     0.170 HD
ENDROOT
BRANCH   1  13
HETATM   13  C   UNL     1      27.484  41.911  51.874  1.00  0.00     0.279 C 
HETATM   14  N   UNL     1      26.312  41.480  51.272  1.00  0.00    -0.355 N 
HETATM   15  H   UNL     1      25.686  42.183  50.892  1.00  0.00     0.162 HD
HETATM   16  O   UNL     1      28.324  41.079  52.236  1.00  0.00    -0.268 OA
BRANCH  14  17
HETATM   17  C   UNL     1      26.158  40.108  50.829  1.00  0.00     0.150 C 
BRANCH  17  18
HETATM   18  C   UNL     1      26.719  39.850  49.419  1.00  0.00     0.254 C 
BRANCH  18  19
HETATM   19  N   UNL     1      28.232  39.625  49.394  1.00  0.00    -0.070 N 
HETATM   20  H   UNL     1      28.581  40.085  50.246  1.00  0.00     0.279 HD
BRANCH  19  21
HETATM   21  C   UNL     1      28.948  40.317  48.243  1.00  0.00     0.230 C 
HETATM   22  C   UNL     1      27.972  40.851  47.213  1.00  0.00     0.034 C 
ENDBRANCH  19  21
BRANCH  19  23
HETATM   23  C   UNL     1      28.673  38.176  49.501  1.00  0.00     0.230 C 
HETATM   24  C   UNL     1      29.755  37.994  50.548  1.00  0.00     0.034 C 
ENDBRANCH  19  23
ENDBRANCH  18  19
ENDBRANCH  17  18
ENDBRANCH  14  17
ENDBRANCH   1  13
BRANCH   1  25
HETATM   25  O   UNL     1      28.967  43.797  51.661  1.00  0.00    -0.359 OA
HETATM   26  H   UNL     1      28.821  44.112  50.748  1.00  0.00     0.213 HD
ENDBRANCH   1  25
BRANCH   2  27
HETATM   27  C   UNL     1      28.700  43.737  54.455  1.00  0.00     0.043 A 
HETATM   28  C   UNL     1      28.891  44.850  55.288  1.00  0.00     0.037 A 
HETATM   29  C   UNL     1      29.965  44.932  56.194  1.00  0.00    -0.054 A 
HETATM   30  C   UNL     1      30.091  46.145  57.075  1.00  0.00     0.049 C 
HETATM   31  C   UNL     1      30.878  43.867  56.271  1.00  0.00    -0.056 A 
HETATM   32  C   UNL     1      32.017  43.874  57.255  1.00  0.00     0.049 C 
HETATM   33  C   UNL     1      30.677  42.741  55.461  1.00  0.00     0.009 A 
HETATM   34  C   UNL     1      29.599  42.676  54.571  1.00  0.00     0.030 A 
ENDBRANCH   2  27
TORSDOF 8
ENDMDL
MODEL 2
REMARK VINA RESULT:      -8.0      3.632      7.061
REMARK  8 active torsions:
REMARK  status: ('A' for Active; 'I' for Inactive)
REMARK    1  A    between atoms: C_2  and  N_3 
REMARK    2  A    between atoms: N_3  and  C_5 
REMARK    3  A    between atoms: N_3  and  C_30 
REMARK    4  A    between atoms: C_5  and  C_6 
REMARK    5  A    between atoms: C_6  and  N_7 
REMARK       I    between atoms: N_7  and  C_8 
REMARK    6  A    between atoms: C_8  and  C_9 
REMARK    7  A    between atoms: C_9  and  O_10 
REMARK    8  A    between atoms: N_11  and  C_12 
ROOT
HETATM    1  C   UNL     1      24.864  44.967  51.280  1.00  0.00     0.256 C 
HETATM    2  N   UNL     1      26.324  44.891  51.402  1.00  0.00    -0.254 N 
HETATM    3  C   UNL     1      27.062  44.762  50.227  1.00  0.00     0.330 C 
HETATM    4  O   UNL     1      28.237  45.080  50.060  1.00  0.00    -0.246 OA
HETATM    5  N   UNL     1      26.419  44.150  49.174  1.00  0.00    -0.308 N 
HETATM    6  C   UNL     1      25.147  43.583  49.244  1.00  0.00     0.048 A 
HETATM    7  C   UNL     1      24.326  43.939  50.313  1.00  0.00     0.034 A 
HETATM    8  C   UNL     1      24.703  42.720  48.245  1.00  0.00     0.030 A 
HETATM    9  C   UNL     1      23.419  42.183  48.328  1.00  0.00     0.002 A 
HETATM   10  C   UNL     1      22.587  42.521  49.395  1.00  0.00     0.001 A 
HETATM   11  C   UNL     1      23.033  43.401  50.382  1.00  0.00     0.015 A 
HETATM   12  H   UNL     1      27.038  43.905  48.408  1.00  0.00     0.170 HD
ENDROOT
BRANCH   1  13
HETATM   13  C   UNL     1      24.510  46.451  50.808  1.00  0.00     0.279 C 
HETATM   14  N   UNL     1      23.780  46.619  49.642  1.00  0.00    -0.355 N 
HETATM   15  H   UNL     1      23.365  45.795  49.217  1.00  0.00     0.162 HD
HETATM   16  O   UNL     1      24.922  47.445  51.416  1.00  0.00    -0.268 OA
BRANCH  14  17
HETATM   17  C   UNL     1      23.274  47.921  49.254  1.00  0.00     0.150 C 
BRANCH  17  18
HETATM   18  C   UNL     1      21.792  47.907  48.838  1.00  0.00     0.254 C 
BRANCH  18  19
HETATM   19  N   UNL     1      20.903  48.799  49.705  1.00  0.00    -0.070 N 
HETATM   20  H   UNL     1      21.199  48.605  50.672  1.00  0.00     0.279 HD
BRANCH  19  21
HETATM   21  C   UNL     1      19.424  48.443  49.659  1.00  0.00     0.230 C 
HETATM   22  C   UNL     1      18.688  48.941  50.887  1.00  0.00     0.034 C 
ENDBRANCH  19  21
BRANCH  19  23
HETATM   23  C   UNL     1      21.098  50.292  49.509  1.00  0.00     0.230 C 
HETATM   24  C   UNL     1      20.699  50.732  48.113  1.00  0.00     0.034 C 
ENDBRANCH  19  23
ENDBRANCH  18  19
ENDBRANCH  17  18
ENDBRANCH  14  17
ENDBRANCH   1  13
BRANCH   1  25
HETATM   25  O   UNL     1      24.197  44.796  52.531  1.00  0.00    -0.359 OA
HETATM   26  H   UNL     1      23.339  45.250  52.427  1.00  0.00     0.213 HD
ENDBRANCH   1  25
BRANCH   2  27
HETATM   27  C   UNL     1      26.989  45.069  52.657  1.00  0.00     0.043 A 
HETATM   28  C   UNL     1      27.901  44.105  53.113  1.00  0.00     0.037 A 
HETATM   29  C   UNL     1      28.633  44.272  54.303  1.00  0.00    -0.054 A 
HETATM   30  C   UNL     1      29.614  43.209  54.716  1.00  0.00     0.049 C 
HETATM   31  C   UNL     1      28.450  45.440  55.062  1.00  0.00    -0.056 A 
HETATM   32  C   UNL     1      29.241  45.699  56.316  1.00  0.00     0.049 C 
HETATM   33  C   UNL     1      27.561  46.418  54.597  1.00  0.00     0.009 A 
HETATM   34  C   UNL     1      26.846  46.237  53.408  1.00  0.00     0.030 A 
ENDBRANCH   2  27
TORSDOF 8
ENDMDL
MODEL 3
REMARK VINA RESULT:      -7.9     11.378     14.545
REMARK  8 active torsions:
REMARK  status: ('A' for Active; 'I' for Inactive)
REMARK    1  A    between atoms: C_2  and  N_3 
REMARK    2  A    between atoms: N_3  and  C_5 
REMARK    3  A    between atoms: N_3  and  C_30 
REMARK    4  A    between atoms: C_5  and  C_6 
REMARK    5  A    between atoms: C_6  and  N_7 
REMARK       I    between atoms: N_7  and  C_8 
REMARK    6  A    between atoms: C_8  and  C_9 
REMARK    7  A    between atoms: C_9  and  O_10 
REMARK    8  A    between atoms: N_11  and  C_12 
ROOT
HETATM    1  C   UNL     1      28.030  49.480  40.924  1.00  0.00     0.256 C 
HETATM    2  N   UNL     1      27.322  48.557  40.030  1.00  0.00    -0.254 N 
HETATM    3  C   UNL     1      27.743  48.497  38.703  1.00  0.00     0.330 C 
HETATM    4  O   UNL     1      27.589  47.558  37.926  1.00  0.00    -0.246 OA
HETATM    5  N   UNL     1      28.329  49.638  38.202  1.00  0.00    -0.308 N 
HETATM    6  C   UNL     1      28.433  50.844  38.895  1.00  0.00     0.048 A 
HETATM    7  C   UNL     1      28.257  50.826  40.278  1.00  0.00     0.034 A 
HETATM    8  C   UNL     1      28.746  52.021  38.220  1.00  0.00     0.030 A 
HETATM    9  C   UNL     1      28.865  53.210  38.939  1.00  0.00     0.002 A 
HETATM   10  C   UNL     1      28.683  53.212  40.322  1.00  0.00     0.001 A 
HETATM   11  C   UNL     1      28.387  52.024  40.993  1.00  0.00     0.015 A 
HETATM   12  H   UNL     1      28.449  49.625  37.195  1.00  0.00     0.170 HD
ENDROOT
BRANCH   1  13
HETATM   13  C   UNL     1      29.411  48.783  41.318  1.00  0.00     0.279 C 
HETATM   14  N   UNL     1      30.234  49.417  42.236  1.00  0.00    -0.355 N 
HETATM   15  H   UNL     1      29.861  50.216  42.739  1.00  0.00     0.162 HD
HETATM   16  O   UNL     1      29.791  47.736  40.782  1.00  0.00    -0.268 OA
BRANCH  14  17
HETATM   17  C   UNL     1      31.410  48.758  42.769  1.00  0.00     0.150 C 
BRANCH  17  18
HETATM   18  C   UNL     1      32.733  49.316  42.214  1.00  0.00     0.254 C 
BRANCH  18  19
HETATM   19  N   UNL     1      32.793  50.843  42.191  1.00  0.00    -0.070 N 
HETATM   20  H   UNL     1      31.811  51.146  42.260  1.00  0.00     0.279 HD
BRANCH  19  21
HETATM   21  C   UNL     1      33.302  51.430  40.882  1.00  0.00     0.230 C 
HETATM   22  C   UNL     1      32.195  52.117  40.105  1.00  0.00     0.034 C 
ENDBRANCH  19  21
BRANCH  19  23
HETATM   23  C   UNL     1      33.502  51.482  43.372  1.00  0.00     0.230 C 
HETATM   24  C   UNL     1      32.532  51.844  44.481  1.00  0.00     0.034 C 
ENDBRANCH  19  23
ENDBRANCH  18  19
ENDBRANCH  17  18
ENDBRANCH  14  17
ENDBRANCH   1  13
BRANCH   1  25
HETATM   25  O   UNL     1      27.341  49.686  42.158  1.00  0.00    -0.359 OA
HETATM   26  H   UNL     1      28.032  49.955  42.794  1.00  0.00     0.213 HD
ENDBRANCH   1  25
BRANCH   2  27
HETATM   27  C   UNL     1      26.321  47.653  40.512  1.00  0.00     0.043 A 
HETATM   28  C   UNL     1      26.698  46.485  41.192  1.00  0.00     0.037 A 
HETATM   29  C   UNL     1      25.751  45.605  41.749  1.00  0.00    -0.054 A 
HETATM   30  C   UNL     1      26.228  44.386  42.489  1.00  0.00     0.049 C 
HETATM   31  C   UNL     1      24.384  45.901  41.621  1.00  0.00    -0.056 A 
HETATM   32  C   UNL     1      23.326  45.026  42.238  1.00  0.00     0.049 C 
HETATM   33  C   UNL     1      24.003  47.080  40.966  1.00  0.00     0.009 A 
HETATM   34  C   UNL     1      24.960  47.946  40.425  1.00  0.00     0.030 A 
ENDBRANCH   2  27
TORSDOF 8
ENDMDL
MODEL 4
REMARK VINA RESULT:      -7.6      2.474      6.608
REMARK  8 active torsions:
REMARK  status: ('A' for Active; 'I' for Inactive)
REMARK    1  A    between atoms: C_2  and  N_3 
REMARK    2  A    between atoms: N_3  and  C_5 
REMARK    3  A    between atoms: N_3  and  C_30 
REMARK    4  A    between atoms: C_5  and  C_6 
REMARK    5  A    between atoms: C_6  and  N_7 
REMARK       I    between atoms: N_7  and  C_8 
REMARK    6  A    between atoms: C_8  and  C_9 
REMARK    7  A    between atoms: C_9  and  O_10 
REMARK    8  A    between atoms: N_11  and  C_12 
ROOT
HETATM    1  C   UNL     1      24.931  44.231  51.470  1.00  0.00     0.256 C 
HETATM    2  N   UNL     1      25.364  45.192  50.450  1.00  0.00    -0.254 N 
HETATM    3  C   UNL     1      26.723  45.233  50.140  1.00  0.00     0.330 C 
HETATM    4  O   UNL     1      27.224  45.633  49.093  1.00  0.00    -0.246 OA
HETATM    5  N   UNL     1      27.583  44.849  51.145  1.00  0.00    -0.308 N 
HETATM    6  C   UNL     1      27.191  44.526  52.443  1.00  0.00     0.048 A 
HETATM    7  C   UNL     1      25.846  44.234  52.671  1.00  0.00     0.034 A 
HETATM    8  C   UNL     1      28.131  44.457  53.468  1.00  0.00     0.030 A 
HETATM    9  C   UNL     1      27.716  44.111  54.753  1.00  0.00     0.002 A 
HETATM   10  C   UNL     1      26.374  43.825  55.002  1.00  0.00     0.001 A 
HETATM   11  C   UNL     1      25.441  43.879  53.965  1.00  0.00     0.015 A 
HETATM   12  H   UNL     1      28.554  45.069  50.953  1.00  0.00     0.170 HD
ENDROOT
BRANCH   1  13
HETATM   13  C   UNL     1      24.890  42.795  50.774  1.00  0.00     0.279 C 
HETATM   14  N   UNL     1      25.946  41.924  50.990  1.00  0.00    -0.355 N 
HETATM   15  H   UNL     1      26.627  42.168  51.703  1.00  0.00     0.162 HD
HETATM   16  O   UNL     1      23.980  42.468  50.003  1.00  0.00    -0.268 OA
BRANCH  14  17
HETATM   17  C   UNL     1      25.889  40.548  50.537  1.00  0.00     0.150 C 
BRANCH  17  18
HETATM   18  C   UNL     1      27.227  40.027  49.981  1.00  0.00     0.254 C 
BRANCH  18  19
HETATM   19  N   UNL     1      28.222  39.614  51.066  1.00  0.00    -0.070 N 
HETATM   20  H   UNL     1      27.654  39.118  51.769  1.00  0.00     0.279 HD
BRANCH  19  21
HETATM   21  C   UNL     1      28.854  40.780  51.812  1.00  0.00     0.230 C 
HETATM   22  C   UNL     1      28.480  40.777  53.281  1.00  0.00     0.034 C 
ENDBRANCH  19  21
BRANCH  19  23
HETATM   23  C   UNL     1      29.285  38.623  50.626  1.00  0.00     0.230 C 
HETATM   24  C   UNL     1      29.415  38.572  49.116  1.00  0.00     0.034 C 
ENDBRANCH  19  23
ENDBRANCH  18  19
ENDBRANCH  17  18
ENDBRANCH  14  17
ENDBRANCH   1  13
BRANCH   1  25
HETATM   25  O   UNL     1      23.598  44.473  51.923  1.00  0.00    -0.359 OA
HETATM   26  H   UNL     1      23.286  43.614  52.268  1.00  0.00     0.213 HD
ENDBRANCH   1  25
BRANCH   2  27
HETATM   27  C   UNL     1      24.428  45.974  49.700  1.00  0.00     0.043 A 
HETATM   28  C   UNL     1      23.633  45.366  48.716  1.00  0.00     0.037 A 
HETATM   29  C   UNL     1      22.648  46.077  48.006  1.00  0.00    -0.054 A 
HETATM   30  C   UNL     1      21.813  45.354  46.985  1.00  0.00     0.049 C 
HETATM   31  C   UNL     1      22.452  47.440  48.286  1.00  0.00    -0.056 A 
HETATM   32  C   UNL     1      21.380  48.241  47.596  1.00  0.00     0.049 C 
HETATM   33  C   UNL     1      23.225  48.045  49.286  1.00  0.00     0.009 A 
HETATM   34  C   UNL     1      24.195  47.319  49.986  1.00  0.00     0.030 A 
ENDBRANCH   2  27
TORSDOF 8
ENDMDL
MODEL 5
REMARK VINA RESULT:      -7.5     12.226     14.960
REMARK  8 active torsions:
REMARK  status: ('A' for Active; 'I' for Inactive)
REMARK    1  A    between atoms: C_2  and  N_3 
REMARK    2  A    between atoms: N_3  and  C_5 
REMARK    3  A    between atoms: N_3  and  C_30 
REMARK    4  A    between atoms: C_5  and  C_6 
REMARK    5  A    between atoms: C_6  and  N_7 
REMARK       I    between atoms: N_7  and  C_8 
REMARK    6  A    between atoms: C_8  and  C_9 
REMARK    7  A    between atoms: C_9  and  O_10 
REMARK    8  A    between atoms: N_11  and  C_12 
ROOT
HETATM    1  C   UNL     1      28.303  49.749  41.047  1.00  0.00     0.256 C 
HETATM    2  N   UNL     1      27.784  48.683  40.183  1.00  0.00    -0.254 N 
HETATM    3  C   UNL     1      28.366  48.533  38.926  1.00  0.00     0.330 C 
HETATM    4  O   UNL     1      28.382  47.512  38.242  1.00  0.00    -0.246 OA
HETATM    5  N   UNL     1      28.916  49.669  38.375  1.00  0.00    -0.308 N 
HETATM    6  C   UNL     1      28.840  50.941  38.941  1.00  0.00     0.048 A 
HETATM    7  C   UNL     1      28.500  51.041  40.290  1.00  0.00     0.034 A 
HETATM    8  C   UNL     1      29.139  52.070  38.184  1.00  0.00     0.030 A 
HETATM    9  C   UNL     1      29.075  53.329  38.779  1.00  0.00     0.002 A 
HETATM   10  C   UNL     1      28.728  53.449  40.124  1.00  0.00     0.001 A 
HETATM   11  C   UNL     1      28.448  52.310  40.882  1.00  0.00     0.015 A 
HETATM   12  H   UNL     1      29.158  49.568  37.395  1.00  0.00     0.170 HD
ENDROOT
BRANCH   1  13
HETATM   13  C   UNL     1      29.677  49.223  41.666  1.00  0.00     0.279 C 
HETATM   14  N   UNL     1      30.867  49.709  41.147  1.00  0.00    -0.355 N 
HETATM   15  H   UNL     1      30.821  50.493  40.503  1.00  0.00     0.162 HD
HETATM   16  O   UNL     1      29.707  48.354  42.545  1.00  0.00    -0.268 OA
BRANCH  14  17
HETATM   17  C   UNL     1      32.138  49.411  41.777  1.00  0.00     0.150 C 
BRANCH  17  18
HETATM   18  C   UNL     1      33.160  50.557  41.673  1.00  0.00     0.254 C 
BRANCH  18  19
HETATM   19  N   UNL     1      34.000  50.516  40.397  1.00  0.00    -0.070 N 
HETATM   20  H   UNL     1      33.800  49.596  39.979  1.00  0.00     0.279 HD
BRANCH  19  21
HETATM   21  C   UNL     1      35.504  50.528  40.636  1.00  0.00     0.230 C 
HETATM   22  C   UNL     1      35.838  50.459  42.113  1.00  0.00     0.034 C 
ENDBRANCH  19  21
BRANCH  19  23
HETATM   23  C   UNL     1      33.621  51.537  39.339  1.00  0.00     0.230 C 
HETATM   24  C   UNL     1      32.635  52.559  39.873  1.00  0.00     0.034 C 
ENDBRANCH  19  23
ENDBRANCH  18  19
ENDBRANCH  17  18
ENDBRANCH  14  17
ENDBRANCH   1  13
BRANCH   1  25
HETATM   25  O   UNL     1      27.456  50.012  42.167  1.00  0.00    -0.359 OA
HETATM   26  H   UNL     1      27.728  49.367  42.848  1.00  0.00     0.213 HD
ENDBRANCH   1  25
BRANCH   2  27
HETATM   27  C   UNL     1      26.807  47.743  40.644  1.00  0.00     0.043 A 
HETATM   28  C   UNL     1      25.441  47.989  40.435  1.00  0.00     0.037 A 
HETATM   29  C   UNL     1      24.449  47.062  40.803  1.00  0.00    -0.054 A 
HETATM   30  C   UNL     1      23.006  47.381  40.524  1.00  0.00     0.049 C 
HETATM   31  C   UNL     1      24.833  45.849  41.399  1.00  0.00    -0.056 A 
HETATM   32  C   UNL     1      23.823  44.796  41.768  1.00  0.00     0.049 C 
HETATM   33  C   UNL     1      26.197  45.587  41.585  1.00  0.00     0.009 A 
HETATM   34  C   UNL     1      27.170  46.519  41.206  1.00  0.00     0.030 A 
ENDBRANCH   2  27
TORSDOF 8
ENDMDL
MODEL 6
REMARK VINA RESULT:      -7.4     12.020     16.970
REMARK  8 active torsions:
REMARK  status: ('A' for Active; 'I' for Inactive)
REMARK    1  A    between atoms: C_2  and  N_3 
REMARK    2  A    between atoms: N_3  and  C_5 
REMARK    3  A    between atoms: N_3  and  C_30 
REMARK    4  A    between atoms: C_5  and  C_6 
REMARK    5  A    between atoms: C_6  and  N_7 
REMARK       I    between atoms: N_7  and  C_8 
REMARK    6  A    between atoms: C_8  and  C_9 
REMARK    7  A    between atoms: C_9  and  O_10 
REMARK    8  A    between atoms: N_11  and  C_12 
ROOT
HETATM    1  C   UNL     1      18.276  51.936  47.963  1.00  0.00     0.256 C 
HETATM    2  N   UNL     1      17.424  51.362  46.916  1.00  0.00    -0.254 N 
HETATM    3  C   UNL     1      17.096  50.011  47.022  1.00  0.00     0.330 C 
HETATM    4  O   UNL     1      16.120  49.453  46.527  1.00  0.00    -0.246 OA
HETATM    5  N   UNL     1      18.002  49.220  47.693  1.00  0.00    -0.308 N 
HETATM    6  C   UNL     1      19.235  49.660  48.171  1.00  0.00     0.048 A 
HETATM    7  C   UNL     1      19.440  51.034  48.298  1.00  0.00     0.034 A 
HETATM    8  C   UNL     1      20.213  48.744  48.551  1.00  0.00     0.030 A 
HETATM    9  C   UNL     1      21.430  49.210  49.046  1.00  0.00     0.002 A 
HETATM   10  C   UNL     1      21.656  50.580  49.171  1.00  0.00     0.001 A 
HETATM   11  C   UNL     1      20.664  51.492  48.806  1.00  0.00     0.015 A 
HETATM   12  H   UNL     1      17.828  48.226  47.588  1.00  0.00     0.170 HD
ENDROOT
BRANCH   1  13
HETATM   13  C   UNL     1      17.349  52.186  49.238  1.00  0.00     0.279 C 
HETATM   14  N   UNL     1      16.669  53.390  49.337  1.00  0.00    -0.355 N 
HETATM   15  H   UNL     1      16.662  54.001  48.525  1.00  0.00     0.162 HD
HETATM   16  O   UNL     1      17.273  51.368  50.161  1.00  0.00    -0.268 OA
BRANCH  14  17
HETATM   17  C   UNL     1      15.678  53.610  50.371  1.00  0.00     0.150 C 
BRANCH  17  18
HETATM   18  C   UNL     1      14.354  54.190  49.841  1.00  0.00     0.254 C 
BRANCH  18  19
HETATM   19  N   UNL     1      14.504  55.567  49.194  1.00  0.00    -0.070 N 
HETATM   20  H   UNL     1      15.512  55.660  49.004  1.00  0.00     0.279 HD
BRANCH  19  21
HETATM   21  C   UNL     1      14.159  56.732  50.111  1.00  0.00     0.230 C 
HETATM   22  C   UNL     1      15.403  57.401  50.661  1.00  0.00     0.034 C 
ENDBRANCH  19  21
BRANCH  19  23
HETATM   23  C   UNL     1      13.818  55.728  47.848  1.00  0.00     0.230 C 
HETATM   24  C   UNL     1      12.680  54.740  47.676  1.00  0.00     0.034 C 
ENDBRANCH  19  23
ENDBRANCH  18  19
ENDBRANCH  17  18
ENDBRANCH  14  17
ENDBRANCH   1  13
BRANCH   1  25
HETATM   25  O   UNL     1      18.792  53.219  47.610  1.00  0.00    -0.359 OA
HETATM   26  H   UNL     1      18.628  53.305  46.651  1.00  0.00     0.213 HD
ENDBRANCH   1  25
BRANCH   2  27
HETATM   27  C   UNL     1      16.837  52.169  45.890  1.00  0.00     0.043 A 
HETATM   28  C   UNL     1      17.437  52.242  44.623  1.00  0.00     0.037 A 
HETATM   29  C   UNL     1      16.858  52.961  43.561  1.00  0.00    -0.054 A 
HETATM   30  C   UNL     1      17.544  52.973  42.222  1.00  0.00     0.049 C 
HETATM   31  C   UNL     1      15.641  53.631  43.771  1.00  0.00    -0.056 A 
HETATM   32  C   UNL     1      14.948  54.375  42.662  1.00  0.00     0.049 C 
HETATM   33  C   UNL     1      15.024  53.539  45.026  1.00  0.00     0.009 A 
HETATM   34  C   UNL     1      15.612  52.813  46.068  1.00  0.00     0.030 A 
ENDBRANCH   2  27
TORSDOF 8
ENDMDL
MODEL 7
REMARK VINA RESULT:      -7.3      3.411      6.769
REMARK  8 active torsions:
REMARK  status: ('A' for Active; 'I' for Inactive)
REMARK    1  A    between atoms: C_2  and  N_3 
REMARK    2  A    between atoms: N_3  and  C_5 
REMARK    3  A    between atoms: N_3  and  C_30 
REMARK    4  A    between atoms: C_5  and  C_6 
REMARK    5  A    between atoms: C_6  and  N_7 
REMARK       I    between atoms: N_7  and  C_8 
REMARK    6  A    between atoms: C_8  and  C_9 
REMARK    7  A    between atoms: C_9  and  O_10 
REMARK    8  A    between atoms: N_11  and  C_12 
ROOT
HETATM    1  C   UNL     1      25.166  43.646  51.117  1.00  0.00     0.256 C 
HETATM    2  N   UNL     1      26.104  44.772  51.184  1.00  0.00    -0.254 N 
HETATM    3  C   UNL     1      26.791  45.108  50.019  1.00  0.00     0.330 C 
HETATM    4  O   UNL     1      27.280  46.201  49.745  1.00  0.00    -0.246 OA
HETATM    5  N   UNL     1      26.998  44.082  49.123  1.00  0.00    -0.308 N 
HETATM    6  C   UNL     1      26.656  42.750  49.352  1.00  0.00     0.048 A 
HETATM    7  C   UNL     1      25.753  42.469  50.376  1.00  0.00     0.034 A 
HETATM    8  C   UNL     1      27.175  41.740  48.546  1.00  0.00     0.030 A 
HETATM    9  C   UNL     1      26.801  40.418  48.782  1.00  0.00     0.002 A 
HETATM   10  C   UNL     1      25.905  40.117  49.808  1.00  0.00     0.001 A 
HETATM   11  C   UNL     1      25.376  41.137  50.599  1.00  0.00     0.015 A 
HETATM   12  H   UNL     1      27.656  44.314  48.387  1.00  0.00     0.170 HD
ENDROOT
BRANCH   1  13
HETATM   13  C   UNL     1      23.842  44.182  50.403  1.00  0.00     0.279 C 
HETATM   14  N   UNL     1      23.920  45.341  49.647  1.00  0.00    -0.355 N 
HETATM   15  H   UNL     1      24.841  45.717  49.446  1.00  0.00     0.162 HD
HETATM   16  O   UNL     1      22.747  43.631  50.561  1.00  0.00    -0.268 OA
BRANCH  14  17
HETATM   17  C   UNL     1      22.804  45.780  48.832  1.00  0.00     0.150 C 
BRANCH  17  18
HETATM   18  C   UNL     1      22.578  47.303  48.869  1.00  0.00     0.254 C 
BRANCH  18  19
HETATM   19  N   UNL     1      21.474  47.781  47.926  1.00  0.00    -0.070 N 
HETATM   20  H   UNL     1      21.695  47.346  47.019  1.00  0.00     0.279 HD
BRANCH  19  21
HETATM   21  C   UNL     1      21.481  49.281  47.663  1.00  0.00     0.230 C 
HETATM   22  C   UNL     1      22.861  49.879  47.858  1.00  0.00     0.034 C 
ENDBRANCH  19  21
BRANCH  19  23
HETATM   23  C   UNL     1      20.074  47.309  48.275  1.00  0.00     0.230 C 
HETATM   24  C   UNL     1      19.509  48.058  49.467  1.00  0.00     0.034 C 
ENDBRANCH  19  23
ENDBRANCH  18  19
ENDBRANCH  17  18
ENDBRANCH  14  17
ENDBRANCH   1  13
BRANCH   1  25
HETATM   25  O   UNL     1      24.749  43.200  52.408  1.00  0.00    -0.359 OA
HETATM   26  H   UNL     1      24.839  43.980  52.989  1.00  0.00     0.213 HD
ENDBRANCH   1  25
BRANCH   2  27
HETATM   27  C   UNL     1      26.227  45.587  52.355  1.00  0.00     0.043 A 
HETATM   28  C   UNL     1      27.206  45.292  53.317  1.00  0.00     0.037 A 
HETATM   29  C   UNL     1      27.414  46.106  54.446  1.00  0.00    -0.054 A 
HETATM   30  C   UNL     1      28.500  45.744  55.422  1.00  0.00     0.049 C 
HETATM   31  C   UNL     1      26.618  47.251  54.621  1.00  0.00    -0.056 A 
HETATM   32  C   UNL     1      26.827  48.188  55.780  1.00  0.00     0.049 C 
HETATM   33  C   UNL     1      25.659  47.564  53.649  1.00  0.00     0.009 A 
HETATM   34  C   UNL     1      25.471  46.746  52.529  1.00  0.00     0.030 A 
ENDBRANCH   2  27
TORSDOF 8
ENDMDL
MODEL 8
REMARK VINA RESULT:      -7.2     11.966     14.649
REMARK  8 active torsions:
REMARK  status: ('A' for Active; 'I' for Inactive)
REMARK    1  A    between atoms: C_2  and  N_3 
REMARK    2  A    between atoms: N_3  and  C_5 
REMARK    3  A    between atoms: N_3  and  C_30 
REMARK    4  A    between atoms: C_5  and  C_6 
REMARK    5  A    between atoms: C_6  and  N_7 
REMARK       I    between atoms: N_7  and  C_8 
REMARK    6  A    between atoms: C_8  and  C_9 
REMARK    7  A    between atoms: C_9  and  O_10 
REMARK    8  A    between atoms: N_11  and  C_12 
ROOT
HETATM    1  C   UNL     1      27.170  47.979  40.442  1.00  0.00     0.256 C 
HETATM    2  N   UNL     1      28.495  48.406  39.978  1.00  0.00    -0.254 N 
HETATM    3  C   UNL     1      29.153  47.583  39.065  1.00  0.00     0.330 C 
HETATM    4  O   UNL     1      30.027  47.922  38.271  1.00  0.00    -0.246 OA
HETATM    5  N   UNL     1      28.833  46.245  39.117  1.00  0.00    -0.308 N 
HETATM    6  C   UNL     1      27.987  45.670  40.065  1.00  0.00     0.048 A 
HETATM    7  C   UNL     1      27.144  46.510  40.791  1.00  0.00     0.034 A 
HETATM    8  C   UNL     1      27.963  44.289  40.244  1.00  0.00     0.030 A 
HETATM    9  C   UNL     1      27.094  43.737  41.183  1.00  0.00     0.002 A 
HETATM   10  C   UNL     1      26.249  44.563  41.925  1.00  0.00     0.001 A 
HETATM   11  C   UNL     1      26.267  45.944  41.727  1.00  0.00     0.015 A 
HETATM   12  H   UNL     1      29.459  45.657  38.578  1.00  0.00     0.170 HD
ENDROOT
BRANCH   1  13
HETATM   13  C   UNL     1      26.133  48.319  39.277  1.00  0.00     0.279 C 
HETATM   14  N   UNL     1      25.363  49.466  39.389  1.00  0.00    -0.355 N 
HETATM   15  H   UNL     1      25.595  50.125  40.126  1.00  0.00     0.162 HD
HETATM   16  O   UNL     1      25.956  47.559  38.318  1.00  0.00    -0.268 OA
BRANCH  14  17
HETATM   17  C   UNL     1      24.536  49.925  38.291  1.00  0.00     0.150 C 
BRANCH  17  18
HETATM   18  C   UNL     1      23.037  49.630  38.483  1.00  0.00     0.254 C 
BRANCH  18  19
HETATM   19  N   UNL     1      22.531  49.923  39.895  1.00  0.00    -0.070 N 
HETATM   20  H   UNL     1      23.383  50.030  40.464  1.00  0.00     0.279 HD
BRANCH  19  21
HETATM   21  C   UNL     1      21.764  48.775  40.536  1.00  0.00     0.230 C 
HETATM   22  C   UNL     1      22.533  47.471  40.454  1.00  0.00     0.034 C 
ENDBRANCH  19  21
BRANCH  19  23
HETATM   23  C   UNL     1      21.768  51.226  40.052  1.00  0.00     0.230 C 
HETATM   24  C   UNL     1      20.642  51.100  41.061  1.00  0.00     0.034 C 
ENDBRANCH  19  23
ENDBRANCH  18  19
ENDBRANCH  17  18
ENDBRANCH  14  17
ENDBRANCH   1  13
BRANCH   1  25
HETATM   25  O   UNL     1      26.722  48.717  41.579  1.00  0.00    -0.359 OA
HETATM   26  H   UNL     1      27.051  49.626  41.439  1.00  0.00     0.213 HD
ENDBRANCH   1  25
BRANCH   2  27
HETATM   27  C   UNL     1      29.050  49.676  40.337  1.00  0.00     0.043 A 
HETATM   28  C   UNL     1      30.015  49.760  41.353  1.00  0.00     0.037 A 
HETATM   29  C   UNL     1      30.643  50.973  41.690  1.00  0.00    -0.054 A 
HETATM   30  C   UNL     1      31.688  50.983  42.772  1.00  0.00     0.049 C 
HETATM   31  C   UNL     1      30.296  52.141  40.990  1.00  0.00    -0.056 A 
HETATM   32  C   UNL     1      30.969  53.458  41.269  1.00  0.00     0.049 C 
HETATM   33  C   UNL     1      29.354  52.057  39.956  1.00  0.00     0.009 A 
HETATM   34  C   UNL     1      28.745  50.840  39.631  1.00  0.00     0.030 A 
ENDBRANCH   2  27
TORSDOF 8
ENDMDL
MODEL 9
REMARK VINA RESULT:      -7.1      3.516      8.268
REMARK  8 active torsions:
REMARK  status: ('A' for Active; 'I' for Inactive)
REMARK    1  A    between atoms: C_2  and  N_3 
REMARK    2  A    between atoms: N_3  and  C_5 
REMARK    3  A    between atoms: N_3  and  C_30 
REMARK    4  A    between atoms: C_5  and  C_6 
REMARK    5  A    between atoms: C_6  and  N_7 
REMARK       I    between atoms: N_7  and  C_8 
REMARK    6  A    between atoms: C_8  and  C_9 
REMARK    7  A    between atoms: C_9  and  O_10 
REMARK    8  A    between atoms: N_11  and  C_12 
ROOT
HETATM    1  C   UNL     1      26.452  44.010  50.083  1.00  0.00     0.256 C 
HETATM    2  N   UNL     1      25.044  43.599  50.043  1.00  0.00    -0.254 N 
HETATM    3  C   UNL     1      24.233  43.976  51.111  1.00  0.00     0.330 C 
HETATM    4  O   UNL     1      23.010  44.098  51.096  1.00  0.00    -0.246 OA
HETATM    5  N   UNL     1      24.870  44.159  52.318  1.00  0.00    -0.308 N 
HETATM    6  C   UNL     1      26.221  43.902  52.548  1.00  0.00     0.048 A 
HETATM    7  C   UNL     1      27.065  43.785  51.444  1.00  0.00     0.034 A 
HETATM    8  C   UNL     1      26.711  43.811  53.847  1.00  0.00     0.030 A 
HETATM    9  C   UNL     1      28.070  43.574  54.050  1.00  0.00     0.002 A 
HETATM   10  C   UNL     1      28.928  43.445  52.958  1.00  0.00     0.001 A 
HETATM   11  C   UNL     1      28.431  43.556  51.658  1.00  0.00     0.015 A 
HETATM   12  H   UNL     1      24.234  44.246  53.104  1.00  0.00     0.170 HD
ENDROOT
BRANCH   1  13
HETATM   13  C   UNL     1      26.501  45.552  49.671  1.00  0.00     0.279 C 
HETATM   14  N   UNL     1      25.336  46.299  49.758  1.00  0.00    -0.355 N 
HETATM   15  H   UNL     1      24.537  45.882  50.226  1.00  0.00     0.162 HD
HETATM   16  O   UNL     1      27.526  46.075  49.219  1.00  0.00    -0.268 OA
BRANCH  14  17
HETATM   17  C   UNL     1      25.350  47.736  49.571  1.00  0.00     0.150 C 
BRANCH  17  18
HETATM   18  C   UNL     1      23.951  48.376  49.610  1.00  0.00     0.254 C 
BRANCH  18  19
HETATM   19  N   UNL     1      23.396  48.723  48.228  1.00  0.00    -0.070 N 
HETATM   20  H   UNL     1      24.003  48.217  47.567  1.00  0.00     0.279 HD
BRANCH  19  21
HETATM   21  C   UNL     1      23.528  50.191  47.851  1.00  0.00     0.230 C 
HETATM   22  C   UNL     1      22.839  51.094  48.856  1.00  0.00     0.034 C 
ENDBRANCH  19  21
BRANCH  19  23
HETATM   23  C   UNL     1      21.988  48.226  47.952  1.00  0.00     0.230 C 
HETATM   24  C   UNL     1      21.825  46.764  48.322  1.00  0.00     0.034 C 
ENDBRANCH  19  23
ENDBRANCH  18  19
ENDBRANCH  17  18
ENDBRANCH  14  17
ENDBRANCH   1  13
BRANCH   1  25
HETATM   25  O   UNL     1      27.251  43.332  49.114  1.00  0.00    -0.359 OA
HETATM   26  H   UNL     1      26.618  42.815  48.577  1.00  0.00     0.213 HD
ENDBRANCH   1  25
BRANCH   2  27
HETATM   27  C   UNL     1      24.477  42.947  48.901  1.00  0.00     0.043 A 
HETATM   28  C   UNL     1      23.953  43.708  47.845  1.00  0.00     0.037 A 
HETATM   29  C   UNL     1      23.454  43.114  46.670  1.00  0.00    -0.054 A 
HETATM   30  C   UNL     1      22.933  43.994  45.567  1.00  0.00     0.049 C 
HETATM   31  C   UNL     1      23.479  41.715  46.547  1.00  0.00    -0.056 A 
HETATM   32  C   UNL     1      23.008  41.024  45.295  1.00  0.00     0.049 C 
HETATM   33  C   UNL     1      24.027  40.952  47.587  1.00  0.00     0.009 A 
HETATM   34  C   UNL     1      24.524  41.561  48.745  1.00  0.00     0.030 A 
ENDBRANCH   2  27
TORSDOF 8
ENDMDL
MODEL 10
REMARK VINA RESULT:      -7.0      1.406      2.056
REMARK  8 active torsions:
REMARK  status: ('A' for Active; 'I' for Inactive)
REMARK    1  A    between atoms: C_2  and  N_3 
REMARK    2  A    between atoms: N_3  and  C_5 
REMARK    3  A    between atoms: N_3  and  C_30 
REMARK    4  A    between atoms: C_5  and  C_6 
REMARK    5  A    between atoms: C_6  and  N_7 
REMARK       I    between atoms: N_7  and  C_8 
REMARK    6  A    between atoms: C_8  and  C_9 
REMARK    7  A    between atoms: C_9  and  O_10 
REMARK    8  A    between atoms: N_11  and  C_12 
ROOT
HETATM    1  C   UNL     1      27.123  44.734  51.180  1.00  0.00     0.256 C 
HETATM    2  N   UNL     1      26.918  44.509  52.616  1.00  0.00    -0.254 N 
HETATM    3  C   UNL     1      25.608  44.542  53.092  1.00  0.00     0.330 C 
HETATM    4  O   UNL     1      25.185  44.003  54.111  1.00  0.00    -0.246 OA
HETATM    5  N   UNL     1      24.725  45.319  52.376  1.00  0.00    -0.308 N 
HETATM    6  C   UNL     1      25.076  46.126  51.295  1.00  0.00     0.048 A 
HETATM    7  C   UNL     1      26.300  45.893  50.669  1.00  0.00     0.034 A 
HETATM    8  C   UNL     1      24.202  47.106  50.832  1.00  0.00     0.030 A 
HETATM    9  C   UNL     1      24.567  47.886  49.736  1.00  0.00     0.002 A 
HETATM   10  C   UNL     1      25.792  47.673  49.104  1.00  0.00     0.001 A 
HETATM   11  C   UNL     1      26.655  46.675  49.562  1.00  0.00     0.015 A 
HETATM   12  H   UNL     1      23.841  45.470  52.851  1.00  0.00     0.170 HD
ENDROOT
BRANCH   1  13
HETATM   13  C   UNL     1      26.740  43.375  50.434  1.00  0.00     0.279 C 
HETATM   14  N   UNL     1      25.981  42.437  51.115  1.00  0.00    -0.355 N 
HETATM   15  H   UNL     1      25.565  42.712  52.001  1.00  0.00     0.162 HD
HETATM   16  O   UNL     1      27.155  43.114  49.300  1.00  0.00    -0.268 OA
BRANCH  14  17
HETATM   17  C   UNL     1      25.451  41.268  50.441  1.00  0.00     0.150 C 
BRANCH  17  18
HETATM   18  C   UNL     1      26.294  39.998  50.656  1.00  0.00     0.254 C 
BRANCH  18  19
HETATM   19  N   UNL     1      26.982  39.497  49.385  1.00  0.00    -0.070 N 
HETATM   20  H   UNL     1      26.885  38.472  49.420  1.00  0.00     0.279 HD
BRANCH  19  21
HETATM   21  C   UNL     1      28.482  39.756  49.342  1.00  0.00     0.230 C 
HETATM   22  C   UNL     1      29.275  38.542  49.785  1.00  0.00     0.034 C 
ENDBRANCH  19  21
BRANCH  19  23
HETATM   23  C   UNL     1      26.330  39.926  48.083  1.00  0.00     0.230 C 
HETATM   24  C   UNL     1      27.238  39.684  46.893  1.00  0.00     0.034 C 
ENDBRANCH  19  23
ENDBRANCH  18  19
ENDBRANCH  17  18
ENDBRANCH  14  17
ENDBRANCH   1  13
BRANCH   1  25
HETATM   25  O   UNL     1      28.491  44.977  50.852  1.00  0.00    -0.359 OA
HETATM   26  H   UNL     1      28.551  45.941  50.708  1.00  0.00     0.213 HD
ENDBRANCH   1  25
BRANCH   2  27
HETATM   27  C   UNL     1      27.994  44.142  53.486  1.00  0.00     0.043 A 
HETATM   28  C   UNL     1      28.486  45.064  54.423  1.00  0.00     0.037 A 
HETATM   29  C   UNL     1      29.490  44.726  55.349  1.00  0.00    -0.054 A 
HETATM   30  C   UNL     1      29.950  45.757  56.343  1.00  0.00     0.049 C 
HETATM   31  C   UNL     1      30.021  43.425  55.338  1.00  0.00    -0.056 A 
HETATM   32  C   UNL     1      31.060  42.988  56.335  1.00  0.00     0.049 C 
HETATM   33  C   UNL     1      29.514  42.493  54.423  1.00  0.00     0.009 A 
HETATM   34  C   UNL     1      28.510  42.846  53.514  1.00  0.00     0.030 A 
ENDBRANCH   2  27
TORSDOF 8
ENDMDL
