MODEL 1
REMARK VINA RESULT:      -9.6      0.000      0.000
REMARK  8 active torsions:
REMARK  status: ('A' for Active; 'I' for Inactive)
REMARK    1  A    between atoms: O_1  and  C_2 
REMARK    2  A    between atoms: C_2  and  CA_3 
REMARK    3  A    between atoms: CA_3  and  N_4 
REMARK    4  A    between atoms: CA_3  and  C_23 
REMARK       I    between atoms: N_4  and  C_5 
REMARK    5  A    between atoms: C_5  and  C_7 
REMARK    6  A    between atoms: C_10  and  C_17 
REMARK    7  A    between atoms: C_11  and  O_12 
REMARK    8  A    between atoms: O_12  and  C_13 
ROOT
HETATM    1  C   UNL     1      27.077  46.206  53.893  1.00  0.00     0.034 A 
HETATM    2  C   UNL     1      27.674  47.025  54.856  1.00  0.00     0.018 A 
HETATM    3  C   UNL     1      28.697  46.528  55.670  1.00  0.00     0.016 A 
HETATM    4  C   UNL     1      29.133  45.199  55.551  1.00  0.00     0.011 A 
HETATM    5  C   UNL     1      28.499  44.369  54.608  1.00  0.00     0.087 A 
HETATM    6  C   UNL     1      27.489  44.873  53.776  1.00  0.00     0.054 A 
ENDROOT
BRANCH   1   7
HETATM    7  C   UNL     1      26.003  46.784  53.035  1.00  0.00     0.252 C 
HETATM    8  N   UNL     1      25.814  46.176  51.812  1.00  0.00    -0.346 N 
HETATM    9  H   UNL     1      26.586  45.648  51.433  1.00  0.00     0.163 HD
HETATM   10  O   UNL     1      25.380  47.765  53.420  1.00  0.00    -0.268 OA
BRANCH   8  11
HETATM   11  CA  UNL     1      24.887  46.693  50.805  1.00  0.00     0.141 C 
BRANCH  11  12
HETATM   12  C   UNL     1      24.175  45.552  50.043  1.00  0.00     0.194 C 
BRANCH  12  13
HETATM   13  O   UNL     1      23.492  44.699  50.972  1.00  0.00    -0.399 OA
HETATM   14  H   UNL     1      23.401  45.210  51.796  1.00  0.00     0.209 HD
ENDBRANCH  12  13
ENDBRANCH  11  12
BRANCH  11  15
HETATM   15  C   UNL     1      25.524  47.783  49.958  1.00  0.00    -0.033 A 
HETATM   16  C   UNL     1      24.775  48.719  49.229  1.00  0.00     0.009 A 
HETATM   17  C   UNL     1      25.407  49.711  48.475  1.00  0.00     0.001 A 
HETATM   18  C   UNL     1      26.797  49.775  48.424  1.00  0.00     0.000 A 
HETATM   19  C   UNL     1      27.558  48.843  49.124  1.00  0.00     0.001 A 
HETATM   20  C   UNL     1      26.927  47.855  49.883  1.00  0.00     0.009 A 
ENDBRANCH  11  15
ENDBRANCH   8  11
ENDBRANCH   1   7
BRANCH   5  21
HETATM   21  O   UNL     1      28.922  43.071  54.460  1.00  0.00    -0.289 OA
BRANCH  21  22
HETATM   22  C   UNL     1      29.259  42.761  53.114  1.00  0.00     0.505 C 
HETATM   23  F   UNL     1      30.535  43.166  52.884  1.00  0.00    -0.184 F 
HETATM   24  F   UNL     1      29.258  41.410  52.997  1.00  0.00    -0.184 F 
ENDBRANCH  21  22
ENDBRANCH   5  21
BRANCH   4  25
HETATM   25  C   UNL     1      30.216  44.718  56.398  1.00  0.00     0.013 A 
HETATM   26  C   UNL     1      31.174  43.695  56.197  1.00  0.00     0.152 A 
HETATM   27  N   UNL     1      32.014  43.564  57.228  1.00  0.00    -0.187 NA
HETATM   28  N   UNL     1      31.600  44.502  58.093  1.00  0.00    -0.289 N 
HETATM   29  H   UNL     1      32.098  44.597  58.973  1.00  0.00     0.188 HD
HETATM   30  C   UNL     1      30.527  45.218  57.646  1.00  0.00     0.123 A 
ENDBRANCH   4  25
TORSDOF 8
ENDMDL
MODEL 2
REMARK VINA RESULT:      -8.6      3.676      8.666
REMARK  8 active torsions:
REMARK  status: ('A' for Active; 'I' for Inactive)
REMARK    1  A    between atoms: O_1  and  C_2 
REMARK    2  A    between atoms: C_2  and  CA_3 
REMARK    3  A    between atoms: CA_3  and  N_4 
REMARK    4  A    between atoms: CA_3  and  C_23 
REMARK       I    between atoms: N_4  and  C_5 
REMARK    5  A    between atoms: C_5  and  C_7 
REMARK    6  A    between atoms: C_10  and  C_17 
REMARK    7  A    between atoms: C_11  and  O_12 
REMARK    8  A    between atoms: O_12  and  C_13 
ROOT
HETATM    1  C   UNL     1      25.952  45.314  49.951  1.00  0.00     0.034 A 
HETATM    2  C   UNL     1      24.620  44.988  49.684  1.00  0.00     0.018 A 
HETATM    3  C   UNL     1      23.696  45.991  49.372  1.00  0.00     0.016 A 
HETATM    4  C   UNL     1      24.080  47.341  49.338  1.00  0.00     0.011 A 
HETATM    5  C   UNL     1      25.413  47.665  49.649  1.00  0.00     0.087 A 
HETATM    6  C   UNL     1      26.345  46.658  49.940  1.00  0.00     0.054 A 
ENDROOT
BRANCH   1   7
HETATM    7  C   UNL     1      26.907  44.211  50.261  1.00  0.00     0.252 C 
HETATM    8  N   UNL     1      27.339  44.133  51.567  1.00  0.00    -0.346 N 
HETATM    9  H   UNL     1      27.281  44.973  52.125  1.00  0.00     0.163 HD
HETATM   10  O   UNL     1      27.286  43.467  49.363  1.00  0.00    -0.268 OA
BRANCH   8  11
HETATM   11  CA  UNL     1      28.365  43.187  52.008  1.00  0.00     0.141 C 
BRANCH  11  12
HETATM   12  C   UNL     1      27.873  41.725  51.918  1.00  0.00     0.194 C 
BRANCH  12  13
HETATM   13  O   UNL     1      28.560  41.046  50.858  1.00  0.00    -0.399 OA
HETATM   14  H   UNL     1      29.450  40.843  51.195  1.00  0.00     0.209 HD
ENDBRANCH  12  13
ENDBRANCH  11  12
BRANCH  11  15
HETATM   15  C   UNL     1      28.997  43.614  53.324  1.00  0.00    -0.033 A 
HETATM   16  C   UNL     1      30.113  42.970  53.877  1.00  0.00     0.009 A 
HETATM   17  C   UNL     1      30.667  43.407  55.084  1.00  0.00     0.001 A 
HETATM   18  C   UNL     1      30.105  44.484  55.764  1.00  0.00     0.000 A 
HETATM   19  C   UNL     1      28.984  45.123  55.241  1.00  0.00     0.001 A 
HETATM   20  C   UNL     1      28.434  44.691  54.033  1.00  0.00     0.009 A 
ENDBRANCH  11  15
ENDBRANCH   8  11
ENDBRANCH   1   7
BRANCH   5  21
HETATM   21  O   UNL     1      25.816  48.977  49.602  1.00  0.00    -0.289 OA
BRANCH  21  22
HETATM   22  C   UNL     1      26.755  49.218  48.562  1.00  0.00     0.505 C 
HETATM   23  F   UNL     1      26.256  50.181  47.745  1.00  0.00    -0.184 F 
HETATM   24  F   UNL     1      27.868  49.741  49.135  1.00  0.00    -0.184 F 
ENDBRANCH  21  22
ENDBRANCH   5  21
BRANCH   4  25
HETATM   25  C   UNL     1      23.099  48.360  48.987  1.00  0.00     0.013 A 
HETATM   26  C   UNL     1      22.827  49.627  49.556  1.00  0.00     0.152 A 
HETATM   27  N   UNL     1      21.835  50.270  48.933  1.00  0.00    -0.187 NA
HETATM   28  N   UNL     1      21.467  49.420  47.963  1.00  0.00    -0.289 N 
HETATM   29  H   UNL     1      20.713  49.696  47.343  1.00  0.00     0.188 HD
HETATM   30  C   UNL     1      22.190  48.261  47.954  1.00  0.00     0.123 A 
ENDBRANCH   4  25
TORSDOF 8
ENDMDL
MODEL 3
REMARK VINA RESULT:      -8.5      4.002      5.889
REMARK  8 active torsions:
REMARK  status: ('A' for Active; 'I' for Inactive)
REMARK    1  A    between atoms: O_1  and  C_2 
REMARK    2  A    between atoms: C_2  and  CA_3 
REMARK    3  A    between atoms: CA_3  and  N_4 
REMARK    4  A    between atoms: CA_3  and  C_23 
REMARK       I    between atoms: N_4  and  C_5 
REMARK    5  A    between atoms: C_5  and  C_7 
REMARK    6  A    between atoms: C_10  and  C_17 
REMARK    7  A    between atoms: C_11  and  O_12 
REMARK    8  A    between atoms: O_12  and  C_13 
ROOT
HETATM    1  C   UNL     1      28.512  43.667  52.933  1.00  0.00     0.034 A 
HETATM    2  C   UNL     1      29.705  43.039  53.300  1.00  0.00     0.018 A 
HETATM    3  C   UNL     1      30.330  43.360  54.510  1.00  0.00     0.016 A 
HETATM    4  C   UNL     1      29.785  44.328  55.369  1.00  0.00     0.011 A 
HETATM    5  C   UNL     1      28.606  44.986  54.973  1.00  0.00     0.087 A 
HETATM    6  C   UNL     1      27.967  44.648  53.771  1.00  0.00     0.054 A 
ENDROOT
BRANCH   1   7
HETATM    7  C   UNL     1      27.871  43.280  51.644  1.00  0.00     0.252 C 
HETATM    8  N   UNL     1      27.681  41.929  51.444  1.00  0.00    -0.346 N 
HETATM    9  H   UNL     1      28.266  41.297  51.971  1.00  0.00     0.163 HD
HETATM   10  O   UNL     1      27.584  44.144  50.825  1.00  0.00    -0.268 OA
BRANCH   8  11
HETATM   11  CA  UNL     1      27.178  41.376  50.186  1.00  0.00     0.141 C 
BRANCH  11  12
HETATM   12  C   UNL     1      25.640  41.221  50.204  1.00  0.00     0.194 C 
BRANCH  12  13
HETATM   13  O   UNL     1      25.069  42.150  51.135  1.00  0.00    -0.399 OA
HETATM   14  H   UNL     1      25.777  42.382  51.761  1.00  0.00     0.209 HD
ENDBRANCH  12  13
ENDBRANCH  11  12
BRANCH  11  15
HETATM   15  C   UNL     1      27.979  40.163  49.743  1.00  0.00    -0.033 A 
HETATM   16  C   UNL     1      27.980  39.691  48.422  1.00  0.00     0.009 A 
HETATM   17  C   UNL     1      28.745  38.578  48.059  1.00  0.00     0.001 A 
HETATM   18  C   UNL     1      29.507  37.910  49.014  1.00  0.00     0.000 A 
HETATM   19  C   UNL     1      29.504  38.351  50.334  1.00  0.00     0.001 A 
HETATM   20  C   UNL     1      28.745  39.466  50.696  1.00  0.00     0.009 A 
ENDBRANCH  11  15
ENDBRANCH   8  11
ENDBRANCH   1   7
BRANCH   5  21
HETATM   21  O   UNL     1      28.044  45.921  55.807  1.00  0.00    -0.289 OA
BRANCH  21  22
HETATM   22  C   UNL     1      27.527  47.039  55.096  1.00  0.00     0.505 C 
HETATM   23  F   UNL     1      26.873  47.843  55.973  1.00  0.00    -0.184 F 
HETATM   24  F   UNL     1      28.586  47.753  54.638  1.00  0.00    -0.184 F 
ENDBRANCH  21  22
ENDBRANCH   5  21
BRANCH   4  25
HETATM   25  C   UNL     1      30.448  44.624  56.632  1.00  0.00     0.013 A 
HETATM   26  C   UNL     1      31.414  43.900  57.371  1.00  0.00     0.152 A 
HETATM   27  N   UNL     1      31.778  44.523  58.495  1.00  0.00    -0.187 NA
HETATM   28  N   UNL     1      31.050  45.649  58.482  1.00  0.00    -0.289 N 
HETATM   29  H   UNL     1      31.159  46.300  59.253  1.00  0.00     0.188 HD
HETATM   30  C   UNL     1      30.236  45.757  57.390  1.00  0.00     0.123 A 
ENDBRANCH   4  25
TORSDOF 8
ENDMDL
MODEL 4
REMARK VINA RESULT:      -8.1      4.104      7.737
REMARK  8 active torsions:
REMARK  status: ('A' for Active; 'I' for Inactive)
REMARK    1  A    between atoms: O_1  and  C_2 
REMARK    2  A    between atoms: C_2  and  CA_3 
REMARK    3  A    between atoms: CA_3  and  N_4 
REMARK    4  A    between atoms: CA_3  and  C_23 
REMARK       I    between atoms: N_4  and  C_5 
REMARK    5  A    between atoms: C_5  and  C_7 
REMARK    6  A    between atoms: C_10  and  C_17 
REMARK    7  A    between atoms: C_11  and  O_12 
REMARK    8  A    between atoms: O_12  and  C_13 
ROOT
HETATM    1  C   UNL     1      27.376  42.918  52.925  1.00  0.00     0.034 A 
HETATM    2  C   UNL     1      28.070  41.717  53.095  1.00  0.00     0.018 A 
HETATM    3  C   UNL     1      28.217  40.828  52.026  1.00  0.00     0.016 A 
HETATM    4  C   UNL     1      27.660  41.113  50.769  1.00  0.00     0.011 A 
HETATM    5  C   UNL     1      26.927  42.304  50.616  1.00  0.00     0.087 A 
HETATM    6  C   UNL     1      26.799  43.207  51.682  1.00  0.00     0.054 A 
ENDROOT
BRANCH   1   7
HETATM    7  C   UNL     1      27.260  43.845  54.088  1.00  0.00     0.252 C 
HETATM    8  N   UNL     1      28.214  44.836  54.169  1.00  0.00    -0.346 N 
HETATM    9  H   UNL     1      29.086  44.680  53.684  1.00  0.00     0.163 HD
HETATM   10  O   UNL     1      26.375  43.670  54.917  1.00  0.00    -0.268 OA
BRANCH   8  11
HETATM   11  CA  UNL     1      28.315  45.749  55.308  1.00  0.00     0.141 C 
BRANCH  11  12
HETATM   12  C   UNL     1      28.304  47.228  54.859  1.00  0.00     0.194 C 
BRANCH  12  13
HETATM   13  O   UNL     1      27.186  47.907  55.447  1.00  0.00    -0.399 OA
HETATM   14  H   UNL     1      27.548  48.463  56.159  1.00  0.00     0.209 HD
ENDBRANCH  12  13
ENDBRANCH  11  12
BRANCH  11  15
HETATM   15  C   UNL     1      29.420  45.337  56.267  1.00  0.00    -0.033 A 
HETATM   16  C   UNL     1      29.570  45.895  57.545  1.00  0.00     0.009 A 
HETATM   17  C   UNL     1      30.595  45.474  58.396  1.00  0.00     0.001 A 
HETATM   18  C   UNL     1      31.496  44.498  57.977  1.00  0.00     0.000 A 
HETATM   19  C   UNL     1      31.377  43.946  56.705  1.00  0.00     0.001 A 
HETATM   20  C   UNL     1      30.349  44.363  55.857  1.00  0.00     0.009 A 
ENDBRANCH  11  15
ENDBRANCH   8  11
ENDBRANCH   1   7
BRANCH   5  21
HETATM   21  O   UNL     1      26.391  42.613  49.390  1.00  0.00    -0.289 OA
BRANCH  21  22
HETATM   22  C   UNL     1      24.970  42.565  49.393  1.00  0.00     0.505 C 
HETATM   23  F   UNL     1      24.520  43.045  48.206  1.00  0.00    -0.184 F 
HETATM   24  F   UNL     1      24.609  41.259  49.441  1.00  0.00    -0.184 F 
ENDBRANCH  21  22
ENDBRANCH   5  21
BRANCH   4  25
HETATM   25  C   UNL     1      27.850  40.177  49.669  1.00  0.00     0.013 A 
HETATM   26  C   UNL     1      28.704  40.224  48.541  1.00  0.00     0.152 A 
HETATM   27  N   UNL     1      28.581  39.150  47.755  1.00  0.00    -0.187 NA
HETATM   28  N   UNL     1      27.651  38.410  48.375  1.00  0.00    -0.289 N 
HETATM   29  H   UNL     1      27.383  37.525  47.956  1.00  0.00     0.188 HD
HETATM   30  C   UNL     1      27.179  38.980  49.523  1.00  0.00     0.123 A 
ENDBRANCH   4  25
TORSDOF 8
ENDMDL
MODEL 5
REMARK VINA RESULT:      -8.0      1.600      2.159
REMARK  8 active torsions:
REMARK  status: ('A' for Active; 'I' for Inactive)
REMARK    1  A    between atoms: O_1  and  C_2 
REMARK    2  A    between atoms: C_2  and  CA_3 
REMARK    3  A    between atoms: CA_3  and  N_4 
REMARK    4  A    between atoms: CA_3  and  C_23 
REMARK       I    between atoms: N_4  and  C_5 
REMARK    5  A    between atoms: C_5  and  C_7 
REMARK    6  A    between atoms: C_10  and  C_17 
REMARK    7  A    between atoms: C_11  and  O_12 
REMARK    8  A    between atoms: O_12  and  C_13 
ROOT
HETATM    1  C   UNL     1      25.854  45.395  52.938  1.00  0.00     0.034 A 
HETATM    2  C   UNL     1      26.048  46.622  53.576  1.00  0.00     0.018 A 
HETATM    3  C   UNL     1      26.996  46.745  54.598  1.00  0.00     0.016 A 
HETATM    4  C   UNL     1      27.756  45.641  55.014  1.00  0.00     0.011 A 
HETATM    5  C   UNL     1      27.525  44.398  54.395  1.00  0.00     0.087 A 
HETATM    6  C   UNL     1      26.591  44.280  53.355  1.00  0.00     0.054 A 
ENDROOT
BRANCH   1   7
HETATM    7  C   UNL     1      24.846  45.314  51.841  1.00  0.00     0.252 C 
HETATM    8  N   UNL     1      24.916  46.301  50.882  1.00  0.00    -0.346 N 
HETATM    9  H   UNL     1      25.370  47.166  51.139  1.00  0.00     0.163 HD
HETATM   10  O   UNL     1      24.002  44.427  51.856  1.00  0.00    -0.268 OA
BRANCH   8  11
HETATM   11  CA  UNL     1      23.930  46.437  49.809  1.00  0.00     0.141 C 
BRANCH  11  12
HETATM   12  C   UNL     1      23.960  45.226  48.849  1.00  0.00     0.194 C 
BRANCH  12  13
HETATM   13  O   UNL     1      25.267  44.638  48.849  1.00  0.00    -0.399 OA
HETATM   14  H   UNL     1      25.446  44.367  47.932  1.00  0.00     0.209 HD
ENDBRANCH  12  13
ENDBRANCH  11  12
BRANCH  11  15
HETATM   15  C   UNL     1      23.977  47.815  49.169  1.00  0.00    -0.033 A 
HETATM   16  C   UNL     1      22.865  48.409  48.555  1.00  0.00     0.009 A 
HETATM   17  C   UNL     1      22.954  49.685  47.991  1.00  0.00     0.001 A 
HETATM   18  C   UNL     1      24.160  50.381  48.020  1.00  0.00     0.000 A 
HETATM   19  C   UNL     1      25.280  49.801  48.608  1.00  0.00     0.001 A 
HETATM   20  C   UNL     1      25.190  48.528  49.176  1.00  0.00     0.009 A 
ENDBRANCH  11  15
ENDBRANCH   8  11
ENDBRANCH   1   7
BRANCH   5  21
HETATM   21  O   UNL     1      28.271  43.309  54.771  1.00  0.00    -0.289 OA
BRANCH  21  22
HETATM   22  C   UNL     1      29.205  42.920  53.771  1.00  0.00     0.505 C 
HETATM   23  F   UNL     1      29.382  43.961  52.918  1.00  0.00    -0.184 F 
HETATM   24  F   UNL     1      30.398  42.721  54.387  1.00  0.00    -0.184 F 
ENDBRANCH  21  22
ENDBRANCH   5  21
BRANCH   4  25
HETATM   25  C   UNL     1      28.751  45.806  56.065  1.00  0.00     0.013 A 
HETATM   26  C   UNL     1      28.610  46.054  57.451  1.00  0.00     0.152 A 
HETATM   27  N   UNL     1      29.785  46.137  58.083  1.00  0.00    -0.187 NA
HETATM   28  N   UNL     1      30.683  45.943  57.106  1.00  0.00    -0.289 N 
HETATM   29  H   UNL     1      31.668  45.961  57.349  1.00  0.00     0.188 HD
HETATM   30  C   UNL     1      30.117  45.743  55.880  1.00  0.00     0.123 A 
ENDBRANCH   4  25
TORSDOF 8
ENDMDL
MODEL 6
REMARK VINA RESULT:      -7.9      4.312      9.135
REMARK  8 active torsions:
REMARK  status: ('A' for Active; 'I' for Inactive)
REMARK    1  A    between atoms: O_1  and  C_2 
REMARK    2  A    between atoms: C_2  and  CA_3 
REMARK    3  A    between atoms: CA_3  and  N_4 
REMARK    4  A    between atoms: CA_3  and  C_23 
REMARK       I    between atoms: N_4  and  C_5 
REMARK    5  A    between atoms: C_5  and  C_7 
REMARK    6  A    between atoms: C_10  and  C_17 
REMARK    7  A    between atoms: C_11  and  O_12 
REMARK    8  A    between atoms: O_12  and  C_13 
ROOT
HETATM    1  C   UNL     1      25.314  46.117  49.585  1.00  0.00     0.034 A 
HETATM    2  C   UNL     1      24.169  45.378  49.276  1.00  0.00     0.018 A 
HETATM    3  C   UNL     1      22.972  46.029  48.959  1.00  0.00     0.016 A 
HETATM    4  C   UNL     1      22.890  47.431  48.962  1.00  0.00     0.011 A 
HETATM    5  C   UNL     1      24.035  48.167  49.315  1.00  0.00     0.087 A 
HETATM    6  C   UNL     1      25.242  47.515  49.610  1.00  0.00     0.054 A 
ENDROOT
BRANCH   1   7
HETATM    7  C   UNL     1      26.573  45.382  49.897  1.00  0.00     0.252 C 
HETATM    8  N   UNL     1      26.471  44.382  50.840  1.00  0.00    -0.346 N 
HETATM    9  H   UNL     1      25.698  44.432  51.487  1.00  0.00     0.163 HD
HETATM   10  O   UNL     1      27.619  45.710  49.350  1.00  0.00    -0.268 OA
BRANCH   8  11
HETATM   11  CA  UNL     1      27.632  43.648  51.347  1.00  0.00     0.141 C 
BRANCH  11  12
HETATM   12  C   UNL     1      27.489  42.126  51.124  1.00  0.00     0.194 C 
BRANCH  12  13
HETATM   13  O   UNL     1      26.363  41.631  51.861  1.00  0.00    -0.399 OA
HETATM   14  H   UNL     1      26.714  41.292  52.703  1.00  0.00     0.209 HD
ENDBRANCH  12  13
ENDBRANCH  11  12
BRANCH  11  15
HETATM   15  C   UNL     1      28.017  44.098  52.748  1.00  0.00    -0.033 A 
HETATM   16  C   UNL     1      29.124  43.583  53.437  1.00  0.00     0.009 A 
HETATM   17  C   UNL     1      29.445  44.038  54.719  1.00  0.00     0.001 A 
HETATM   18  C   UNL     1      28.656  45.004  55.338  1.00  0.00     0.000 A 
HETATM   19  C   UNL     1      27.541  45.514  54.678  1.00  0.00     0.001 A 
HETATM   20  C   UNL     1      27.223  45.063  53.395  1.00  0.00     0.009 A 
ENDBRANCH  11  15
ENDBRANCH   8  11
ENDBRANCH   1   7
BRANCH   5  21
HETATM   21  O   UNL     1      23.984  49.539  49.304  1.00  0.00    -0.289 OA
BRANCH  21  22
HETATM   22  C   UNL     1      24.244  50.081  48.016  1.00  0.00     0.505 C 
HETATM   23  F   UNL     1      23.641  51.294  47.928  1.00  0.00    -0.184 F 
HETATM   24  F   UNL     1      25.578  50.309  47.934  1.00  0.00    -0.184 F 
ENDBRANCH  21  22
ENDBRANCH   5  21
BRANCH   4  25
HETATM   25  C   UNL     1      21.634  48.079  48.606  1.00  0.00     0.013 A 
HETATM   26  C   UNL     1      20.719  48.828  49.383  1.00  0.00     0.152 A 
HETATM   27  N   UNL     1      19.673  49.262  48.672  1.00  0.00    -0.187 NA
HETATM   28  N   UNL     1      19.915  48.797  47.438  1.00  0.00    -0.289 N 
HETATM   29  H   UNL     1      19.243  49.005  46.706  1.00  0.00     0.188 HD
HETATM   30  C   UNL     1      21.074  48.080  47.345  1.00  0.00     0.123 A 
ENDBRANCH   4  25
TORSDOF 8
ENDMDL
MODEL 7
REMARK VINA RESULT:      -7.9      3.679      8.462
REMARK  8 active torsions:
REMARK  status: ('A' for Active; 'I' for Inactive)
REMARK    1  A    between atoms: O_1  and  C_2 
REMARK    2  A    between atoms: C_2  and  CA_3 
REMARK    3  A    between atoms: CA_3  and  N_4 
REMARK    4  A    between atoms: CA_3  and  C_23 
REMARK       I    between atoms: N_4  and  C_5 
REMARK    5  A    between atoms: C_5  and  C_7 
REMARK    6  A    between atoms: C_10  and  C_17 
REMARK    7  A    between atoms: C_11  and  O_12 
REMARK    8  A    between atoms: O_12  and  C_13 
ROOT
HETATM    1  C   UNL     1      25.976  44.953  50.767  1.00  0.00     0.034 A 
HETATM    2  C   UNL     1      26.228  46.286  51.100  1.00  0.00     0.018 A 
HETATM    3  C   UNL     1      25.437  47.309  50.569  1.00  0.00     0.016 A 
HETATM    4  C   UNL     1      24.388  47.023  49.681  1.00  0.00     0.011 A 
HETATM    5  C   UNL     1      24.166  45.682  49.317  1.00  0.00     0.087 A 
HETATM    6  C   UNL     1      24.945  44.654  49.868  1.00  0.00     0.054 A 
ENDROOT
BRANCH   1   7
HETATM    7  C   UNL     1      26.833  43.893  51.373  1.00  0.00     0.252 C 
HETATM    8  N   UNL     1      27.207  44.093  52.684  1.00  0.00    -0.346 N 
HETATM    9  H   UNL     1      27.191  45.042  53.030  1.00  0.00     0.163 HD
HETATM   10  O   UNL     1      27.189  42.938  50.692  1.00  0.00    -0.268 OA
BRANCH   8  11
HETATM   11  CA  UNL     1      28.142  43.213  53.385  1.00  0.00     0.141 C 
BRANCH  11  12
HETATM   12  C   UNL     1      27.450  41.926  53.886  1.00  0.00     0.194 C 
BRANCH  12  13
HETATM   13  O   UNL     1      27.532  40.906  52.881  1.00  0.00    -0.399 OA
HETATM   14  H   UNL     1      27.034  41.237  52.114  1.00  0.00     0.209 HD
ENDBRANCH  12  13
ENDBRANCH  11  12
BRANCH  11  15
HETATM   15  C   UNL     1      28.982  43.974  54.399  1.00  0.00    -0.033 A 
HETATM   16  C   UNL     1      30.156  43.452  54.962  1.00  0.00     0.009 A 
HETATM   17  C   UNL     1      30.901  44.196  55.882  1.00  0.00     0.001 A 
HETATM   18  C   UNL     1      30.477  45.466  56.264  1.00  0.00     0.000 A 
HETATM   19  C   UNL     1      29.304  45.993  55.731  1.00  0.00     0.001 A 
HETATM   20  C   UNL     1      28.562  45.253  54.809  1.00  0.00     0.009 A 
ENDBRANCH  11  15
ENDBRANCH   8  11
ENDBRANCH   1   7
BRANCH   5  21
HETATM   21  O   UNL     1      23.133  45.376  48.466  1.00  0.00    -0.289 OA
BRANCH  21  22
HETATM   22  C   UNL     1      22.224  44.441  49.031  1.00  0.00     0.505 C 
HETATM   23  F   UNL     1      20.987  45.000  49.055  1.00  0.00    -0.184 F 
HETATM   24  F   UNL     1      22.151  43.384  48.184  1.00  0.00    -0.184 F 
ENDBRANCH  21  22
ENDBRANCH   5  21
BRANCH   4  25
HETATM   25  C   UNL     1      23.567  48.109  49.162  1.00  0.00     0.013 A 
HETATM   26  C   UNL     1      22.167  48.309  49.176  1.00  0.00     0.152 A 
HETATM   27  N   UNL     1      21.802  49.454  48.591  1.00  0.00    -0.187 NA
HETATM   28  N   UNL     1      22.966  49.993  48.200  1.00  0.00    -0.289 N 
HETATM   29  H   UNL     1      22.943  50.887  47.720  1.00  0.00     0.188 HD
HETATM   30  C   UNL     1      24.052  49.228  48.515  1.00  0.00     0.123 A 
ENDBRANCH   4  25
TORSDOF 8
ENDMDL
MODEL 8
REMARK VINA RESULT:      -7.9      3.669      7.435
REMARK  8 active torsions:
REMARK  status: ('A' for Active; 'I' for Inactive)
REMARK    1  A    between atoms: O_1  and  C_2 
REMARK    2  A    between atoms: C_2  and  CA_3 
REMARK    3  A    between atoms: CA_3  and  N_4 
REMARK    4  A    between atoms: CA_3  and  C_23 
REMARK       I    between atoms: N_4  and  C_5 
REMARK    5  A    between atoms: C_5  and  C_7 
REMARK    6  A    between atoms: C_10  and  C_17 
REMARK    7  A    between atoms: C_11  and  O_12 
REMARK    8  A    between atoms: O_12  and  C_13 
ROOT
HETATM    1  C   UNL     1      26.283  44.117  52.782  1.00  0.00     0.034 A 
HETATM    2  C   UNL     1      25.064  44.002  52.108  1.00  0.00     0.018 A 
HETATM    3  C   UNL     1      24.900  43.044  51.102  1.00  0.00     0.016 A 
HETATM    4  C   UNL     1      25.956  42.193  50.737  1.00  0.00     0.011 A 
HETATM    5  C   UNL     1      27.193  42.343  51.391  1.00  0.00     0.087 A 
HETATM    6  C   UNL     1      27.350  43.288  52.416  1.00  0.00     0.054 A 
ENDROOT
BRANCH   1   7
HETATM    7  C   UNL     1      26.406  45.139  53.861  1.00  0.00     0.252 C 
HETATM    8  N   UNL     1      27.673  45.335  54.366  1.00  0.00    -0.346 N 
HETATM    9  H   UNL     1      28.339  44.585  54.251  1.00  0.00     0.163 HD
HETATM   10  O   UNL     1      25.405  45.716  54.267  1.00  0.00    -0.268 OA
BRANCH   8  11
HETATM   11  CA  UNL     1      27.945  46.211  55.507  1.00  0.00     0.141 C 
BRANCH  11  12
HETATM   12  C   UNL     1      28.036  47.694  55.081  1.00  0.00     0.194 C 
BRANCH  12  13
HETATM   13  O   UNL     1      26.783  48.347  55.327  1.00  0.00    -0.399 OA
HETATM   14  H   UNL     1      26.099  47.659  55.269  1.00  0.00     0.209 HD
ENDBRANCH  12  13
ENDBRANCH  11  12
BRANCH  11  15
HETATM   15  C   UNL     1      29.080  45.679  56.368  1.00  0.00    -0.033 A 
HETATM   16  C   UNL     1      30.037  44.771  55.894  1.00  0.00     0.009 A 
HETATM   17  C   UNL     1      31.070  44.321  56.721  1.00  0.00     0.001 A 
HETATM   18  C   UNL     1      31.153  44.759  58.040  1.00  0.00     0.000 A 
HETATM   19  C   UNL     1      30.201  45.645  58.536  1.00  0.00     0.001 A 
HETATM   20  C   UNL     1      29.172  46.099  57.708  1.00  0.00     0.009 A 
ENDBRANCH  11  15
ENDBRANCH   8  11
ENDBRANCH   1   7
BRANCH   5  21
HETATM   21  O   UNL     1      28.233  41.508  51.065  1.00  0.00    -0.289 OA
BRANCH  21  22
HETATM   22  C   UNL     1      28.797  40.874  52.206  1.00  0.00     0.505 C 
HETATM   23  F   UNL     1      27.800  40.600  53.085  1.00  0.00    -0.184 F 
HETATM   24  F   UNL     1      29.292  39.678  51.801  1.00  0.00    -0.184 F 
ENDBRANCH  21  22
ENDBRANCH   5  21
BRANCH   4  25
HETATM   25  C   UNL     1      25.747  41.191  49.701  1.00  0.00     0.013 A 
HETATM   26  C   UNL     1      25.178  41.290  48.409  1.00  0.00     0.152 A 
HETATM   27  N   UNL     1      25.173  40.124  47.755  1.00  0.00    -0.187 NA
HETATM   28  N   UNL     1      25.740  39.273  48.623  1.00  0.00    -0.289 N 
HETATM   29  H   UNL     1      25.849  38.304  48.344  1.00  0.00     0.188 HD
HETATM   30  C   UNL     1      26.099  39.860  49.803  1.00  0.00     0.123 A 
ENDBRANCH   4  25
TORSDOF 8
ENDMDL
MODEL 9
REMARK VINA RESULT:      -7.8      5.201      8.282
REMARK  8 active torsions:
REMARK  status: ('A' for Active; 'I' for Inactive)
REMARK    1  A    between atoms: O_1  and  C_2 
REMARK    2  A    between atoms: C_2  and  CA_3 
REMARK    3  A    between atoms: CA_3  and  N_4 
REMARK    4  A    between atoms: CA_3  and  C_23 
REMARK       I    between atoms: N_4  and  C_5 
REMARK    5  A    between atoms: C_5  and  C_7 
REMARK    6  A    between atoms: C_10  and  C_17 
REMARK    7  A    between atoms: C_11  and  O_12 
REMARK    8  A    between atoms: O_12  and  C_13 
ROOT
HETATM    1  C   UNL     1      27.739  41.461  50.585  1.00  0.00     0.034 A 
HETATM    2  C   UNL     1      27.286  41.687  49.282  1.00  0.00     0.018 A 
HETATM    3  C   UNL     1      27.332  40.664  48.330  1.00  0.00     0.016 A 
HETATM    4  C   UNL     1      27.845  39.398  48.655  1.00  0.00     0.011 A 
HETATM    5  C   UNL     1      28.337  39.190  49.957  1.00  0.00     0.087 A 
HETATM    6  C   UNL     1      28.271  40.210  50.918  1.00  0.00     0.054 A 
ENDROOT
BRANCH   1   7
HETATM    7  C   UNL     1      27.654  42.576  51.572  1.00  0.00     0.252 C 
HETATM    8  N   UNL     1      27.250  42.229  52.843  1.00  0.00    -0.346 N 
HETATM    9  H   UNL     1      26.723  41.373  52.944  1.00  0.00     0.163 HD
HETATM   10  O   UNL     1      27.901  43.722  51.216  1.00  0.00    -0.268 OA
BRANCH   8  11
HETATM   11  CA  UNL     1      27.000  43.217  53.893  1.00  0.00     0.141 C 
BRANCH  11  12
HETATM   12  C   UNL     1      26.016  44.312  53.425  1.00  0.00     0.194 C 
BRANCH  12  13
HETATM   13  O   UNL     1      24.735  43.729  53.149  1.00  0.00    -0.399 OA
HETATM   14  H   UNL     1      24.746  42.842  53.547  1.00  0.00     0.209 HD
ENDBRANCH  12  13
ENDBRANCH  11  12
BRANCH  11  15
HETATM   15  C   UNL     1      28.291  43.692  54.541  1.00  0.00    -0.033 A 
HETATM   16  C   UNL     1      28.430  44.961  55.122  1.00  0.00     0.009 A 
HETATM   17  C   UNL     1      29.635  45.348  55.717  1.00  0.00     0.001 A 
HETATM   18  C   UNL     1      30.722  44.479  55.728  1.00  0.00     0.000 A 
HETATM   19  C   UNL     1      30.610  43.222  55.139  1.00  0.00     0.001 A 
HETATM   20  C   UNL     1      29.405  42.833  54.549  1.00  0.00     0.009 A 
ENDBRANCH  11  15
ENDBRANCH   8  11
ENDBRANCH   1   7
BRANCH   5  21
HETATM   21  O   UNL     1      28.826  37.954  50.303  1.00  0.00    -0.289 OA
BRANCH  21  22
HETATM   22  C   UNL     1      30.002  38.040  51.098  1.00  0.00     0.505 C 
HETATM   23  F   UNL     1      30.101  36.910  51.845  1.00  0.00    -0.184 F 
HETATM   24  F   UNL     1      31.063  38.036  50.253  1.00  0.00    -0.184 F 
ENDBRANCH  21  22
ENDBRANCH   5  21
BRANCH   4  25
HETATM   25  C   UNL     1      27.858  38.346  47.648  1.00  0.00     0.013 A 
HETATM   26  C   UNL     1      28.929  37.644  47.047  1.00  0.00     0.152 A 
HETATM   27  N   UNL     1      28.517  36.737  46.156  1.00  0.00    -0.187 NA
HETATM   28  N   UNL     1      27.181  36.852  46.183  1.00  0.00    -0.289 N 
HETATM   29  H   UNL     1      26.635  36.250  45.576  1.00  0.00     0.188 HD
HETATM   30  C   UNL     1      26.736  37.803  47.057  1.00  0.00     0.123 A 
ENDBRANCH   4  25
TORSDOF 8
ENDMDL
MODEL 10
REMARK VINA RESULT:      -7.8      3.469      5.188
REMARK  8 active torsions:
REMARK  status: ('A' for Active; 'I' for Inactive)
REMARK    1  A    between atoms: O_1  and  C_2 
REMARK    2  A    between atoms: C_2  and  CA_3 
REMARK    3  A    between atoms: CA_3  and  N_4 
REMARK    4  A    between atoms: CA_3  and  C_23 
REMARK       I    between atoms: N_4  and  C_5 
REMARK    5  A    between atoms: C_5  and  C_7 
REMARK    6  A    between atoms: C_10  and  C_17 
REMARK    7  A    between atoms: C_11  and  O_12 
REMARK    8  A    between atoms: O_12  and  C_13 
ROOT
HETATM    1  C   UNL     1      25.049  46.346  50.332  1.00  0.00     0.034 A 
HETATM    2  C   UNL     1      25.988  45.410  49.891  1.00  0.00     0.018 A 
HETATM    3  C   UNL     1      26.796  44.733  50.811  1.00  0.00     0.016 A 
HETATM    4  C   UNL     1      26.695  44.990  52.187  1.00  0.00     0.011 A 
HETATM    5  C   UNL     1      25.776  45.965  52.620  1.00  0.00     0.087 A 
HETATM    6  C   UNL     1      24.950  46.626  51.700  1.00  0.00     0.054 A 
ENDROOT
BRANCH   1   7
HETATM    7  C   UNL     1      24.195  47.029  49.318  1.00  0.00     0.252 C 
HETATM    8  N   UNL     1      24.246  48.406  49.313  1.00  0.00    -0.346 N 
HETATM    9  H   UNL     1      24.549  48.861  50.162  1.00  0.00     0.163 HD
HETATM   10  O   UNL     1      23.478  46.364  48.580  1.00  0.00    -0.268 OA
BRANCH   8  11
HETATM   11  CA  UNL     1      23.382  49.230  48.466  1.00  0.00     0.141 C 
BRANCH  11  12
HETATM   12  C   UNL     1      24.133  50.459  47.907  1.00  0.00     0.194 C 
BRANCH  12  13
HETATM   13  O   UNL     1      25.331  50.035  47.243  1.00  0.00    -0.399 OA
HETATM   14  H   UNL     1      25.111  49.966  46.298  1.00  0.00     0.209 HD
ENDBRANCH  12  13
ENDBRANCH  11  12
BRANCH  11  15
HETATM   15  C   UNL     1      22.035  49.494  49.121  1.00  0.00    -0.033 A 
HETATM   16  C   UNL     1      20.971  48.581  49.073  1.00  0.00     0.009 A 
HETATM   17  C   UNL     1      19.755  48.864  49.702  1.00  0.00     0.001 A 
HETATM   18  C   UNL     1      19.579  50.069  50.376  1.00  0.00     0.000 A 
HETATM   19  C   UNL     1      20.616  50.997  50.418  1.00  0.00     0.001 A 
HETATM   20  C   UNL     1      21.832  50.713  49.795  1.00  0.00     0.009 A 
ENDBRANCH  11  15
ENDBRANCH   8  11
ENDBRANCH   1   7
BRANCH   5  21
HETATM   21  O   UNL     1      25.646  46.218  53.963  1.00  0.00    -0.289 OA
BRANCH  21  22
HETATM   22  C   UNL     1      26.154  47.496  54.325  1.00  0.00     0.505 C 
HETATM   23  F   UNL     1      26.603  47.435  55.605  1.00  0.00    -0.184 F 
HETATM   24  F   UNL     1      27.241  47.734  53.549  1.00  0.00    -0.184 F 
ENDBRANCH  21  22
ENDBRANCH   5  21
BRANCH   4  25
HETATM   25  C   UNL     1      27.535  44.253  53.121  1.00  0.00     0.013 A 
HETATM   26  C   UNL     1      28.590  44.679  53.963  1.00  0.00     0.152 A 
HETATM   27  N   UNL     1      29.113  43.680  54.681  1.00  0.00    -0.187 NA
HETATM   28  N   UNL     1      28.395  42.611  54.306  1.00  0.00    -0.289 N 
HETATM   29  H   UNL     1      28.613  41.714  54.727  1.00  0.00     0.188 HD
HETATM   30  C   UNL     1      27.440  42.899  53.372  1.00  0.00     0.123 A 
ENDBRANCH   4  25
TORSDOF 8
ENDMDL
