MODEL 1
REMARK VINA RESULT:      -8.6      0.000      0.000
REMARK  10 active torsions:
REMARK  status: ('A' for Active; 'I' for Inactive)
REMARK    1  A    between atoms: C_4  and  C_5 
REMARK    2  A    between atoms: C_5  and  O_6 
REMARK    3  A    between atoms: O_6  and  C_7 
REMARK    4  A    between atoms: C_10  and  N_11 
REMARK       I    between atoms: N_11  and  C_12 
REMARK       I    between atoms: C_12  and  N_13 
REMARK    5  A    between atoms: N_13  and  C_14 
REMARK    6  A    between atoms: C_14  and  C_15 
REMARK    7  A    between atoms: C_15  and  C_16 
REMARK    8  A    between atoms: C_16  and  C_17 
REMARK    9  A    between atoms: C_17  and  N_18 
REMARK   10  A    between atoms: C_25  and  C_26 
REMARK       I    between atoms: C_26  and  N_27 
ROOT
HETATM    1  C   UNL     1      24.944  45.143  51.407  1.00  0.00     0.191 C 
HETATM    2  N   UNL     1      24.353  43.955  51.465  1.00  0.00    -0.184 NA
HETATM    3  S   UNL     1      23.287  43.863  50.207  1.00  0.00     0.033 SA
HETATM    4  C   UNL     1      23.722  45.361  49.496  1.00  0.00     0.117 C 
HETATM    5  C   UNL     1      24.567  46.049  50.357  1.00  0.00     0.120 C 
ENDROOT
BRANCH   4   6
HETATM    6  N   UNL     1      23.110  45.563  48.273  1.00  0.00    -0.301 N 
HETATM    7  C   UNL     1      22.142  46.481  47.982  1.00  0.00     0.321 C 
HETATM    8  N   UNL     1      21.505  47.094  49.011  1.00  0.00    -0.343 N 
HETATM    9  O   UNL     1      21.961  46.800  46.806  1.00  0.00    -0.247 OA
HETATM   10  H   UNL     1      21.216  46.412  49.710  1.00  0.00     0.164 HD
HETATM   11  H   UNL     1      23.691  45.384  47.463  1.00  0.00     0.171 HD
BRANCH   8  12
HETATM   12  C   UNL     1      20.534  48.151  48.828  1.00  0.00     0.124 C 
BRANCH  12  13
HETATM   13  C   UNL     1      19.087  47.647  48.791  1.00  0.00     0.021 C 
BRANCH  13  14
HETATM   14  C   UNL     1      18.096  48.357  49.722  1.00  0.00     0.029 C 
BRANCH  14  15
HETATM   15  C   UNL     1      18.765  49.411  50.600  1.00  0.00     0.235 C 
BRANCH  15  16
HETATM   16  N   UNL     1      18.414  50.802  50.132  1.00  0.00    -0.071 N 
HETATM   17  H   UNL     1      17.979  51.298  50.920  1.00  0.00     0.279 HD
HETATM   18  C   UNL     1      17.412  50.806  48.989  1.00  0.00     0.235 C 
HETATM   19  C   UNL     1      18.147  51.446  47.828  1.00  0.00     0.029 C 
HETATM   20  C   UNL     1      19.077  52.428  48.507  1.00  0.00     0.029 C 
HETATM   21  C   UNL     1      19.609  51.623  49.675  1.00  0.00     0.235 C 
ENDBRANCH  15  16
ENDBRANCH  14  15
ENDBRANCH  13  14
ENDBRANCH  12  13
ENDBRANCH   8  12
ENDBRANCH   4   6
BRANCH   5  22
HETATM   22  C   UNL     1      24.970  47.440  50.239  1.00  0.00     0.256 C 
HETATM   23  N   UNL     1      26.287  47.725  50.441  1.00  0.00    -0.366 N 
HETATM   24  H   UNL     1      26.977  47.015  50.655  1.00  0.00     0.159 HD
HETATM   25  H   UNL     1      26.588  48.690  50.386  1.00  0.00     0.159 HD
HETATM   26  O   UNL     1      24.186  48.349  49.979  1.00  0.00    -0.268 OA
ENDBRANCH   5  22
BRANCH   1  27
HETATM   27  O   UNL     1      25.822  45.450  52.392  1.00  0.00    -0.328 OA
BRANCH  27  28
HETATM   28  C   UNL     1      25.680  44.603  53.539  1.00  0.00     0.222 C 
BRANCH  28  29
HETATM   29  C   UNL     1      27.042  44.417  54.142  1.00  0.00     0.043 A 
HETATM   30  C   UNL     1      27.610  45.385  54.968  1.00  0.00     0.129 A 
HETATM   31  C   UNL     1      28.872  45.214  55.530  1.00  0.00     0.062 A 
HETATM   32  F   UNL     1      26.934  46.510  55.238  1.00  0.00    -0.205 F 
HETATM   33  C   UNL     1      29.584  44.047  55.262  1.00  0.00     0.016 A 
HETATM   34  C   UNL     1      29.041  43.060  54.446  1.00  0.00     0.062 A 
HETATM   35 BR   UNL     1      31.300  43.801  56.014  1.00  0.00    -0.051 Br
HETATM   36  C   UNL     1      27.776  43.253  53.899  1.00  0.00     0.129 A 
HETATM   37  F   UNL     1      27.258  42.292  53.119  1.00  0.00    -0.205 F 
ENDBRANCH  28  29
ENDBRANCH  27  28
ENDBRANCH   1  27
TORSDOF 10
ENDMDL
MODEL 2
REMARK VINA RESULT:      -8.4      4.578     10.563
REMARK  10 active torsions:
REMARK  status: ('A' for Active; 'I' for Inactive)
REMARK    1  A    between atoms: C_4  and  C_5 
REMARK    2  A    between atoms: C_5  and  O_6 
REMARK    3  A    between atoms: O_6  and  C_7 
REMARK    4  A    between atoms: C_10  and  N_11 
REMARK       I    between atoms: N_11  and  C_12 
REMARK       I    between atoms: C_12  and  N_13 
REMARK    5  A    between atoms: N_13  and  C_14 
REMARK    6  A    between atoms: C_14  and  C_15 
REMARK    7  A    between atoms: C_15  and  C_16 
REMARK    8  A    between atoms: C_16  and  C_17 
REMARK    9  A    between atoms: C_17  and  N_18 
REMARK   10  A    between atoms: C_25  and  C_26 
REMARK       I    between atoms: C_26  and  N_27 
ROOT
HETATM    1  C   UNL     1      24.003  47.392  49.620  1.00  0.00     0.191 C 
HETATM    2  N   UNL     1      24.924  48.346  49.544  1.00  0.00    -0.184 NA
HETATM    3  S   UNL     1      26.392  47.650  49.836  1.00  0.00     0.033 SA
HETATM    4  C   UNL     1      25.811  46.039  49.921  1.00  0.00     0.117 C 
HETATM    5  C   UNL     1      24.423  46.052  49.927  1.00  0.00     0.120 C 
ENDROOT
BRANCH   4   6
HETATM    6  N   UNL     1      26.834  45.113  50.010  1.00  0.00    -0.301 N 
HETATM    7  C   UNL     1      27.292  44.503  51.143  1.00  0.00     0.321 C 
HETATM    8  N   UNL     1      26.921  45.014  52.344  1.00  0.00    -0.343 N 
HETATM    9  O   UNL     1      27.928  43.454  51.037  1.00  0.00    -0.247 OA
HETATM   10  H   UNL     1      27.038  46.025  52.355  1.00  0.00     0.164 HD
HETATM   11  H   UNL     1      26.938  44.504  49.208  1.00  0.00     0.171 HD
BRANCH   8  12
HETATM   12  C   UNL     1      27.261  44.399  53.609  1.00  0.00     0.124 C 
BRANCH  12  13
HETATM   13  C   UNL     1      27.184  45.367  54.795  1.00  0.00     0.021 C 
BRANCH  13  14
HETATM   14  C   UNL     1      28.458  46.161  55.107  1.00  0.00     0.029 C 
BRANCH  14  15
HETATM   15  C   UNL     1      28.983  45.901  56.517  1.00  0.00     0.235 C 
BRANCH  15  16
HETATM   16  N   UNL     1      30.395  45.374  56.476  1.00  0.00    -0.071 N 
HETATM   17  H   UNL     1      31.010  46.146  56.190  1.00  0.00     0.279 HD
HETATM   18  C   UNL     1      30.579  44.253  55.466  1.00  0.00     0.235 C 
HETATM   19  C   UNL     1      30.985  43.047  56.290  1.00  0.00     0.029 C 
HETATM   20  C   UNL     1      31.757  43.659  57.439  1.00  0.00     0.029 C 
HETATM   21  C   UNL     1      30.902  44.852  57.811  1.00  0.00     0.235 C 
ENDBRANCH  15  16
ENDBRANCH  14  15
ENDBRANCH  13  14
ENDBRANCH  12  13
ENDBRANCH   8  12
ENDBRANCH   4   6
BRANCH   5  22
HETATM   22  C   UNL     1      23.552  44.927  50.222  1.00  0.00     0.256 C 
HETATM   23  N   UNL     1      22.479  44.739  49.403  1.00  0.00    -0.366 N 
HETATM   24  H   UNL     1      22.281  45.337  48.609  1.00  0.00     0.159 HD
HETATM   25  H   UNL     1      21.846  43.975  49.602  1.00  0.00     0.159 HD
HETATM   26  O   UNL     1      23.735  44.162  51.165  1.00  0.00    -0.268 OA
ENDBRANCH   5  22
BRANCH   1  27
HETATM   27  O   UNL     1      22.709  47.763  49.468  1.00  0.00    -0.328 OA
BRANCH  27  28
HETATM   28  C   UNL     1      22.468  48.422  48.219  1.00  0.00     0.222 C 
BRANCH  28  29
HETATM   29  C   UNL     1      21.329  49.379  48.419  1.00  0.00     0.043 A 
HETATM   30  C   UNL     1      20.031  48.927  48.649  1.00  0.00     0.129 A 
HETATM   31  C   UNL     1      18.973  49.813  48.837  1.00  0.00     0.062 A 
HETATM   32  F   UNL     1      19.783  47.611  48.697  1.00  0.00    -0.205 F 
HETATM   33  C   UNL     1      19.217  51.184  48.795  1.00  0.00     0.016 A 
HETATM   34  C   UNL     1      20.504  51.666  48.573  1.00  0.00     0.062 A 
HETATM   35 BR   UNL     1      17.792  52.399  49.044  1.00  0.00    -0.051 Br
HETATM   36  C   UNL     1      21.545  50.760  48.391  1.00  0.00     0.129 A 
HETATM   37  F   UNL     1      22.782  51.235  48.184  1.00  0.00    -0.205 F 
ENDBRANCH  28  29
ENDBRANCH  27  28
ENDBRANCH   1  27
TORSDOF 10
ENDMDL
MODEL 3
REMARK VINA RESULT:      -8.2      1.423      2.411
REMARK  10 active torsions:
REMARK  status: ('A' for Active; 'I' for Inactive)
REMARK    1  A    between atoms: C_4  and  C_5 
REMARK    2  A    between atoms: C_5  and  O_6 
REMARK    3  A    between atoms: O_6  and  C_7 
REMARK    4  A    between atoms: C_10  and  N_11 
REMARK       I    between atoms: N_11  and  C_12 
REMARK       I    between atoms: C_12  and  N_13 
REMARK    5  A    between atoms: N_13  and  C_14 
REMARK    6  A    between atoms: C_14  and  C_15 
REMARK    7  A    between atoms: C_15  and  C_16 
REMARK    8  A    between atoms: C_16  and  C_17 
REMARK    9  A    between atoms: C_17  and  N_18 
REMARK   10  A    between atoms: C_25  and  C_26 
REMARK       I    between atoms: C_26  and  N_27 
ROOT
HETATM    1  C   UNL     1      25.269  46.157  51.940  1.00  0.00     0.191 C 
HETATM    2  N   UNL     1      25.610  47.371  51.522  1.00  0.00    -0.184 NA
HETATM    3  S   UNL     1      25.121  47.517  49.952  1.00  0.00     0.033 SA
HETATM    4  C   UNL     1      24.321  46.002  49.874  1.00  0.00     0.117 C 
HETATM    5  C   UNL     1      24.607  45.273  51.020  1.00  0.00     0.120 C 
ENDROOT
BRANCH   4   6
HETATM    6  N   UNL     1      23.624  45.834  48.692  1.00  0.00    -0.301 N 
HETATM    7  C   UNL     1      22.503  46.505  48.297  1.00  0.00     0.321 C 
HETATM    8  N   UNL     1      21.823  47.224  49.224  1.00  0.00    -0.343 N 
HETATM    9  O   UNL     1      22.214  46.527  47.099  1.00  0.00    -0.247 OA
HETATM   10  H   UNL     1      21.687  46.678  50.072  1.00  0.00     0.164 HD
HETATM   11  H   UNL     1      24.187  45.572  47.891  1.00  0.00     0.171 HD
BRANCH   8  12
HETATM   12  C   UNL     1      20.680  48.054  48.907  1.00  0.00     0.124 C 
BRANCH  12  13
HETATM   13  C   UNL     1      19.339  47.333  49.081  1.00  0.00     0.021 C 
BRANCH  13  14
HETATM   14  C   UNL     1      18.198  48.158  49.690  1.00  0.00     0.029 C 
BRANCH  14  15
HETATM   15  C   UNL     1      18.698  49.385  50.447  1.00  0.00     0.235 C 
BRANCH  15  16
HETATM   16  N   UNL     1      18.194  50.654  49.806  1.00  0.00    -0.071 N 
HETATM   17  H   UNL     1      17.371  50.968  50.335  1.00  0.00     0.279 HD
HETATM   18  C   UNL     1      17.754  50.454  48.364  1.00  0.00     0.235 C 
HETATM   19  C   UNL     1      18.679  51.335  47.548  1.00  0.00     0.029 C 
HETATM   20  C   UNL     1      18.969  52.490  48.482  1.00  0.00     0.029 C 
HETATM   21  C   UNL     1      19.202  51.792  49.805  1.00  0.00     0.235 C 
ENDBRANCH  15  16
ENDBRANCH  14  15
ENDBRANCH  13  14
ENDBRANCH  12  13
ENDBRANCH   8  12
ENDBRANCH   4   6
BRANCH   5  22
HETATM   22  C   UNL     1      24.321  43.865  51.239  1.00  0.00     0.256 C 
HETATM   23  N   UNL     1      25.246  43.142  51.930  1.00  0.00    -0.366 N 
HETATM   24  H   UNL     1      26.100  43.547  52.295  1.00  0.00     0.159 HD
HETATM   25  H   UNL     1      25.079  42.155  52.076  1.00  0.00     0.159 HD
HETATM   26  O   UNL     1      23.304  43.312  50.828  1.00  0.00    -0.268 OA
ENDBRANCH   5  22
BRANCH   1  27
HETATM   27  O   UNL     1      25.633  45.806  53.197  1.00  0.00    -0.328 OA
BRANCH  27  28
HETATM   28  C   UNL     1      26.552  46.736  53.783  1.00  0.00     0.222 C 
BRANCH  28  29
HETATM   29  C   UNL     1      27.661  45.946  54.416  1.00  0.00     0.043 A 
HETATM   30  C   UNL     1      28.264  44.880  53.752  1.00  0.00     0.129 A 
HETATM   31  C   UNL     1      29.295  44.147  54.336  1.00  0.00     0.062 A 
HETATM   32  F   UNL     1      27.856  44.544  52.521  1.00  0.00    -0.205 F 
HETATM   33  C   UNL     1      29.734  44.488  55.613  1.00  0.00     0.016 A 
HETATM   34  C   UNL     1      29.154  45.552  56.299  1.00  0.00     0.062 A 
HETATM   35 BR   UNL     1      31.128  43.502  56.421  1.00  0.00    -0.051 Br
HETATM   36  C   UNL     1      28.129  46.270  55.692  1.00  0.00     0.129 A 
HETATM   37  F   UNL     1      27.582  47.298  56.358  1.00  0.00    -0.205 F 
ENDBRANCH  28  29
ENDBRANCH  27  28
ENDBRANCH   1  27
TORSDOF 10
ENDMDL
MODEL 4
REMARK VINA RESULT:      -8.2      1.153      2.165
REMARK  10 active torsions:
REMARK  status: ('A' for Active; 'I' for Inactive)
REMARK    1  A    between atoms: C_4  and  C_5 
REMARK    2  A    between atoms: C_5  and  O_6 
REMARK    3  A    between atoms: O_6  and  C_7 
REMARK    4  A    between atoms: C_10  and  N_11 
REMARK       I    between atoms: N_11  and  C_12 
REMARK       I    between atoms: C_12  and  N_13 
REMARK    5  A    between atoms: N_13  and  C_14 
REMARK    6  A    between atoms: C_14  and  C_15 
REMARK    7  A    between atoms: C_15  and  C_16 
REMARK    8  A    between atoms: C_16  and  C_17 
REMARK    9  A    between atoms: C_17  and  N_18 
REMARK   10  A    between atoms: C_25  and  C_26 
REMARK       I    between atoms: C_26  and  N_27 
ROOT
HETATM    1  C   UNL     1      25.292  45.711  51.093  1.00  0.00     0.191 C 
HETATM    2  N   UNL     1      24.643  44.575  51.323  1.00  0.00    -0.184 NA
HETATM    3  S   UNL     1      23.369  44.504  50.275  1.00  0.00     0.033 SA
HETATM    4  C   UNL     1      23.771  45.929  49.411  1.00  0.00     0.117 C 
HETATM    5  C   UNL     1      24.797  46.592  50.071  1.00  0.00     0.120 C 
ENDROOT
BRANCH   4   6
HETATM    6  N   UNL     1      22.967  46.118  48.302  1.00  0.00    -0.301 N 
HETATM    7  C   UNL     1      22.056  47.116  48.110  1.00  0.00     0.321 C 
HETATM    8  N   UNL     1      21.679  47.860  49.180  1.00  0.00    -0.343 N 
HETATM    9  O   UNL     1      21.694  47.378  46.961  1.00  0.00    -0.247 OA
HETATM   10  H   UNL     1      21.459  47.260  49.973  1.00  0.00     0.164 HD
HETATM   11  H   UNL     1      23.371  45.826  47.420  1.00  0.00     0.171 HD
BRANCH   8  12
HETATM   12  C   UNL     1      20.798  49.004  49.084  1.00  0.00     0.124 C 
BRANCH  12  13
HETATM   13  C   UNL     1      21.464  50.232  48.455  1.00  0.00     0.021 C 
BRANCH  13  14
HETATM   14  C   UNL     1      20.735  51.569  48.637  1.00  0.00     0.029 C 
BRANCH  14  15
HETATM   15  C   UNL     1      19.465  51.437  49.474  1.00  0.00     0.235 C 
BRANCH  15  16
HETATM   16  N   UNL     1      18.344  52.254  48.880  1.00  0.00    -0.071 N 
HETATM   17  H   UNL     1      18.739  53.149  48.568  1.00  0.00     0.279 HD
HETATM   18  C   UNL     1      17.246  52.569  49.883  1.00  0.00     0.235 C 
HETATM   19  C   UNL     1      16.005  51.900  49.328  1.00  0.00     0.029 C 
HETATM   20  C   UNL     1      16.211  51.978  47.831  1.00  0.00     0.029 C 
HETATM   21  C   UNL     1      17.672  51.605  47.681  1.00  0.00     0.235 C 
ENDBRANCH  15  16
ENDBRANCH  14  15
ENDBRANCH  13  14
ENDBRANCH  12  13
ENDBRANCH   8  12
ENDBRANCH   4   6
BRANCH   5  22
HETATM   22  C   UNL     1      25.264  47.941  49.803  1.00  0.00     0.256 C 
HETATM   23  N   UNL     1      26.609  48.154  49.845  1.00  0.00    -0.366 N 
HETATM   24  H   UNL     1      27.277  47.417  50.042  1.00  0.00     0.159 HD
HETATM   25  H   UNL     1      26.957  49.090  49.683  1.00  0.00     0.159 HD
HETATM   26  O   UNL     1      24.511  48.878  49.553  1.00  0.00    -0.268 OA
ENDBRANCH   5  22
BRANCH   1  27
HETATM   27  O   UNL     1      26.348  45.997  51.892  1.00  0.00    -0.328 OA
BRANCH  27  28
HETATM   28  C   UNL     1      26.030  45.883  53.285  1.00  0.00     0.222 C 
BRANCH  28  29
HETATM   29  C   UNL     1      27.258  45.390  53.995  1.00  0.00     0.043 A 
HETATM   30  C   UNL     1      27.688  44.071  53.872  1.00  0.00     0.129 A 
HETATM   31  C   UNL     1      28.828  43.612  54.528  1.00  0.00     0.062 A 
HETATM   32  F   UNL     1      27.001  43.214  53.105  1.00  0.00    -0.205 F 
HETATM   33  C   UNL     1      29.556  44.493  55.325  1.00  0.00     0.016 A 
HETATM   34  C   UNL     1      29.154  45.818  55.462  1.00  0.00     0.062 A 
HETATM   35 BR   UNL     1      31.103  43.885  56.224  1.00  0.00    -0.051 Br
HETATM   36  C   UNL     1      28.014  46.253  54.794  1.00  0.00     0.129 A 
HETATM   37  F   UNL     1      27.639  47.534  54.927  1.00  0.00    -0.205 F 
ENDBRANCH  28  29
ENDBRANCH  27  28
ENDBRANCH   1  27
TORSDOF 10
ENDMDL
MODEL 5
REMARK VINA RESULT:      -8.1      4.415      9.203
REMARK  10 active torsions:
REMARK  status: ('A' for Active; 'I' for Inactive)
REMARK    1  A    between atoms: C_4  and  C_5 
REMARK    2  A    between atoms: C_5  and  O_6 
REMARK    3  A    between atoms: O_6  and  C_7 
REMARK    4  A    between atoms: C_10  and  N_11 
REMARK       I    between atoms: N_11  and  C_12 
REMARK       I    between atoms: C_12  and  N_13 
REMARK    5  A    between atoms: N_13  and  C_14 
REMARK    6  A    between atoms: C_14  and  C_15 
REMARK    7  A    between atoms: C_15  and  C_16 
REMARK    8  A    between atoms: C_16  and  C_17 
REMARK    9  A    between atoms: C_17  and  N_18 
REMARK   10  A    between atoms: C_25  and  C_26 
REMARK       I    between atoms: C_26  and  N_27 
ROOT
HETATM    1  C   UNL     1      24.319  47.591  49.740  1.00  0.00     0.191 C 
HETATM    2  N   UNL     1      25.391  48.374  49.724  1.00  0.00    -0.184 NA
HETATM    3  S   UNL     1      26.723  47.399  49.670  1.00  0.00     0.033 SA
HETATM    4  C   UNL     1      25.859  45.926  49.520  1.00  0.00     0.117 C 
HETATM    5  C   UNL     1      24.506  46.166  49.720  1.00  0.00     0.120 C 
ENDROOT
BRANCH   4   6
HETATM    6  N   UNL     1      26.691  44.847  49.287  1.00  0.00    -0.301 N 
HETATM    7  C   UNL     1      26.967  43.823  50.146  1.00  0.00     0.321 C 
HETATM    8  N   UNL     1      26.626  43.967  51.451  1.00  0.00    -0.343 N 
HETATM    9  O   UNL     1      27.409  42.767  49.689  1.00  0.00    -0.247 OA
HETATM   10  H   UNL     1      26.923  44.876  51.800  1.00  0.00     0.164 HD
HETATM   11  H   UNL     1      26.730  44.530  48.325  1.00  0.00     0.171 HD
BRANCH   8  12
HETATM   12  C   UNL     1      26.778  42.916  52.434  1.00  0.00     0.124 C 
BRANCH  12  13
HETATM   13  C   UNL     1      28.120  42.963  53.171  1.00  0.00     0.021 C 
BRANCH  13  14
HETATM   14  C   UNL     1      28.115  43.637  54.549  1.00  0.00     0.029 C 
BRANCH  14  15
HETATM   15  C   UNL     1      28.464  45.121  54.480  1.00  0.00     0.235 C 
BRANCH  15  16
HETATM   16  N   UNL     1      27.377  45.958  55.107  1.00  0.00    -0.071 N 
HETATM   17  H   UNL     1      27.177  45.568  56.037  1.00  0.00     0.279 HD
HETATM   18  C   UNL     1      26.078  45.929  54.317  1.00  0.00     0.235 C 
HETATM   19  C   UNL     1      25.852  47.364  53.884  1.00  0.00     0.029 C 
HETATM   20  C   UNL     1      26.459  48.166  55.017  1.00  0.00     0.029 C 
HETATM   21  C   UNL     1      27.748  47.421  55.292  1.00  0.00     0.235 C 
ENDBRANCH  15  16
ENDBRANCH  14  15
ENDBRANCH  13  14
ENDBRANCH  12  13
ENDBRANCH   8  12
ENDBRANCH   4   6
BRANCH   5  22
HETATM   22  C   UNL     1      23.472  45.163  49.908  1.00  0.00     0.256 C 
HETATM   23  N   UNL     1      22.370  45.247  49.111  1.00  0.00    -0.366 N 
HETATM   24  H   UNL     1      22.258  45.963  48.402  1.00  0.00     0.159 HD
HETATM   25  H   UNL     1      21.627  44.573  49.239  1.00  0.00     0.159 HD
HETATM   26  O   UNL     1      23.546  44.268  50.746  1.00  0.00    -0.268 OA
ENDBRANCH   5  22
BRANCH   1  27
HETATM   27  O   UNL     1      23.110  48.194  49.842  1.00  0.00    -0.328 OA
BRANCH  27  28
HETATM   28  C   UNL     1      22.609  48.642  48.577  1.00  0.00     0.222 C 
BRANCH  28  29
HETATM   29  C   UNL     1      21.410  49.506  48.840  1.00  0.00     0.043 A 
HETATM   30  C   UNL     1      21.466  50.891  48.699  1.00  0.00     0.129 A 
HETATM   31  C   UNL     1      20.354  51.694  48.940  1.00  0.00     0.062 A 
HETATM   32  F   UNL     1      22.610  51.476  48.319  1.00  0.00    -0.205 F 
HETATM   33  C   UNL     1      19.156  51.099  49.330  1.00  0.00     0.016 A 
HETATM   34  C   UNL     1      19.068  49.718  49.474  1.00  0.00     0.062 A 
HETATM   35 BR   UNL     1      17.639  52.174  49.665  1.00  0.00    -0.051 Br
HETATM   36  C   UNL     1      20.192  48.937  49.224  1.00  0.00     0.129 A 
HETATM   37  F   UNL     1      20.095  47.606  49.359  1.00  0.00    -0.205 F 
ENDBRANCH  28  29
ENDBRANCH  27  28
ENDBRANCH   1  27
TORSDOF 10
ENDMDL
MODEL 6
REMARK VINA RESULT:      -7.8      1.890      3.010
REMARK  10 active torsions:
REMARK  status: ('A' for Active; 'I' for Inactive)
REMARK    1  A    between atoms: C_4  and  C_5 
REMARK    2  A    between atoms: C_5  and  O_6 
REMARK    3  A    between atoms: O_6  and  C_7 
REMARK    4  A    between atoms: C_10  and  N_11 
REMARK       I    between atoms: N_11  and  C_12 
REMARK       I    between atoms: C_12  and  N_13 
REMARK    5  A    between atoms: N_13  and  C_14 
REMARK    6  A    between atoms: C_14  and  C_15 
REMARK    7  A    between atoms: C_15  and  C_16 
REMARK    8  A    between atoms: C_16  and  C_17 
REMARK    9  A    between atoms: C_17  and  N_18 
REMARK   10  A    between atoms: C_25  and  C_26 
REMARK       I    between atoms: C_26  and  N_27 
ROOT
HETATM    1  C   UNL     1      24.738  46.627  50.292  1.00  0.00     0.191 C 
HETATM    2  N   UNL     1      24.664  47.941  50.471  1.00  0.00    -0.184 NA
HETATM    3  S   UNL     1      23.561  48.533  49.393  1.00  0.00     0.033 SA
HETATM    4  C   UNL     1      23.073  47.007  48.784  1.00  0.00     0.117 C 
HETATM    5  C   UNL     1      23.921  46.024  49.275  1.00  0.00     0.120 C 
ENDROOT
BRANCH   4   6
HETATM    6  N   UNL     1      21.996  47.103  47.922  1.00  0.00    -0.301 N 
HETATM    7  C   UNL     1      20.746  47.565  48.219  1.00  0.00     0.321 C 
HETATM    8  N   UNL     1      20.405  47.707  49.525  1.00  0.00    -0.343 N 
HETATM    9  O   UNL     1      20.017  47.940  47.300  1.00  0.00    -0.247 OA
HETATM   10  H   UNL     1      20.664  46.878  50.055  1.00  0.00     0.164 HD
HETATM   11  H   UNL     1      22.230  47.297  46.956  1.00  0.00     0.171 HD
BRANCH   8  12
HETATM   12  C   UNL     1      19.149  48.278  49.961  1.00  0.00     0.124 C 
BRANCH  12  13
HETATM   13  C   UNL     1      19.246  49.770  50.299  1.00  0.00     0.021 C 
BRANCH  13  14
HETATM   14  C   UNL     1      18.980  50.746  49.146  1.00  0.00     0.029 C 
BRANCH  14  15
HETATM   15  C   UNL     1      18.823  52.189  49.621  1.00  0.00     0.235 C 
BRANCH  15  16
HETATM   16  N   UNL     1      17.588  52.818  49.026  1.00  0.00    -0.071 N 
HETATM   17  H   UNL     1      17.846  53.750  48.681  1.00  0.00     0.279 HD
HETATM   18  C   UNL     1      16.471  53.005  50.041  1.00  0.00     0.235 C 
HETATM   19  C   UNL     1      15.330  52.148  49.529  1.00  0.00     0.029 C 
HETATM   20  C   UNL     1      15.501  52.208  48.026  1.00  0.00     0.029 C 
HETATM   21  C   UNL     1      16.997  52.042  47.859  1.00  0.00     0.235 C 
ENDBRANCH  15  16
ENDBRANCH  14  15
ENDBRANCH  13  14
ENDBRANCH  12  13
ENDBRANCH   8  12
ENDBRANCH   4   6
BRANCH   5  22
HETATM   22  C   UNL     1      23.997  44.646  48.821  1.00  0.00     0.256 C 
HETATM   23  N   UNL     1      25.220  44.046  48.852  1.00  0.00    -0.366 N 
HETATM   24  H   UNL     1      26.055  44.516  49.182  1.00  0.00     0.159 HD
HETATM   25  H   UNL     1      25.301  43.094  48.520  1.00  0.00     0.159 HD
HETATM   26  O   UNL     1      23.025  44.017  48.412  1.00  0.00    -0.268 OA
ENDBRANCH   5  22
BRANCH   1  27
HETATM   27  O   UNL     1      25.636  45.947  51.043  1.00  0.00    -0.328 OA
BRANCH  27  28
HETATM   28  C   UNL     1      25.115  45.580  52.327  1.00  0.00     0.222 C 
BRANCH  28  29
HETATM   29  C   UNL     1      26.249  45.623  53.310  1.00  0.00     0.043 A 
HETATM   30  C   UNL     1      27.084  44.524  53.505  1.00  0.00     0.129 A 
HETATM   31  C   UNL     1      28.138  44.563  54.415  1.00  0.00     0.062 A 
HETATM   32  F   UNL     1      26.883  43.401  52.803  1.00  0.00    -0.205 F 
HETATM   33  C   UNL     1      28.363  45.727  55.147  1.00  0.00     0.016 A 
HETATM   34  C   UNL     1      27.549  46.841  54.970  1.00  0.00     0.062 A 
HETATM   35 BR   UNL     1      29.786  45.793  56.389  1.00  0.00    -0.051 Br
HETATM   36  C   UNL     1      26.505  46.779  54.052  1.00  0.00     0.129 A 
HETATM   37  F   UNL     1      25.730  47.861  53.884  1.00  0.00    -0.205 F 
ENDBRANCH  28  29
ENDBRANCH  27  28
ENDBRANCH   1  27
TORSDOF 10
ENDMDL
MODEL 7
REMARK VINA RESULT:      -7.8      4.258      9.831
REMARK  10 active torsions:
REMARK  status: ('A' for Active; 'I' for Inactive)
REMARK    1  A    between atoms: C_4  and  C_5 
REMARK    2  A    between atoms: C_5  and  O_6 
REMARK    3  A    between atoms: O_6  and  C_7 
REMARK    4  A    between atoms: C_10  and  N_11 
REMARK       I    between atoms: N_11  and  C_12 
REMARK       I    between atoms: C_12  and  N_13 
REMARK    5  A    between atoms: N_13  and  C_14 
REMARK    6  A    between atoms: C_14  and  C_15 
REMARK    7  A    between atoms: C_15  and  C_16 
REMARK    8  A    between atoms: C_16  and  C_17 
REMARK    9  A    between atoms: C_17  and  N_18 
REMARK   10  A    between atoms: C_25  and  C_26 
REMARK       I    between atoms: C_26  and  N_27 
ROOT
HETATM    1  C   UNL     1      24.067  46.069  49.543  1.00  0.00     0.191 C 
HETATM    2  N   UNL     1      23.113  45.234  49.147  1.00  0.00    -0.184 NA
HETATM    3  S   UNL     1      23.840  43.825  48.684  1.00  0.00     0.033 SA
HETATM    4  C   UNL     1      25.425  44.281  49.152  1.00  0.00     0.117 C 
HETATM    5  C   UNL     1      25.434  45.629  49.487  1.00  0.00     0.120 C 
ENDROOT
BRANCH   4   6
HETATM    6  N   UNL     1      26.327  43.239  49.047  1.00  0.00    -0.301 N 
HETATM    7  C   UNL     1      26.901  42.544  50.072  1.00  0.00     0.321 C 
HETATM    8  N   UNL     1      26.813  43.055  51.325  1.00  0.00    -0.343 N 
HETATM    9  O   UNL     1      27.377  41.431  49.842  1.00  0.00    -0.247 OA
HETATM   10  H   UNL     1      27.052  44.045  51.326  1.00  0.00     0.164 HD
HETATM   11  H   UNL     1      26.213  42.648  48.232  1.00  0.00     0.171 HD
BRANCH   8  12
HETATM   12  C   UNL     1      27.294  42.364  52.502  1.00  0.00     0.124 C 
BRANCH  12  13
HETATM   13  C   UNL     1      28.808  42.128  52.490  1.00  0.00     0.021 C 
BRANCH  13  14
HETATM   14  C   UNL     1      29.684  43.307  52.932  1.00  0.00     0.029 C 
BRANCH  14  15
HETATM   15  C   UNL     1      30.431  43.030  54.235  1.00  0.00     0.235 C 
BRANCH  15  16
HETATM   16  N   UNL     1      29.790  43.763  55.387  1.00  0.00    -0.071 N 
HETATM   17  H   UNL     1      29.292  43.071  55.961  1.00  0.00     0.279 HD
HETATM   18  C   UNL     1      28.770  44.796  54.937  1.00  0.00     0.235 C 
HETATM   19  C   UNL     1      29.320  46.124  55.417  1.00  0.00     0.029 C 
HETATM   20  C   UNL     1      30.056  45.754  56.688  1.00  0.00     0.029 C 
HETATM   21  C   UNL     1      30.779  44.484  56.290  1.00  0.00     0.235 C 
ENDBRANCH  15  16
ENDBRANCH  14  15
ENDBRANCH  13  14
ENDBRANCH  12  13
ENDBRANCH   8  12
ENDBRANCH   4   6
BRANCH   5  22
HETATM   22  C   UNL     1      26.610  46.453  49.708  1.00  0.00     0.256 C 
HETATM   23  N   UNL     1      26.460  47.552  50.500  1.00  0.00    -0.366 N 
HETATM   24  H   UNL     1      25.579  47.799  50.937  1.00  0.00     0.159 HD
HETATM   25  H   UNL     1      27.259  48.154  50.651  1.00  0.00     0.159 HD
HETATM   26  O   UNL     1      27.707  46.210  49.213  1.00  0.00    -0.268 OA
ENDBRANCH   5  22
BRANCH   1  27
HETATM   27  O   UNL     1      23.689  47.316  49.912  1.00  0.00    -0.328 OA
BRANCH  27  28
HETATM   28  C   UNL     1      23.494  48.187  48.792  1.00  0.00     0.222 C 
BRANCH  28  29
HETATM   29  C   UNL     1      22.260  49.000  49.053  1.00  0.00     0.043 A 
HETATM   30  C   UNL     1      20.991  48.426  49.019  1.00  0.00     0.129 A 
HETATM   31  C   UNL     1      19.844  49.178  49.264  1.00  0.00     0.062 A 
HETATM   32  F   UNL     1      20.857  47.120  48.752  1.00  0.00    -0.205 F 
HETATM   33  C   UNL     1      19.968  50.536  49.549  1.00  0.00     0.016 A 
HETATM   34  C   UNL     1      21.222  51.136  49.595  1.00  0.00     0.062 A 
HETATM   35 BR   UNL     1      18.421  51.570  49.879  1.00  0.00    -0.051 Br
HETATM   36  C   UNL     1      22.353  50.362  49.350  1.00  0.00     0.129 A 
HETATM   37  F   UNL     1      23.558  50.949  49.404  1.00  0.00    -0.205 F 
ENDBRANCH  28  29
ENDBRANCH  27  28
ENDBRANCH   1  27
TORSDOF 10
ENDMDL
MODEL 8
REMARK VINA RESULT:      -7.7      5.120     10.704
REMARK  10 active torsions:
REMARK  status: ('A' for Active; 'I' for Inactive)
REMARK    1  A    between atoms: C_4  and  C_5 
REMARK    2  A    between atoms: C_5  and  O_6 
REMARK    3  A    between atoms: O_6  and  C_7 
REMARK    4  A    between atoms: C_10  and  N_11 
REMARK       I    between atoms: N_11  and  C_12 
REMARK       I    between atoms: C_12  and  N_13 
REMARK    5  A    between atoms: N_13  and  C_14 
REMARK    6  A    between atoms: C_14  and  C_15 
REMARK    7  A    between atoms: C_15  and  C_16 
REMARK    8  A    between atoms: C_16  and  C_17 
REMARK    9  A    between atoms: C_17  and  N_18 
REMARK   10  A    between atoms: C_25  and  C_26 
REMARK       I    between atoms: C_26  and  N_27 
ROOT
HETATM    1  C   UNL     1      20.860  48.497  48.974  1.00  0.00     0.191 C 
HETATM    2  N   UNL     1      20.826  47.305  48.391  1.00  0.00    -0.184 NA
HETATM    3  S   UNL     1      22.386  46.841  48.108  1.00  0.00     0.033 SA
HETATM    4  C   UNL     1      23.114  48.175  48.901  1.00  0.00     0.117 C 
HETATM    5  C   UNL     1      22.137  49.109  49.217  1.00  0.00     0.120 C 
ENDROOT
BRANCH   4   6
HETATM    6  N   UNL     1      24.487  48.044  49.001  1.00  0.00    -0.301 N 
HETATM    7  C   UNL     1      25.175  47.293  49.911  1.00  0.00     0.321 C 
HETATM    8  N   UNL     1      24.509  46.825  50.995  1.00  0.00    -0.343 N 
HETATM    9  O   UNL     1      26.339  46.975  49.660  1.00  0.00    -0.247 OA
HETATM   10  H   UNL     1      23.953  47.564  51.422  1.00  0.00     0.164 HD
HETATM   11  H   UNL     1      24.993  48.100  48.126  1.00  0.00     0.171 HD
BRANCH   8  12
HETATM   12  C   UNL     1      25.103  45.940  51.973  1.00  0.00     0.124 C 
BRANCH  12  13
HETATM   13  C   UNL     1      24.895  44.455  51.654  1.00  0.00     0.021 C 
BRANCH  13  14
HETATM   14  C   UNL     1      26.122  43.693  51.137  1.00  0.00     0.029 C 
BRANCH  14  15
HETATM   15  C   UNL     1      27.433  44.238  51.697  1.00  0.00     0.235 C 
BRANCH  15  16
HETATM   16  N   UNL     1      27.938  43.369  52.823  1.00  0.00    -0.071 N 
HETATM   17  H   UNL     1      27.377  42.508  52.831  1.00  0.00     0.279 HD
HETATM   18  C   UNL     1      27.784  44.021  54.188  1.00  0.00     0.235 C 
HETATM   19  C   UNL     1      29.199  44.170  54.711  1.00  0.00     0.029 C 
HETATM   20  C   UNL     1      29.916  42.979  54.111  1.00  0.00     0.029 C 
HETATM   21  C   UNL     1      29.398  42.966  52.688  1.00  0.00     0.235 C 
ENDBRANCH  15  16
ENDBRANCH  14  15
ENDBRANCH  13  14
ENDBRANCH  12  13
ENDBRANCH   8  12
ENDBRANCH   4   6
BRANCH   5  22
HETATM   22  C   UNL     1      22.362  50.469  49.678  1.00  0.00     0.256 C 
HETATM   23  N   UNL     1      21.658  50.881  50.769  1.00  0.00    -0.366 N 
HETATM   24  H   UNL     1      21.008  50.281  51.263  1.00  0.00     0.159 HD
HETATM   25  H   UNL     1      21.782  51.831  51.095  1.00  0.00     0.159 HD
HETATM   26  O   UNL     1      23.138  51.246  49.129  1.00  0.00    -0.268 OA
ENDBRANCH   5  22
BRANCH   1  27
HETATM   27  O   UNL     1      19.673  49.092  49.242  1.00  0.00    -0.328 OA
BRANCH  27  28
HETATM   28  C   UNL     1      19.122  49.761  48.101  1.00  0.00     0.222 C 
BRANCH  28  29
HETATM   29  C   UNL     1      18.041  50.681  48.588  1.00  0.00     0.043 A 
HETATM   30  C   UNL     1      18.337  51.944  49.098  1.00  0.00     0.129 A 
HETATM   31  C   UNL     1      17.335  52.801  49.548  1.00  0.00     0.062 A 
HETATM   32  F   UNL     1      19.610  52.357  49.159  1.00  0.00    -0.205 F 
HETATM   33  C   UNL     1      16.006  52.388  49.485  1.00  0.00     0.016 A 
HETATM   34  C   UNL     1      15.680  51.135  48.976  1.00  0.00     0.062 A 
HETATM   35 BR   UNL     1      14.636  53.537  50.095  1.00  0.00    -0.051 Br
HETATM   36  C   UNL     1      16.698  50.298  48.529  1.00  0.00     0.129 A 
HETATM   37  F   UNL     1      16.372  49.095  48.033  1.00  0.00    -0.205 F 
ENDBRANCH  28  29
ENDBRANCH  27  28
ENDBRANCH   1  27
TORSDOF 10
ENDMDL
MODEL 9
REMARK VINA RESULT:      -7.6      4.362      9.928
REMARK  10 active torsions:
REMARK  status: ('A' for Active; 'I' for Inactive)
REMARK    1  A    between atoms: C_4  and  C_5 
REMARK    2  A    between atoms: C_5  and  O_6 
REMARK    3  A    between atoms: O_6  and  C_7 
REMARK    4  A    between atoms: C_10  and  N_11 
REMARK       I    between atoms: N_11  and  C_12 
REMARK       I    between atoms: C_12  and  N_13 
REMARK    5  A    between atoms: N_13  and  C_14 
REMARK    6  A    between atoms: C_14  and  C_15 
REMARK    7  A    between atoms: C_15  and  C_16 
REMARK    8  A    between atoms: C_16  and  C_17 
REMARK    9  A    between atoms: C_17  and  N_18 
REMARK   10  A    between atoms: C_25  and  C_26 
REMARK       I    between atoms: C_26  and  N_27 
ROOT
HETATM    1  C   UNL     1      24.577  46.271  49.665  1.00  0.00     0.191 C 
HETATM    2  N   UNL     1      25.759  46.841  49.868  1.00  0.00    -0.184 NA
HETATM    3  S   UNL     1      26.906  45.655  49.792  1.00  0.00     0.033 SA
HETATM    4  C   UNL     1      25.832  44.398  49.341  1.00  0.00     0.117 C 
HETATM    5  C   UNL     1      24.524  44.852  49.447  1.00  0.00     0.120 C 
ENDROOT
BRANCH   4   6
HETATM    6  N   UNL     1      26.494  43.226  49.025  1.00  0.00    -0.301 N 
HETATM    7  C   UNL     1      26.927  42.268  49.896  1.00  0.00     0.321 C 
HETATM    8  N   UNL     1      26.970  42.572  51.218  1.00  0.00    -0.343 N 
HETATM    9  O   UNL     1      27.155  41.135  49.469  1.00  0.00    -0.247 OA
HETATM   10  H   UNL     1      27.412  43.478  51.363  1.00  0.00     0.164 HD
HETATM   11  H   UNL     1      26.244  42.814  48.134  1.00  0.00     0.171 HD
BRANCH   8  12
HETATM   12  C   UNL     1      27.317  41.612  52.244  1.00  0.00     0.124 C 
BRANCH  12  13
HETATM   13  C   UNL     1      28.800  41.646  52.631  1.00  0.00     0.021 C 
BRANCH  13  14
HETATM   14  C   UNL     1      29.476  43.023  52.608  1.00  0.00     0.029 C 
BRANCH  14  15
HETATM   15  C   UNL     1      28.750  44.050  53.473  1.00  0.00     0.235 C 
BRANCH  15  16
HETATM   16  N   UNL     1      29.130  43.894  54.925  1.00  0.00    -0.071 N 
HETATM   17  H   UNL     1      28.484  43.217  55.348  1.00  0.00     0.279 HD
HETATM   18  C   UNL     1      29.004  45.189  55.711  1.00  0.00     0.235 C 
HETATM   19  C   UNL     1      30.410  45.497  56.185  1.00  0.00     0.029 C 
HETATM   20  C   UNL     1      31.018  44.124  56.376  1.00  0.00     0.029 C 
HETATM   21  C   UNL     1      30.544  43.381  55.144  1.00  0.00     0.235 C 
ENDBRANCH  15  16
ENDBRANCH  14  15
ENDBRANCH  13  14
ENDBRANCH  12  13
ENDBRANCH   8  12
ENDBRANCH   4   6
BRANCH   5  22
HETATM   22  C   UNL     1      23.322  44.038  49.385  1.00  0.00     0.256 C 
HETATM   23  N   UNL     1      22.233  44.483  50.072  1.00  0.00    -0.366 N 
HETATM   24  H   UNL     1      22.232  45.346  50.603  1.00  0.00     0.159 HD
HETATM   25  H   UNL     1      21.391  43.922  50.061  1.00  0.00     0.159 HD
HETATM   26  O   UNL     1      23.253  42.984  48.758  1.00  0.00    -0.268 OA
ENDBRANCH   5  22
BRANCH   1  27
HETATM   27  O   UNL     1      23.482  47.066  49.744  1.00  0.00    -0.328 OA
BRANCH  27  28
HETATM   28  C   UNL     1      23.486  48.109  48.762  1.00  0.00     0.222 C 
BRANCH  28  29
HETATM   29  C   UNL     1      22.290  48.980  49.015  1.00  0.00     0.043 A 
HETATM   30  C   UNL     1      22.423  50.349  49.241  1.00  0.00     0.129 A 
HETATM   31  C   UNL     1      21.315  51.160  49.474  1.00  0.00     0.062 A 
HETATM   32  F   UNL     1      23.639  50.911  49.232  1.00  0.00    -0.205 F 
HETATM   33  C   UNL     1      20.043  50.591  49.480  1.00  0.00     0.016 A 
HETATM   34  C   UNL     1      19.879  49.228  49.252  1.00  0.00     0.062 A 
HETATM   35 BR   UNL     1      18.530  51.676  49.798  1.00  0.00    -0.051 Br
HETATM   36  C   UNL     1      21.002  48.439  49.018  1.00  0.00     0.129 A 
HETATM   37  F   UNL     1      20.832  47.128  48.793  1.00  0.00    -0.205 F 
ENDBRANCH  28  29
ENDBRANCH  27  28
ENDBRANCH   1  27
TORSDOF 10
ENDMDL
MODEL 10
REMARK VINA RESULT:      -7.6      1.967      2.464
REMARK  10 active torsions:
REMARK  status: ('A' for Active; 'I' for Inactive)
REMARK    1  A    between atoms: C_4  and  C_5 
REMARK    2  A    between atoms: C_5  and  O_6 
REMARK    3  A    between atoms: O_6  and  C_7 
REMARK    4  A    between atoms: C_10  and  N_11 
REMARK       I    between atoms: N_11  and  C_12 
REMARK       I    between atoms: C_12  and  N_13 
REMARK    5  A    between atoms: N_13  and  C_14 
REMARK    6  A    between atoms: C_14  and  C_15 
REMARK    7  A    between atoms: C_15  and  C_16 
REMARK    8  A    between atoms: C_16  and  C_17 
REMARK    9  A    between atoms: C_17  and  N_18 
REMARK   10  A    between atoms: C_25  and  C_26 
REMARK       I    between atoms: C_26  and  N_27 
ROOT
HETATM    1  C   UNL     1      26.310  45.317  51.261  1.00  0.00     0.191 C 
HETATM    2  N   UNL     1      26.199  46.512  51.831  1.00  0.00    -0.184 NA
HETATM    3  S   UNL     1      24.959  47.309  51.088  1.00  0.00     0.033 SA
HETATM    4  C   UNL     1      24.472  45.997  50.098  1.00  0.00     0.117 C 
HETATM    5  C   UNL     1      25.413  44.980  50.190  1.00  0.00     0.120 C 
ENDROOT
BRANCH   4   6
HETATM    6  N   UNL     1      23.303  46.261  49.409  1.00  0.00    -0.301 N 
HETATM    7  C   UNL     1      23.013  47.381  48.685  1.00  0.00     0.321 C 
HETATM    8  N   UNL     1      23.803  48.473  48.842  1.00  0.00    -0.343 N 
HETATM    9  O   UNL     1      22.119  47.326  47.838  1.00  0.00    -0.247 OA
HETATM   10  H   UNL     1      23.961  48.661  49.829  1.00  0.00     0.164 HD
HETATM   11  H   UNL     1      22.839  45.450  49.018  1.00  0.00     0.171 HD
BRANCH   8  12
HETATM   12  C   UNL     1      23.654  49.681  48.060  1.00  0.00     0.124 C 
BRANCH  12  13
HETATM   13  C   UNL     1      22.956  50.814  48.820  1.00  0.00     0.021 C 
BRANCH  13  14
HETATM   14  C   UNL     1      21.474  51.039  48.493  1.00  0.00     0.029 C 
BRANCH  14  15
HETATM   15  C   UNL     1      20.558  50.037  49.192  1.00  0.00     0.235 C 
BRANCH  15  16
HETATM   16  N   UNL     1      19.139  50.546  49.233  1.00  0.00    -0.071 N 
HETATM   17  H   UNL     1      18.575  49.861  49.751  1.00  0.00     0.279 HD
HETATM   18  C   UNL     1      18.520  50.686  47.851  1.00  0.00     0.235 C 
HETATM   19  C   UNL     1      18.218  52.164  47.706  1.00  0.00     0.029 C 
HETATM   20  C   UNL     1      17.905  52.593  49.124  1.00  0.00     0.029 C 
HETATM   21  C   UNL     1      18.981  51.891  49.925  1.00  0.00     0.235 C 
ENDBRANCH  15  16
ENDBRANCH  14  15
ENDBRANCH  13  14
ENDBRANCH  12  13
ENDBRANCH   8  12
ENDBRANCH   4   6
BRANCH   5  22
HETATM   22  C   UNL     1      25.497  43.805  49.339  1.00  0.00     0.256 C 
HETATM   23  N   UNL     1      26.728  43.246  49.170  1.00  0.00    -0.366 N 
HETATM   24  H   UNL     1      27.563  43.609  49.616  1.00  0.00     0.159 HD
HETATM   25  H   UNL     1      26.816  42.440  48.564  1.00  0.00     0.159 HD
HETATM   26  O   UNL     1      24.526  43.312  48.772  1.00  0.00    -0.268 OA
ENDBRANCH   5  22
BRANCH   1  27
HETATM   27  O   UNL     1      27.315  44.516  51.687  1.00  0.00    -0.328 OA
BRANCH  27  28
HETATM   28  C   UNL     1      26.942  43.716  52.816  1.00  0.00     0.222 C 
BRANCH  28  29
HETATM   29  C   UNL     1      28.087  43.730  53.785  1.00  0.00     0.043 A 
HETATM   30  C   UNL     1      28.322  44.822  54.617  1.00  0.00     0.129 A 
HETATM   31  C   UNL     1      29.383  44.836  55.520  1.00  0.00     0.062 A 
HETATM   32  F   UNL     1      27.514  45.889  54.561  1.00  0.00    -0.205 F 
HETATM   33  C   UNL     1      30.229  43.732  55.594  1.00  0.00     0.016 A 
HETATM   34  C   UNL     1      30.016  42.624  54.779  1.00  0.00     0.062 A 
HETATM   35 BR   UNL     1      31.675  43.736  56.810  1.00  0.00    -0.051 Br
HETATM   36  C   UNL     1      28.947  42.633  53.888  1.00  0.00     0.129 A 
HETATM   37  F   UNL     1      28.746  41.557  53.113  1.00  0.00    -0.205 F 
ENDBRANCH  28  29
ENDBRANCH  27  28
ENDBRANCH   1  27
TORSDOF 10
ENDMDL
