MODEL 1
REMARK VINA RESULT:      -8.9      0.000      0.000
REMARK  5 active torsions:
REMARK  status: ('A' for Active; 'I' for Inactive)
REMARK    1  A    between atoms: O_2  and  C_3 
REMARK    2  A    between atoms: C_4  and  O_5 
REMARK    3  A    between atoms: C_10  and  C_11 
REMARK    4  A    between atoms: C_13  and  O_14 
REMARK    5  A    between atoms: O_14  and  C_15 
ROOT
HETATM    1  C   UNL     1      25.734  46.704  51.906  1.00  0.00     0.102 A 
HETATM    2  C   UNL     1      26.063  47.037  50.577  1.00  0.00     0.103 A 
HETATM    3  C   UNL     1      26.384  46.022  49.669  1.00  0.00     0.069 A 
HETATM    4  C   UNL     1      26.355  44.687  50.074  1.00  0.00     0.044 A 
HETATM    5  C   UNL     1      26.025  44.345  51.387  1.00  0.00    -0.020 A 
HETATM    6  C   UNL     1      26.068  42.899  51.830  1.00  0.00     0.063 C 
HETATM    7  C   UNL     1      25.842  41.942  50.655  1.00  0.00     0.117 C 
HETATM    8  C   UNL     1      26.581  42.343  49.402  1.00  0.00     0.223 C 
HETATM    9  O   UNL     1      26.967  41.519  48.576  1.00  0.00    -0.273 OA
HETATM   10  N   UNL     1      26.696  43.685  49.160  1.00  0.00    -0.327 N 
HETATM   11  C   UNL     1      25.713  45.362  52.301  1.00  0.00     0.049 A 
HETATM   12  H   UNL     1      27.083  43.931  48.257  1.00  0.00     0.169 HD
ENDROOT
BRANCH   6  13
HETATM   13  C   UNL     1      27.327  42.542  52.615  1.00  0.00    -0.046 A 
HETATM   14  C   UNL     1      28.215  43.529  53.072  1.00  0.00     0.045 A 
HETATM   15  C   UNL     1      29.426  43.177  53.676  1.00  0.00     0.076 A 
HETATM   16  C   UNL     1      29.717  41.836  53.921  1.00  0.00     0.037 A 
HETATM   17  C   UNL     1      28.826  40.846  53.512  1.00  0.00     0.003 A 
HETATM   18  C   UNL     1      27.647  41.195  52.850  1.00  0.00     0.008 A 
BRANCH  15  19
HETATM   19  O   UNL     1      30.359  44.097  54.099  1.00  0.00    -0.311 OA
BRANCH  19  20
HETATM   20  C   UNL     1      30.436  44.393  55.443  1.00  0.00     0.076 A 
HETATM   21  C   UNL     1      29.598  45.413  55.900  1.00  0.00     0.037 A 
HETATM   22  C   UNL     1      29.611  45.778  57.248  1.00  0.00     0.003 A 
HETATM   23  C   UNL     1      30.458  45.120  58.140  1.00  0.00     0.000 A 
HETATM   24  C   UNL     1      31.274  44.083  57.692  1.00  0.00     0.003 A 
HETATM   25  C   UNL     1      31.247  43.703  56.349  1.00  0.00     0.037 A 
ENDBRANCH  19  20
ENDBRANCH  15  19
ENDBRANCH   6  13
BRANCH   1  26
HETATM   26  O   UNL     1      25.429  47.753  52.739  1.00  0.00    -0.353 OA
HETATM   27  C   UNL     1      25.857  47.649  54.089  1.00  0.00     0.210 C 
ENDBRANCH   1  26
BRANCH   2  28
HETATM   28  O   UNL     1      26.050  48.376  50.273  1.00  0.00    -0.353 OA
HETATM   29  C   UNL     1      26.883  48.824  49.214  1.00  0.00     0.210 C 
ENDBRANCH   2  28
TORSDOF 5
ENDMDL
MODEL 2
REMARK VINA RESULT:      -8.8      2.125      4.580
REMARK  5 active torsions:
REMARK  status: ('A' for Active; 'I' for Inactive)
REMARK    1  A    between atoms: O_2  and  C_3 
REMARK    2  A    between atoms: C_4  and  O_5 
REMARK    3  A    between atoms: C_10  and  C_11 
REMARK    4  A    between atoms: C_13  and  O_14 
REMARK    5  A    between atoms: O_14  and  C_15 
ROOT
HETATM    1  C   UNL     1      24.646  41.913  48.838  1.00  0.00     0.102 A 
HETATM    2  C   UNL     1      23.357  42.475  48.733  1.00  0.00     0.103 A 
HETATM    3  C   UNL     1      23.139  43.790  49.161  1.00  0.00     0.069 A 
HETATM    4  C   UNL     1      24.197  44.545  49.667  1.00  0.00     0.044 A 
HETATM    5  C   UNL     1      25.479  44.000  49.770  1.00  0.00    -0.020 A 
HETATM    6  C   UNL     1      26.600  44.808  50.388  1.00  0.00     0.063 C 
HETATM    7  C   UNL     1      26.362  46.313  50.234  1.00  0.00     0.117 C 
HETATM    8  C   UNL     1      24.935  46.726  50.499  1.00  0.00     0.223 C 
HETATM    9  O   UNL     1      24.644  47.836  50.941  1.00  0.00    -0.273 OA
HETATM   10  N   UNL     1      23.960  45.851  50.106  1.00  0.00    -0.327 N 
HETATM   11  C   UNL     1      25.697  42.680  49.352  1.00  0.00     0.049 A 
HETATM   12  H   UNL     1      23.011  46.198  50.177  1.00  0.00     0.169 HD
ENDROOT
BRANCH   6  13
HETATM   13  C   UNL     1      26.896  44.427  51.834  1.00  0.00    -0.046 A 
HETATM   14  C   UNL     1      28.207  44.210  52.287  1.00  0.00     0.045 A 
HETATM   15  C   UNL     1      28.448  43.738  53.581  1.00  0.00     0.076 A 
HETATM   16  C   UNL     1      27.388  43.573  54.470  1.00  0.00     0.037 A 
HETATM   17  C   UNL     1      26.083  43.825  54.050  1.00  0.00     0.003 A 
HETATM   18  C   UNL     1      25.837  44.234  52.737  1.00  0.00     0.008 A 
BRANCH  15  19
HETATM   19  O   UNL     1      29.707  43.458  54.065  1.00  0.00    -0.311 OA
BRANCH  19  20
HETATM   20  C   UNL     1      30.077  43.977  55.287  1.00  0.00     0.076 A 
HETATM   21  C   UNL     1      30.957  43.203  56.047  1.00  0.00     0.037 A 
HETATM   22  C   UNL     1      31.384  43.652  57.298  1.00  0.00     0.003 A 
HETATM   23  C   UNL     1      30.935  44.879  57.789  1.00  0.00     0.000 A 
HETATM   24  C   UNL     1      30.078  45.666  57.020  1.00  0.00     0.003 A 
HETATM   25  C   UNL     1      29.667  45.227  55.761  1.00  0.00     0.037 A 
ENDBRANCH  19  20
ENDBRANCH  15  19
ENDBRANCH   6  13
BRANCH   1  26
HETATM   26  O   UNL     1      24.785  40.620  48.398  1.00  0.00    -0.353 OA
HETATM   27  C   UNL     1      26.075  40.036  48.509  1.00  0.00     0.210 C 
ENDBRANCH   1  26
BRANCH   2  28
HETATM   28  O   UNL     1      22.387  41.656  48.210  1.00  0.00    -0.353 OA
HETATM   29  C   UNL     1      22.007  41.859  46.857  1.00  0.00     0.210 C 
ENDBRANCH   2  28
TORSDOF 5
ENDMDL
MODEL 3
REMARK VINA RESULT:      -8.4      4.929      7.766
REMARK  5 active torsions:
REMARK  status: ('A' for Active; 'I' for Inactive)
REMARK    1  A    between atoms: O_2  and  C_3 
REMARK    2  A    between atoms: C_4  and  O_5 
REMARK    3  A    between atoms: C_10  and  C_11 
REMARK    4  A    between atoms: C_13  and  O_14 
REMARK    5  A    between atoms: O_14  and  C_15 
ROOT
HETATM    1  C   UNL     1      20.449  46.749  47.306  1.00  0.00     0.102 A 
HETATM    2  C   UNL     1      19.446  46.909  48.283  1.00  0.00     0.103 A 
HETATM    3  C   UNL     1      19.579  47.907  49.255  1.00  0.00     0.069 A 
HETATM    4  C   UNL     1      20.689  48.752  49.241  1.00  0.00     0.044 A 
HETATM    5  C   UNL     1      21.687  48.606  48.274  1.00  0.00    -0.020 A 
HETATM    6  C   UNL     1      22.919  49.484  48.316  1.00  0.00     0.063 C 
HETATM    7  C   UNL     1      22.635  50.823  49.002  1.00  0.00     0.117 C 
HETATM    8  C   UNL     1      21.789  50.695  50.245  1.00  0.00     0.223 C 
HETATM    9  O   UNL     1      21.881  51.482  51.185  1.00  0.00    -0.273 OA
HETATM   10  N   UNL     1      20.818  49.733  50.229  1.00  0.00    -0.327 N 
HETATM   11  C   UNL     1      21.560  47.600  47.306  1.00  0.00     0.049 A 
HETATM   12  H   UNL     1      20.182  49.745  51.018  1.00  0.00     0.169 HD
ENDROOT
BRANCH   6  13
HETATM   13  C   UNL     1      24.137  48.789  48.916  1.00  0.00    -0.046 A 
HETATM   14  C   UNL     1      24.009  47.701  49.794  1.00  0.00     0.045 A 
HETATM   15  C   UNL     1      25.129  47.160  50.433  1.00  0.00     0.076 A 
HETATM   16  C   UNL     1      26.402  47.636  50.126  1.00  0.00     0.037 A 
HETATM   17  C   UNL     1      26.551  48.688  49.224  1.00  0.00     0.003 A 
HETATM   18  C   UNL     1      25.427  49.271  48.635  1.00  0.00     0.008 A 
BRANCH  15  19
HETATM   19  O   UNL     1      25.059  46.127  51.342  1.00  0.00    -0.311 OA
BRANCH  19  20
HETATM   20  C   UNL     1      25.791  46.219  52.506  1.00  0.00     0.076 A 
HETATM   21  C   UNL     1      26.686  45.176  52.758  1.00  0.00     0.037 A 
HETATM   22  C   UNL     1      27.467  45.189  53.915  1.00  0.00     0.003 A 
HETATM   23  C   UNL     1      27.359  46.247  54.818  1.00  0.00     0.000 A 
HETATM   24  C   UNL     1      26.487  47.302  54.555  1.00  0.00     0.003 A 
HETATM   25  C   UNL     1      25.721  47.301  53.389  1.00  0.00     0.037 A 
ENDBRANCH  19  20
ENDBRANCH  15  19
ENDBRANCH   6  13
BRANCH   1  26
HETATM   26  O   UNL     1      20.249  45.751  46.384  1.00  0.00    -0.353 OA
HETATM   27  C   UNL     1      21.160  44.661  46.405  1.00  0.00     0.210 C 
ENDBRANCH   1  26
BRANCH   2  28
HETATM   28  O   UNL     1      18.388  46.037  48.203  1.00  0.00    -0.353 OA
HETATM   29  C   UNL     1      17.080  46.565  48.371  1.00  0.00     0.210 C 
ENDBRANCH   2  28
TORSDOF 5
ENDMDL
MODEL 4
REMARK VINA RESULT:      -8.4      3.041      5.039
REMARK  5 active torsions:
REMARK  status: ('A' for Active; 'I' for Inactive)
REMARK    1  A    between atoms: O_2  and  C_3 
REMARK    2  A    between atoms: C_4  and  O_5 
REMARK    3  A    between atoms: C_10  and  C_11 
REMARK    4  A    between atoms: C_13  and  O_14 
REMARK    5  A    between atoms: O_14  and  C_15 
ROOT
HETATM    1  C   UNL     1      22.350  47.445  48.866  1.00  0.00     0.102 A 
HETATM    2  C   UNL     1      22.466  48.808  48.526  1.00  0.00     0.103 A 
HETATM    3  C   UNL     1      23.716  49.433  48.587  1.00  0.00     0.069 A 
HETATM    4  C   UNL     1      24.845  48.702  48.962  1.00  0.00     0.044 A 
HETATM    5  C   UNL     1      24.743  47.350  49.296  1.00  0.00    -0.020 A 
HETATM    6  C   UNL     1      25.963  46.590  49.770  1.00  0.00     0.063 C 
HETATM    7  C   UNL     1      27.256  47.201  49.221  1.00  0.00     0.117 C 
HETATM    8  C   UNL     1      27.274  48.710  49.265  1.00  0.00     0.223 C 
HETATM    9  O   UNL     1      28.317  49.350  49.387  1.00  0.00    -0.273 OA
HETATM   10  N   UNL     1      26.085  49.345  49.036  1.00  0.00    -0.327 N 
HETATM   11  C   UNL     1      23.488  46.726  49.246  1.00  0.00     0.049 A 
HETATM   12  H   UNL     1      26.141  50.352  48.945  1.00  0.00     0.169 HD
ENDROOT
BRANCH   6  13
HETATM   13  C   UNL     1      26.018  46.416  51.284  1.00  0.00    -0.046 A 
HETATM   14  C   UNL     1      26.454  45.220  51.874  1.00  0.00     0.045 A 
HETATM   15  C   UNL     1      26.377  45.033  53.258  1.00  0.00     0.076 A 
HETATM   16  C   UNL     1      25.957  46.079  54.077  1.00  0.00     0.037 A 
HETATM   17  C   UNL     1      25.560  47.289  53.511  1.00  0.00     0.003 A 
HETATM   18  C   UNL     1      25.576  47.452  52.124  1.00  0.00     0.008 A 
BRANCH  15  19
HETATM   19  O   UNL     1      26.742  43.865  53.888  1.00  0.00    -0.311 OA
BRANCH  19  20
HETATM   20  C   UNL     1      28.081  43.621  54.107  1.00  0.00     0.076 A 
HETATM   21  C   UNL     1      28.690  44.372  55.115  1.00  0.00     0.037 A 
HETATM   22  C   UNL     1      30.043  44.189  55.404  1.00  0.00     0.003 A 
HETATM   23  C   UNL     1      30.788  43.252  54.688  1.00  0.00     0.000 A 
HETATM   24  C   UNL     1      30.176  42.480  53.701  1.00  0.00     0.003 A 
HETATM   25  C   UNL     1      28.818  42.648  53.426  1.00  0.00     0.037 A 
ENDBRANCH  19  20
ENDBRANCH  15  19
ENDBRANCH   6  13
BRANCH   1  26
HETATM   26  O   UNL     1      21.092  46.900  48.781  1.00  0.00    -0.353 OA
HETATM   27  C   UNL     1      20.962  45.689  48.051  1.00  0.00     0.210 C 
ENDBRANCH   1  26
BRANCH   2  28
HETATM   28  O   UNL     1      21.301  49.435  48.157  1.00  0.00    -0.353 OA
HETATM   29  C   UNL     1      21.274  50.854  48.184  1.00  0.00     0.210 C 
ENDBRANCH   2  28
TORSDOF 5
ENDMDL
MODEL 5
REMARK VINA RESULT:      -8.1      1.621      2.412
REMARK  5 active torsions:
REMARK  status: ('A' for Active; 'I' for Inactive)
REMARK    1  A    between atoms: O_2  and  C_3 
REMARK    2  A    between atoms: C_4  and  O_5 
REMARK    3  A    between atoms: C_10  and  C_11 
REMARK    4  A    between atoms: C_13  and  O_14 
REMARK    5  A    between atoms: O_14  and  C_15 
ROOT
HETATM    1  C   UNL     1      25.056  46.740  51.370  1.00  0.00     0.102 A 
HETATM    2  C   UNL     1      24.963  47.223  50.049  1.00  0.00     0.103 A 
HETATM    3  C   UNL     1      24.735  46.327  48.999  1.00  0.00     0.069 A 
HETATM    4  C   UNL     1      24.580  44.965  49.263  1.00  0.00     0.044 A 
HETATM    5  C   UNL     1      24.666  44.476  50.569  1.00  0.00    -0.020 A 
HETATM    6  C   UNL     1      24.567  42.989  50.830  1.00  0.00     0.063 C 
HETATM    7  C   UNL     1      23.758  42.277  49.742  1.00  0.00     0.117 C 
HETATM    8  C   UNL     1      24.079  42.751  48.346  1.00  0.00     0.223 C 
HETATM    9  O   UNL     1      23.978  42.018  47.364  1.00  0.00    -0.273 OA
HETATM   10  N   UNL     1      24.371  44.080  48.201  1.00  0.00    -0.327 N 
HETATM   11  C   UNL     1      24.904  45.372  51.621  1.00  0.00     0.049 A 
HETATM   12  H   UNL     1      24.460  44.403  47.246  1.00  0.00     0.169 HD
ENDROOT
BRANCH   6  13
HETATM   13  C   UNL     1      25.920  42.322  51.055  1.00  0.00    -0.046 A 
HETATM   14  C   UNL     1      26.496  42.233  52.332  1.00  0.00     0.045 A 
HETATM   15  C   UNL     1      27.792  41.735  52.501  1.00  0.00     0.076 A 
HETATM   16  C   UNL     1      28.488  41.226  51.407  1.00  0.00     0.037 A 
HETATM   17  C   UNL     1      27.915  41.268  50.137  1.00  0.00     0.003 A 
HETATM   18  C   UNL     1      26.646  41.825  49.960  1.00  0.00     0.008 A 
BRANCH  15  19
HETATM   19  O   UNL     1      28.428  41.670  53.721  1.00  0.00    -0.311 OA
BRANCH  19  20
HETATM   20  C   UNL     1      28.811  42.845  54.331  1.00  0.00     0.076 A 
HETATM   21  C   UNL     1      30.106  42.876  54.855  1.00  0.00     0.037 A 
HETATM   22  C   UNL     1      30.577  44.026  55.490  1.00  0.00     0.003 A 
HETATM   23  C   UNL     1      29.756  45.149  55.597  1.00  0.00     0.000 A 
HETATM   24  C   UNL     1      28.474  45.131  55.050  1.00  0.00     0.003 A 
HETATM   25  C   UNL     1      28.009  43.988  54.397  1.00  0.00     0.037 A 
ENDBRANCH  19  20
ENDBRANCH  15  19
ENDBRANCH   6  13
BRANCH   1  26
HETATM   26  O   UNL     1      25.279  47.678  52.348  1.00  0.00    -0.353 OA
HETATM   27  C   UNL     1      25.785  47.208  53.589  1.00  0.00     0.210 C 
ENDBRANCH   1  26
BRANCH   2  28
HETATM   28  O   UNL     1      25.115  48.579  49.895  1.00  0.00    -0.353 OA
HETATM   29  C   UNL     1      26.179  49.037  49.073  1.00  0.00     0.210 C 
ENDBRANCH   2  28
TORSDOF 5
ENDMDL
MODEL 6
REMARK VINA RESULT:      -7.9     15.027     17.498
REMARK  5 active torsions:
REMARK  status: ('A' for Active; 'I' for Inactive)
REMARK    1  A    between atoms: O_2  and  C_3 
REMARK    2  A    between atoms: C_4  and  O_5 
REMARK    3  A    between atoms: C_10  and  C_11 
REMARK    4  A    between atoms: C_13  and  O_14 
REMARK    5  A    between atoms: O_14  and  C_15 
ROOT
HETATM    1  C   UNL     1      41.994  44.844  64.294  1.00  0.00     0.102 A 
HETATM    2  C   UNL     1      42.636  43.919  65.141  1.00  0.00     0.103 A 
HETATM    3  C   UNL     1      42.096  42.638  65.302  1.00  0.00     0.069 A 
HETATM    4  C   UNL     1      40.940  42.274  64.610  1.00  0.00     0.044 A 
HETATM    5  C   UNL     1      40.298  43.182  63.764  1.00  0.00    -0.020 A 
HETATM    6  C   UNL     1      39.006  42.797  63.077  1.00  0.00     0.063 C 
HETATM    7  C   UNL     1      38.902  41.281  62.880  1.00  0.00     0.117 C 
HETATM    8  C   UNL     1      39.354  40.486  64.080  1.00  0.00     0.223 C 
HETATM    9  O   UNL     1      38.889  39.380  64.347  1.00  0.00    -0.273 OA
HETATM   10  N   UNL     1      40.402  40.997  64.795  1.00  0.00    -0.327 N 
HETATM   11  C   UNL     1      40.832  44.469  63.610  1.00  0.00     0.049 A 
HETATM   12  H   UNL     1      40.771  40.391  65.518  1.00  0.00     0.169 HD
ENDROOT
BRANCH   6  13
HETATM   13  C   UNL     1      37.765  43.364  63.758  1.00  0.00    -0.046 A 
HETATM   14  C   UNL     1      37.364  44.696  63.569  1.00  0.00     0.045 A 
HETATM   15  C   UNL     1      36.300  45.234  64.300  1.00  0.00     0.076 A 
HETATM   16  C   UNL     1      35.560  44.418  65.154  1.00  0.00     0.037 A 
HETATM   17  C   UNL     1      35.918  43.081  65.321  1.00  0.00     0.003 A 
HETATM   18  C   UNL     1      37.022  42.562  64.639  1.00  0.00     0.008 A 
BRANCH  15  19
HETATM   19  O   UNL     1      35.893  46.546  64.196  1.00  0.00    -0.311 OA
BRANCH  19  20
HETATM   20  C   UNL     1      36.437  47.478  65.053  1.00  0.00     0.076 A 
HETATM   21  C   UNL     1      37.374  48.354  64.501  1.00  0.00     0.037 A 
HETATM   22  C   UNL     1      37.975  49.330  65.298  1.00  0.00     0.003 A 
HETATM   23  C   UNL     1      37.637  49.434  66.647  1.00  0.00     0.000 A 
HETATM   24  C   UNL     1      36.682  48.578  67.195  1.00  0.00     0.003 A 
HETATM   25  C   UNL     1      36.065  47.616  66.394  1.00  0.00     0.037 A 
ENDBRANCH  19  20
ENDBRANCH  15  19
ENDBRANCH   6  13
BRANCH   1  26
HETATM   26  O   UNL     1      42.582  46.080  64.184  1.00  0.00    -0.353 OA
HETATM   27  C   UNL     1      42.015  47.135  64.948  1.00  0.00     0.210 C 
ENDBRANCH   1  26
BRANCH   2  28
HETATM   28  O   UNL     1      43.773  44.367  65.766  1.00  0.00    -0.353 OA
HETATM   29  C   UNL     1      43.741  44.511  67.178  1.00  0.00     0.210 C 
ENDBRANCH   2  28
TORSDOF 5
ENDMDL
MODEL 7
REMARK VINA RESULT:      -7.9     11.950     14.325
REMARK  5 active torsions:
REMARK  status: ('A' for Active; 'I' for Inactive)
REMARK    1  A    between atoms: O_2  and  C_3 
REMARK    2  A    between atoms: C_4  and  O_5 
REMARK    3  A    between atoms: C_10  and  C_11 
REMARK    4  A    between atoms: C_13  and  O_14 
REMARK    5  A    between atoms: O_14  and  C_15 
ROOT
HETATM    1  C   UNL     1      28.172  46.291  39.022  1.00  0.00     0.102 A 
HETATM    2  C   UNL     1      27.510  46.221  40.264  1.00  0.00     0.103 A 
HETATM    3  C   UNL     1      27.223  47.399  40.962  1.00  0.00     0.069 A 
HETATM    4  C   UNL     1      27.571  48.637  40.418  1.00  0.00     0.044 A 
HETATM    5  C   UNL     1      28.222  48.718  39.185  1.00  0.00    -0.020 A 
HETATM    6  C   UNL     1      28.657  50.062  38.644  1.00  0.00     0.063 C 
HETATM    7  C   UNL     1      27.781  51.198  39.182  1.00  0.00     0.117 C 
HETATM    8  C   UNL     1      27.469  51.071  40.653  1.00  0.00     0.223 C 
HETATM    9  O   UNL     1      27.270  52.052  41.368  1.00  0.00    -0.273 OA
HETATM   10  N   UNL     1      27.293  49.804  41.136  1.00  0.00    -0.327 N 
HETATM   11  C   UNL     1      28.521  47.537  38.490  1.00  0.00     0.049 A 
HETATM   12  H   UNL     1      26.963  49.746  42.091  1.00  0.00     0.169 HD
ENDROOT
BRANCH   6  13
HETATM   13  C   UNL     1      30.141  50.348  38.850  1.00  0.00    -0.046 A 
HETATM   14  C   UNL     1      30.866  49.762  39.900  1.00  0.00     0.045 A 
HETATM   15  C   UNL     1      32.191  50.134  40.149  1.00  0.00     0.076 A 
HETATM   16  C   UNL     1      32.838  51.020  39.291  1.00  0.00     0.037 A 
HETATM   17  C   UNL     1      32.145  51.579  38.218  1.00  0.00     0.003 A 
HETATM   18  C   UNL     1      30.803  51.257  38.008  1.00  0.00     0.008 A 
BRANCH  15  19
HETATM   19  O   UNL     1      32.936  49.632  41.193  1.00  0.00    -0.311 OA
BRANCH  19  20
HETATM   20  C   UNL     1      33.232  50.461  42.254  1.00  0.00     0.076 A 
HETATM   21  C   UNL     1      32.182  50.745  43.129  1.00  0.00     0.037 A 
HETATM   22  C   UNL     1      32.393  51.577  44.230  1.00  0.00     0.003 A 
HETATM   23  C   UNL     1      33.657  52.121  44.461  1.00  0.00     0.000 A 
HETATM   24  C   UNL     1      34.714  51.817  43.604  1.00  0.00     0.003 A 
HETATM   25  C   UNL     1      34.509  50.969  42.515  1.00  0.00     0.037 A 
ENDBRANCH  19  20
ENDBRANCH  15  19
ENDBRANCH   6  13
BRANCH   1  26
HETATM   26  O   UNL     1      28.420  45.095  38.394  1.00  0.00    -0.353 OA
HETATM   27  C   UNL     1      27.680  44.821  37.213  1.00  0.00     0.210 C 
ENDBRANCH   1  26
BRANCH   2  28
HETATM   28  O   UNL     1      27.198  44.959  40.707  1.00  0.00    -0.353 OA
HETATM   29  C   UNL     1      25.834  44.667  40.969  1.00  0.00     0.210 C 
ENDBRANCH   2  28
TORSDOF 5
ENDMDL
MODEL 8
REMARK VINA RESULT:      -7.8      6.394     10.250
REMARK  5 active torsions:
REMARK  status: ('A' for Active; 'I' for Inactive)
REMARK    1  A    between atoms: O_2  and  C_3 
REMARK    2  A    between atoms: C_4  and  O_5 
REMARK    3  A    between atoms: C_10  and  C_11 
REMARK    4  A    between atoms: C_13  and  O_14 
REMARK    5  A    between atoms: O_14  and  C_15 
ROOT
HETATM    1  C   UNL     1      23.551  48.348  49.237  1.00  0.00     0.102 A 
HETATM    2  C   UNL     1      24.195  47.365  50.015  1.00  0.00     0.103 A 
HETATM    3  C   UNL     1      23.935  46.012  49.774  1.00  0.00     0.069 A 
HETATM    4  C   UNL     1      23.059  45.640  48.753  1.00  0.00     0.044 A 
HETATM    5  C   UNL     1      22.419  46.605  47.972  1.00  0.00    -0.020 A 
HETATM    6  C   UNL     1      21.417  46.188  46.918  1.00  0.00     0.063 C 
HETATM    7  C   UNL     1      21.699  44.774  46.400  1.00  0.00     0.117 C 
HETATM    8  C   UNL     1      22.059  43.795  47.491  1.00  0.00     0.223 C 
HETATM    9  O   UNL     1      21.809  42.594  47.404  1.00  0.00    -0.273 OA
HETATM   10  N   UNL     1      22.795  44.284  48.535  1.00  0.00    -0.327 N 
HETATM   11  C   UNL     1      22.671  47.962  48.220  1.00  0.00     0.049 A 
HETATM   12  H   UNL     1      23.132  43.590  49.191  1.00  0.00     0.169 HD
ENDROOT
BRANCH   6  13
HETATM   13  C   UNL     1      19.967  46.348  47.362  1.00  0.00    -0.046 A 
HETATM   14  C   UNL     1      19.554  47.430  48.156  1.00  0.00     0.045 A 
HETATM   15  C   UNL     1      18.251  47.492  48.660  1.00  0.00     0.076 A 
HETATM   16  C   UNL     1      17.317  46.525  48.292  1.00  0.00     0.037 A 
HETATM   17  C   UNL     1      17.699  45.467  47.469  1.00  0.00     0.003 A 
HETATM   18  C   UNL     1      19.018  45.371  47.020  1.00  0.00     0.008 A 
BRANCH  15  19
HETATM   19  O   UNL     1      17.803  48.500  49.484  1.00  0.00    -0.311 OA
BRANCH  19  20
HETATM   20  C   UNL     1      18.109  49.804  49.162  1.00  0.00     0.076 A 
HETATM   21  C   UNL     1      18.986  50.466  50.026  1.00  0.00     0.037 A 
HETATM   22  C   UNL     1      19.350  51.789  49.775  1.00  0.00     0.003 A 
HETATM   23  C   UNL     1      18.844  52.452  48.657  1.00  0.00     0.000 A 
HETATM   24  C   UNL     1      17.991  51.786  47.778  1.00  0.00     0.003 A 
HETATM   25  C   UNL     1      17.642  50.456  48.016  1.00  0.00     0.037 A 
ENDBRANCH  19  20
ENDBRANCH  15  19
ENDBRANCH   6  13
BRANCH   1  26
HETATM   26  O   UNL     1      23.857  49.655  49.530  1.00  0.00    -0.353 OA
HETATM   27  C   UNL     1      22.987  50.652  49.014  1.00  0.00     0.210 C 
ENDBRANCH   1  26
BRANCH   2  28
HETATM   28  O   UNL     1      25.048  47.832  50.984  1.00  0.00    -0.353 OA
HETATM   29  C   UNL     1      25.558  46.898  51.925  1.00  0.00     0.210 C 
ENDBRANCH   2  28
TORSDOF 5
ENDMDL
MODEL 9
REMARK VINA RESULT:      -7.7      3.383      4.644
REMARK  5 active torsions:
REMARK  status: ('A' for Active; 'I' for Inactive)
REMARK    1  A    between atoms: O_2  and  C_3 
REMARK    2  A    between atoms: C_4  and  O_5 
REMARK    3  A    between atoms: C_10  and  C_11 
REMARK    4  A    between atoms: C_13  and  O_14 
REMARK    5  A    between atoms: O_14  and  C_15 
ROOT
HETATM    1  C   UNL     1      21.560  44.639  48.509  1.00  0.00     0.102 A 
HETATM    2  C   UNL     1      22.142  44.365  47.255  1.00  0.00     0.103 A 
HETATM    3  C   UNL     1      23.403  43.761  47.194  1.00  0.00     0.069 A 
HETATM    4  C   UNL     1      24.068  43.413  48.370  1.00  0.00     0.044 A 
HETATM    5  C   UNL     1      23.499  43.675  49.619  1.00  0.00    -0.020 A 
HETATM    6  C   UNL     1      24.264  43.357  50.885  1.00  0.00     0.063 C 
HETATM    7  C   UNL     1      25.268  42.220  50.666  1.00  0.00     0.117 C 
HETATM    8  C   UNL     1      26.024  42.328  49.365  1.00  0.00     0.223 C 
HETATM    9  O   UNL     1      27.166  41.890  49.231  1.00  0.00    -0.273 OA
HETATM   10  N   UNL     1      25.335  42.826  48.294  1.00  0.00    -0.327 N 
HETATM   11  C   UNL     1      22.240  44.290  49.681  1.00  0.00     0.049 A 
HETATM   12  H   UNL     1      25.817  42.774  47.405  1.00  0.00     0.169 HD
ENDROOT
BRANCH   6  13
HETATM   13  C   UNL     1      24.922  44.578  51.518  1.00  0.00    -0.046 A 
HETATM   14  C   UNL     1      25.441  44.544  52.822  1.00  0.00     0.045 A 
HETATM   15  C   UNL     1      25.924  45.706  53.431  1.00  0.00     0.076 A 
HETATM   16  C   UNL     1      25.986  46.895  52.708  1.00  0.00     0.037 A 
HETATM   17  C   UNL     1      25.515  46.937  51.397  1.00  0.00     0.003 A 
HETATM   18  C   UNL     1      24.972  45.791  50.811  1.00  0.00     0.008 A 
BRANCH  15  19
HETATM   19  O   UNL     1      26.398  45.745  54.724  1.00  0.00    -0.311 OA
BRANCH  19  20
HETATM   20  C   UNL     1      27.675  45.290  54.975  1.00  0.00     0.076 A 
HETATM   21  C   UNL     1      28.440  46.053  55.860  1.00  0.00     0.037 A 
HETATM   22  C   UNL     1      29.745  45.665  56.170  1.00  0.00     0.003 A 
HETATM   23  C   UNL     1      30.284  44.511  55.601  1.00  0.00     0.000 A 
HETATM   24  C   UNL     1      29.512  43.733  54.739  1.00  0.00     0.003 A 
HETATM   25  C   UNL     1      28.200  44.109  54.443  1.00  0.00     0.037 A 
ENDBRANCH  19  20
ENDBRANCH  15  19
ENDBRANCH   6  13
BRANCH   1  26
HETATM   26  O   UNL     1      20.321  45.231  48.490  1.00  0.00    -0.353 OA
HETATM   27  C   UNL     1      20.275  46.637  48.691  1.00  0.00     0.210 C 
ENDBRANCH   1  26
BRANCH   2  28
HETATM   28  O   UNL     1      21.402  44.734  46.158  1.00  0.00    -0.353 OA
HETATM   29  C   UNL     1      20.839  43.702  45.361  1.00  0.00     0.210 C 
ENDBRANCH   2  28
TORSDOF 5
ENDMDL
MODEL 10
REMARK VINA RESULT:      -7.7     15.106     16.957
REMARK  5 active torsions:
REMARK  status: ('A' for Active; 'I' for Inactive)
REMARK    1  A    between atoms: O_2  and  C_3 
REMARK    2  A    between atoms: C_4  and  O_5 
REMARK    3  A    between atoms: C_10  and  C_11 
REMARK    4  A    between atoms: C_13  and  O_14 
REMARK    5  A    between atoms: O_14  and  C_15 
ROOT
HETATM    1  C   UNL     1      34.827  43.680  67.117  1.00  0.00     0.102 A 
HETATM    2  C   UNL     1      35.197  44.463  68.229  1.00  0.00     0.103 A 
HETATM    3  C   UNL     1      35.970  45.614  68.039  1.00  0.00     0.069 A 
HETATM    4  C   UNL     1      36.354  45.994  66.752  1.00  0.00     0.044 A 
HETATM    5  C   UNL     1      35.989  45.228  65.642  1.00  0.00    -0.020 A 
HETATM    6  C   UNL     1      36.473  45.614  64.261  1.00  0.00     0.063 C 
HETATM    7  C   UNL     1      36.754  47.116  64.161  1.00  0.00     0.117 C 
HETATM    8  C   UNL     1      37.470  47.675  65.366  1.00  0.00     0.223 C 
HETATM    9  O   UNL     1      38.226  48.642  65.290  1.00  0.00    -0.273 OA
HETATM   10  N   UNL     1      37.141  47.136  66.579  1.00  0.00    -0.327 N 
HETATM   11  C   UNL     1      35.222  44.069  65.832  1.00  0.00     0.049 A 
HETATM   12  H   UNL     1      37.536  47.606  67.385  1.00  0.00     0.169 HD
ENDROOT
BRANCH   6  13
HETATM   13  C   UNL     1      37.658  44.783  63.781  1.00  0.00    -0.046 A 
HETATM   14  C   UNL     1      37.504  43.456  63.352  1.00  0.00     0.045 A 
HETATM   15  C   UNL     1      38.618  42.670  63.037  1.00  0.00     0.076 A 
HETATM   16  C   UNL     1      39.892  43.234  63.052  1.00  0.00     0.037 A 
HETATM   17  C   UNL     1      40.059  44.563  63.435  1.00  0.00     0.003 A 
HETATM   18  C   UNL     1      38.953  45.328  63.811  1.00  0.00     0.008 A 
BRANCH  15  19
HETATM   19  O   UNL     1      38.533  41.349  62.660  1.00  0.00    -0.311 OA
BRANCH  19  20
HETATM   20  C   UNL     1      39.129  40.393  63.454  1.00  0.00     0.076 A 
HETATM   21  C   UNL     1      39.848  39.397  62.790  1.00  0.00     0.037 A 
HETATM   22  C   UNL     1      40.484  38.390  63.517  1.00  0.00     0.003 A 
HETATM   23  C   UNL     1      40.406  38.379  64.910  1.00  0.00     0.000 A 
HETATM   24  C   UNL     1      39.712  39.388  65.577  1.00  0.00     0.003 A 
HETATM   25  C   UNL     1      39.093  40.408  64.852  1.00  0.00     0.037 A 
ENDBRANCH  19  20
ENDBRANCH  15  19
ENDBRANCH   6  13
BRANCH   1  26
HETATM   26  O   UNL     1      34.067  42.567  67.380  1.00  0.00    -0.353 OA
HETATM   27  C   UNL     1      32.709  42.601  66.966  1.00  0.00     0.210 C 
ENDBRANCH   1  26
BRANCH   2  28
HETATM   28  O   UNL     1      34.759  44.014  69.451  1.00  0.00    -0.353 OA
HETATM   29  C   UNL     1      35.537  44.337  70.594  1.00  0.00     0.210 C 
ENDBRANCH   2  28
TORSDOF 5
ENDMDL
