MODEL 1
REMARK VINA RESULT:      -9.0      0.000      0.000
REMARK  7 active torsions:
REMARK  status: ('A' for Active; 'I' for Inactive)
REMARK    1  A    between atoms: O_2  and  C_3 
REMARK    2  A    between atoms: C_4  and  C_5 
REMARK    3  A    between atoms: C_5  and  N_6 
REMARK    4  A    between atoms: C_5  and  C_12 
REMARK    5  A    between atoms: C_12  and  N_13 
REMARK       I    between atoms: N_13  and  C_14 
REMARK       I    between atoms: C_14  and  N_15 
REMARK    6  A    between atoms: N_15  and  C_16 
REMARK    7  A    between atoms: C_17  and  O_18 
ROOT
HETATM    1  N   UNL     1      26.090  46.516  51.855  1.00  0.00    -0.341 N 
HETATM    2  C   UNL     1      26.152  45.457  52.724  1.00  0.00     0.316 C 
HETATM    3  N   UNL     1      27.429  45.045  52.943  1.00  0.00    -0.332 N 
HETATM    4  O   UNL     1      25.172  45.026  53.316  1.00  0.00    -0.247 OA
HETATM    5  H   UNL     1      26.854  46.564  51.194  1.00  0.00     0.164 HD
HETATM    6  H   UNL     1      28.058  45.058  52.152  1.00  0.00     0.165 HD
ENDROOT
BRANCH   1   7
HETATM    7  C   UNL     1      24.803  47.053  51.431  1.00  0.00     0.162 C 
BRANCH   7   8
HETATM    8  C   UNL     1      24.452  46.947  49.907  1.00  0.00     0.241 C 
BRANCH   8   9
HETATM    9  C   UNL     1      24.055  48.277  49.262  1.00  0.00     0.007 A 
HETATM   10  C   UNL     1      25.058  49.075  48.668  1.00  0.00     0.076 A 
HETATM   11  C   UNL     1      24.732  50.281  48.040  1.00  0.00     0.037 A 
HETATM   12  C   UNL     1      23.408  50.715  48.008  1.00  0.00     0.003 A 
HETATM   13  C   UNL     1      22.408  49.943  48.587  1.00  0.00     0.001 A 
HETATM   14  C   UNL     1      22.725  48.731  49.205  1.00  0.00     0.012 A 
BRANCH  10  15
HETATM   15  O   UNL     1      26.330  48.555  48.681  1.00  0.00    -0.355 OA
HETATM   16  C   UNL     1      27.371  49.517  48.879  1.00  0.00     0.210 C 
ENDBRANCH  10  15
ENDBRANCH   8   9
BRANCH   8  17
HETATM   17  N   UNL     1      23.377  45.893  49.596  1.00  0.00    -0.061 N 
HETATM   18  H   UNL     1      22.530  46.333  49.987  1.00  0.00     0.280 HD
HETATM   19  C   UNL     1      23.517  44.548  50.245  1.00  0.00     0.236 C 
HETATM   20  C   UNL     1      23.913  43.633  49.107  1.00  0.00     0.029 C 
HETATM   21  C   UNL     1      23.120  44.169  47.931  1.00  0.00     0.029 C 
HETATM   22  C   UNL     1      23.061  45.674  48.136  1.00  0.00     0.236 C 
ENDBRANCH   8  17
ENDBRANCH   7   8
ENDBRANCH   1   7
BRANCH   3  23
HETATM   23  C   UNL     1      27.696  43.959  53.870  1.00  0.00     0.149 C 
HETATM   24  C   UNL     1      28.148  42.644  53.165  1.00  0.00     0.149 C 
HETATM   25  C   UNL     1      29.189  41.984  54.088  1.00  0.00     0.073 C 
HETATM   26  C   UNL     1      29.713  43.153  54.870  1.00  0.00    -0.047 A 
HETATM   27  C   UNL     1      28.871  44.264  54.756  1.00  0.00    -0.026 A 
HETATM   28  C   UNL     1      30.842  43.189  55.671  1.00  0.00     0.008 A 
HETATM   29  C   UNL     1      29.143  45.434  55.453  1.00  0.00     0.010 A 
HETATM   30  C   UNL     1      30.286  45.483  56.254  1.00  0.00     0.001 A 
HETATM   31  C   UNL     1      31.130  44.368  56.360  1.00  0.00     0.001 A 
BRANCH  24  32
HETATM   32  O   UNL     1      28.757  42.923  51.889  1.00  0.00    -0.393 OA
HETATM   33  H   UNL     1      28.046  42.851  51.229  1.00  0.00     0.210 HD
ENDBRANCH  24  32
ENDBRANCH   3  23
TORSDOF 7
ENDMDL
MODEL 2
REMARK VINA RESULT:      -8.6      2.062      8.542
REMARK  7 active torsions:
REMARK  status: ('A' for Active; 'I' for Inactive)
REMARK    1  A    between atoms: O_2  and  C_3 
REMARK    2  A    between atoms: C_4  and  C_5 
REMARK    3  A    between atoms: C_5  and  N_6 
REMARK    4  A    between atoms: C_5  and  C_12 
REMARK    5  A    between atoms: C_12  and  N_13 
REMARK       I    between atoms: N_13  and  C_14 
REMARK       I    between atoms: C_14  and  N_15 
REMARK    6  A    between atoms: N_15  and  C_16 
REMARK    7  A    between atoms: C_17  and  O_18 
ROOT
HETATM    1  N   UNL     1      25.491  46.132  49.528  1.00  0.00    -0.341 N 
HETATM    2  C   UNL     1      24.941  47.321  49.929  1.00  0.00     0.316 C 
HETATM    3  N   UNL     1      23.987  47.764  49.066  1.00  0.00    -0.332 N 
HETATM    4  O   UNL     1      25.202  47.847  51.002  1.00  0.00    -0.247 OA
HETATM    5  H   UNL     1      25.471  45.973  48.529  1.00  0.00     0.164 HD
HETATM    6  H   UNL     1      24.156  47.618  48.080  1.00  0.00     0.165 HD
ENDROOT
BRANCH   1   7
HETATM    7  C   UNL     1      26.587  45.532  50.279  1.00  0.00     0.162 C 
BRANCH   7   8
HETATM    8  C   UNL     1      26.204  44.556  51.445  1.00  0.00     0.241 C 
BRANCH   8   9
HETATM    9  C   UNL     1      27.253  44.468  52.557  1.00  0.00     0.007 A 
HETATM   10  C   UNL     1      27.095  45.268  53.711  1.00  0.00     0.076 A 
HETATM   11  C   UNL     1      28.013  45.193  54.762  1.00  0.00     0.037 A 
HETATM   12  C   UNL     1      29.106  44.333  54.674  1.00  0.00     0.003 A 
HETATM   13  C   UNL     1      29.278  43.538  53.547  1.00  0.00     0.001 A 
HETATM   14  C   UNL     1      28.357  43.599  52.498  1.00  0.00     0.012 A 
BRANCH  10  15
HETATM   15  O   UNL     1      25.962  46.044  53.757  1.00  0.00    -0.355 OA
HETATM   16  C   UNL     1      26.146  47.345  54.323  1.00  0.00     0.210 C 
ENDBRANCH  10  15
ENDBRANCH   8   9
BRANCH   8  17
HETATM   17  N   UNL     1      25.853  43.137  50.968  1.00  0.00    -0.061 N 
HETATM   18  H   UNL     1      26.253  42.556  51.720  1.00  0.00     0.280 HD
HETATM   19  C   UNL     1      26.459  42.671  49.678  1.00  0.00     0.236 C 
HETATM   20  C   UNL     1      25.295  42.656  48.712  1.00  0.00     0.029 C 
HETATM   21  C   UNL     1      24.132  42.195  49.568  1.00  0.00     0.029 C 
HETATM   22  C   UNL     1      24.384  42.787  50.945  1.00  0.00     0.236 C 
ENDBRANCH   8  17
ENDBRANCH   7   8
ENDBRANCH   1   7
BRANCH   3  23
HETATM   23  C   UNL     1      23.261  48.990  49.347  1.00  0.00     0.149 C 
HETATM   24  C   UNL     1      23.909  50.252  48.702  1.00  0.00     0.149 C 
HETATM   25  C   UNL     1      22.751  51.174  48.275  1.00  0.00     0.073 C 
HETATM   26  C   UNL     1      21.615  50.208  48.112  1.00  0.00    -0.047 A 
HETATM   27  C   UNL     1      21.895  48.980  48.722  1.00  0.00    -0.026 A 
HETATM   28  C   UNL     1      20.393  50.443  47.503  1.00  0.00     0.008 A 
HETATM   29  C   UNL     1      20.947  47.965  48.739  1.00  0.00     0.010 A 
HETATM   30  C   UNL     1      19.717  48.189  48.117  1.00  0.00     0.001 A 
HETATM   31  C   UNL     1      19.443  49.420  47.503  1.00  0.00     0.001 A 
BRANCH  24  32
HETATM   32  O   UNL     1      24.685  49.900  47.540  1.00  0.00    -0.393 OA
HETATM   33  H   UNL     1      24.266  49.104  47.167  1.00  0.00     0.210 HD
ENDBRANCH  24  32
ENDBRANCH   3  23
TORSDOF 7
ENDMDL
MODEL 3
REMARK VINA RESULT:      -8.6      3.348      5.380
REMARK  7 active torsions:
REMARK  status: ('A' for Active; 'I' for Inactive)
REMARK    1  A    between atoms: O_2  and  C_3 
REMARK    2  A    between atoms: C_4  and  C_5 
REMARK    3  A    between atoms: C_5  and  N_6 
REMARK    4  A    between atoms: C_5  and  C_12 
REMARK    5  A    between atoms: C_12  and  N_13 
REMARK       I    between atoms: N_13  and  C_14 
REMARK       I    between atoms: C_14  and  N_15 
REMARK    6  A    between atoms: N_15  and  C_16 
REMARK    7  A    between atoms: C_17  and  O_18 
ROOT
HETATM    1  N   UNL     1      27.011  41.720  52.385  1.00  0.00    -0.341 N 
HETATM    2  C   UNL     1      27.933  42.727  52.511  1.00  0.00     0.316 C 
HETATM    3  N   UNL     1      27.600  43.610  53.491  1.00  0.00    -0.332 N 
HETATM    4  O   UNL     1      28.986  42.745  51.889  1.00  0.00    -0.247 OA
HETATM    5  H   UNL     1      26.072  41.970  52.670  1.00  0.00     0.164 HD
HETATM    6  H   UNL     1      26.621  43.837  53.592  1.00  0.00     0.165 HD
ENDROOT
BRANCH   1   7
HETATM    7  C   UNL     1      27.147  40.717  51.337  1.00  0.00     0.162 C 
BRANCH   7   8
HETATM    8  C   UNL     1      27.081  41.221  49.853  1.00  0.00     0.241 C 
BRANCH   8   9
HETATM    9  C   UNL     1      25.793  41.970  49.503  1.00  0.00     0.007 A 
HETATM   10  C   UNL     1      25.842  43.372  49.336  1.00  0.00     0.076 A 
HETATM   11  C   UNL     1      24.695  44.089  48.985  1.00  0.00     0.037 A 
HETATM   12  C   UNL     1      23.483  43.424  48.809  1.00  0.00     0.003 A 
HETATM   13  C   UNL     1      23.415  42.044  48.970  1.00  0.00     0.001 A 
HETATM   14  C   UNL     1      24.561  41.320  49.309  1.00  0.00     0.012 A 
BRANCH  10  15
HETATM   15  O   UNL     1      27.081  43.952  49.461  1.00  0.00    -0.355 OA
HETATM   16  C   UNL     1      27.065  45.325  49.867  1.00  0.00     0.210 C 
ENDBRANCH  10  15
ENDBRANCH   8   9
BRANCH   8  17
HETATM   17  N   UNL     1      27.318  40.110  48.817  1.00  0.00    -0.061 N 
HETATM   18  H   UNL     1      26.736  40.430  48.028  1.00  0.00     0.280 HD
HETATM   19  C   UNL     1      26.863  38.725  49.170  1.00  0.00     0.236 C 
HETATM   20  C   UNL     1      28.150  37.969  49.414  1.00  0.00     0.029 C 
HETATM   21  C   UNL     1      29.100  38.546  48.382  1.00  0.00     0.029 C 
HETATM   22  C   UNL     1      28.716  40.011  48.254  1.00  0.00     0.236 C 
ENDBRANCH   8  17
ENDBRANCH   7   8
ENDBRANCH   1   7
BRANCH   3  23
HETATM   23  C   UNL     1      28.481  44.723  53.799  1.00  0.00     0.149 C 
HETATM   24  C   UNL     1      27.727  45.975  54.338  1.00  0.00     0.149 C 
HETATM   25  C   UNL     1      28.642  46.621  55.396  1.00  0.00     0.073 C 
HETATM   26  C   UNL     1      29.489  45.464  55.837  1.00  0.00    -0.047 A 
HETATM   27  C   UNL     1      29.408  44.396  54.936  1.00  0.00    -0.026 A 
HETATM   28  C   UNL     1      30.317  45.403  56.946  1.00  0.00     0.008 A 
HETATM   29  C   UNL     1      30.165  43.248  55.128  1.00  0.00     0.010 A 
HETATM   30  C   UNL     1      30.993  43.174  56.250  1.00  0.00     0.001 A 
HETATM   31  C   UNL     1      31.067  44.245  57.153  1.00  0.00     0.001 A 
BRANCH  24  32
HETATM   32  O   UNL     1      26.480  45.603  54.957  1.00  0.00    -0.393 OA
HETATM   33  H   UNL     1      25.885  46.364  54.843  1.00  0.00     0.210 HD
ENDBRANCH  24  32
ENDBRANCH   3  23
TORSDOF 7
ENDMDL
MODEL 4
REMARK VINA RESULT:      -8.5      2.198      8.576
REMARK  7 active torsions:
REMARK  status: ('A' for Active; 'I' for Inactive)
REMARK    1  A    between atoms: O_2  and  C_3 
REMARK    2  A    between atoms: C_4  and  C_5 
REMARK    3  A    between atoms: C_5  and  N_6 
REMARK    4  A    between atoms: C_5  and  C_12 
REMARK    5  A    between atoms: C_12  and  N_13 
REMARK       I    between atoms: N_13  and  C_14 
REMARK       I    between atoms: C_14  and  N_15 
REMARK    6  A    between atoms: N_15  and  C_16 
REMARK    7  A    between atoms: C_17  and  O_18 
ROOT
HETATM    1  N   UNL     1      24.946  47.225  51.539  1.00  0.00    -0.341 N 
HETATM    2  C   UNL     1      24.703  47.384  50.199  1.00  0.00     0.316 C 
HETATM    3  N   UNL     1      23.409  47.715  49.947  1.00  0.00    -0.332 N 
HETATM    4  O   UNL     1      25.587  47.349  49.355  1.00  0.00    -0.247 OA
HETATM    5  H   UNL     1      24.140  46.941  52.082  1.00  0.00     0.164 HD
HETATM    6  H   UNL     1      22.701  47.271  50.515  1.00  0.00     0.165 HD
ENDROOT
BRANCH   1   7
HETATM    7  C   UNL     1      26.256  46.791  52.008  1.00  0.00     0.162 C 
BRANCH   7   8
HETATM    8  C   UNL     1      26.304  45.509  52.910  1.00  0.00     0.241 C 
BRANCH   8   9
HETATM    9  C   UNL     1      27.348  45.569  54.028  1.00  0.00     0.007 A 
HETATM   10  C   UNL     1      27.225  46.561  55.026  1.00  0.00     0.076 A 
HETATM   11  C   UNL     1      28.139  46.628  56.081  1.00  0.00     0.037 A 
HETATM   12  C   UNL     1      29.194  45.721  56.149  1.00  0.00     0.003 A 
HETATM   13  C   UNL     1      29.332  44.738  55.176  1.00  0.00     0.001 A 
HETATM   14  C   UNL     1      28.414  44.657  54.125  1.00  0.00     0.012 A 
BRANCH  10  15
HETATM   15  O   UNL     1      26.125  47.379  54.931  1.00  0.00    -0.355 OA
HETATM   16  C   UNL     1      26.202  48.581  55.704  1.00  0.00     0.210 C 
ENDBRANCH  10  15
ENDBRANCH   8   9
BRANCH   8  17
HETATM   17  N   UNL     1      26.487  44.206  52.115  1.00  0.00    -0.061 N 
HETATM   18  H   UNL     1      26.988  43.613  52.794  1.00  0.00     0.280 HD
HETATM   19  C   UNL     1      27.327  44.265  50.873  1.00  0.00     0.236 C 
HETATM   20  C   UNL     1      26.326  44.126  49.748  1.00  0.00     0.029 C 
HETATM   21  C   UNL     1      25.309  43.145  50.299  1.00  0.00     0.029 C 
HETATM   22  C   UNL     1      25.226  43.442  51.787  1.00  0.00     0.236 C 
ENDBRANCH   8  17
ENDBRANCH   7   8
ENDBRANCH   1   7
BRANCH   3  23
HETATM   23  C   UNL     1      22.973  47.967  48.584  1.00  0.00     0.149 C 
HETATM   24  C   UNL     1      22.089  46.825  47.998  1.00  0.00     0.149 C 
HETATM   25  C   UNL     1      21.033  47.499  47.102  1.00  0.00     0.073 C 
HETATM   26  C   UNL     1      20.957  48.882  47.679  1.00  0.00    -0.047 A 
HETATM   27  C   UNL     1      22.052  49.152  48.508  1.00  0.00    -0.026 A 
HETATM   28  C   UNL     1      19.994  49.846  47.429  1.00  0.00     0.008 A 
HETATM   29  C   UNL     1      22.204  50.401  49.095  1.00  0.00     0.010 A 
HETATM   30  C   UNL     1      21.232  51.375  48.857  1.00  0.00     0.001 A 
HETATM   31  C   UNL     1      20.134  51.097  48.030  1.00  0.00     0.001 A 
BRANCH  24  32
HETATM   32  O   UNL     1      21.422  46.096  49.047  1.00  0.00    -0.393 OA
HETATM   33  H   UNL     1      22.019  45.366  49.289  1.00  0.00     0.210 HD
ENDBRANCH  24  32
ENDBRANCH   3  23
TORSDOF 7
ENDMDL
MODEL 5
REMARK VINA RESULT:      -8.4      3.360      5.738
REMARK  7 active torsions:
REMARK  status: ('A' for Active; 'I' for Inactive)
REMARK    1  A    between atoms: O_2  and  C_3 
REMARK    2  A    between atoms: C_4  and  C_5 
REMARK    3  A    between atoms: C_5  and  N_6 
REMARK    4  A    between atoms: C_5  and  C_12 
REMARK    5  A    between atoms: C_12  and  N_13 
REMARK       I    between atoms: N_13  and  C_14 
REMARK       I    between atoms: C_14  and  N_15 
REMARK    6  A    between atoms: N_15  and  C_16 
REMARK    7  A    between atoms: C_17  and  O_18 
ROOT
HETATM    1  N   UNL     1      27.451  41.464  52.669  1.00  0.00    -0.341 N 
HETATM    2  C   UNL     1      28.199  42.611  52.725  1.00  0.00     0.316 C 
HETATM    3  N   UNL     1      28.236  43.140  53.978  1.00  0.00    -0.332 N 
HETATM    4  O   UNL     1      28.850  43.028  51.777  1.00  0.00    -0.247 OA
HETATM    5  H   UNL     1      26.718  41.404  53.363  1.00  0.00     0.164 HD
HETATM    6  H   UNL     1      27.387  43.090  54.523  1.00  0.00     0.165 HD
ENDROOT
BRANCH   1   7
HETATM    7  C   UNL     1      27.225  40.789  51.397  1.00  0.00     0.162 C 
BRANCH   7   8
HETATM    8  C   UNL     1      26.164  41.422  50.431  1.00  0.00     0.241 C 
BRANCH   8   9
HETATM    9  C   UNL     1      26.415  41.133  48.949  1.00  0.00     0.007 A 
HETATM   10  C   UNL     1      25.310  40.893  48.102  1.00  0.00     0.076 A 
HETATM   11  C   UNL     1      25.495  40.657  46.738  1.00  0.00     0.037 A 
HETATM   12  C   UNL     1      26.781  40.643  46.200  1.00  0.00     0.003 A 
HETATM   13  C   UNL     1      27.881  40.877  47.018  1.00  0.00     0.001 A 
HETATM   14  C   UNL     1      27.702  41.125  48.381  1.00  0.00     0.012 A 
BRANCH  10  15
HETATM   15  O   UNL     1      24.070  40.986  48.687  1.00  0.00    -0.355 OA
HETATM   16  C   UNL     1      23.026  41.432  47.815  1.00  0.00     0.210 C 
ENDBRANCH  10  15
ENDBRANCH   8   9
BRANCH   8  17
HETATM   17  N   UNL     1      25.981  42.936  50.627  1.00  0.00    -0.061 N 
HETATM   18  H   UNL     1      26.768  43.165  51.253  1.00  0.00     0.280 HD
HETATM   19  C   UNL     1      24.726  43.401  51.304  1.00  0.00     0.236 C 
HETATM   20  C   UNL     1      23.924  44.037  50.190  1.00  0.00     0.029 C 
HETATM   21  C   UNL     1      24.980  44.706  49.333  1.00  0.00     0.029 C 
HETATM   22  C   UNL     1      26.196  43.796  49.405  1.00  0.00     0.236 C 
ENDBRANCH   8  17
ENDBRANCH   7   8
ENDBRANCH   1   7
BRANCH   3  23
HETATM   23  C   UNL     1      29.018  44.336  54.241  1.00  0.00     0.149 C 
HETATM   24  C   UNL     1      28.145  45.573  54.612  1.00  0.00     0.149 C 
HETATM   25  C   UNL     1      28.936  46.372  55.666  1.00  0.00     0.073 C 
HETATM   26  C   UNL     1      29.823  45.321  56.266  1.00  0.00    -0.047 A 
HETATM   27  C   UNL     1      29.878  44.176  55.463  1.00  0.00    -0.026 A 
HETATM   28  C   UNL     1      30.569  45.416  57.429  1.00  0.00     0.008 A 
HETATM   29  C   UNL     1      30.692  43.107  55.810  1.00  0.00     0.010 A 
HETATM   30  C   UNL     1      31.440  43.190  56.986  1.00  0.00     0.001 A 
HETATM   31  C   UNL     1      31.377  44.337  57.791  1.00  0.00     0.001 A 
BRANCH  24  32
HETATM   32  O   UNL     1      26.883  45.166  55.178  1.00  0.00    -0.393 OA
HETATM   33  H   UNL     1      26.210  45.745  54.779  1.00  0.00     0.210 HD
ENDBRANCH  24  32
ENDBRANCH   3  23
TORSDOF 7
ENDMDL
MODEL 6
REMARK VINA RESULT:      -8.4      3.040      9.218
REMARK  7 active torsions:
REMARK  status: ('A' for Active; 'I' for Inactive)
REMARK    1  A    between atoms: O_2  and  C_3 
REMARK    2  A    between atoms: C_4  and  C_5 
REMARK    3  A    between atoms: C_5  and  N_6 
REMARK    4  A    between atoms: C_5  and  C_12 
REMARK    5  A    between atoms: C_12  and  N_13 
REMARK       I    between atoms: N_13  and  C_14 
REMARK       I    between atoms: C_14  and  N_15 
REMARK    6  A    between atoms: N_15  and  C_16 
REMARK    7  A    between atoms: C_17  and  O_18 
ROOT
HETATM    1  N   UNL     1      23.507  47.900  49.921  1.00  0.00    -0.341 N 
HETATM    2  C   UNL     1      22.505  47.910  48.986  1.00  0.00     0.316 C 
HETATM    3  N   UNL     1      21.340  48.403  49.487  1.00  0.00    -0.332 N 
HETATM    4  O   UNL     1      22.688  47.620  47.812  1.00  0.00    -0.247 OA
HETATM    5  H   UNL     1      23.190  47.824  50.879  1.00  0.00     0.164 HD
HETATM    6  H   UNL     1      21.109  48.158  50.439  1.00  0.00     0.165 HD
ENDROOT
BRANCH   1   7
HETATM    7  C   UNL     1      24.812  47.334  49.602  1.00  0.00     0.162 C 
BRANCH   7   8
HETATM    8  C   UNL     1      25.232  46.030  50.366  1.00  0.00     0.241 C 
BRANCH   8   9
HETATM    9  C   UNL     1      24.656  44.743  49.770  1.00  0.00     0.007 A 
HETATM   10  C   UNL     1      25.543  43.732  49.341  1.00  0.00     0.076 A 
HETATM   11  C   UNL     1      25.056  42.529  48.822  1.00  0.00     0.037 A 
HETATM   12  C   UNL     1      23.683  42.322  48.709  1.00  0.00     0.003 A 
HETATM   13  C   UNL     1      22.794  43.307  49.127  1.00  0.00     0.001 A 
HETATM   14  C   UNL     1      23.274  44.506  49.658  1.00  0.00     0.012 A 
BRANCH  10  15
HETATM   15  O   UNL     1      26.880  43.976  49.541  1.00  0.00    -0.355 OA
HETATM   16  C   UNL     1      27.513  43.119  50.496  1.00  0.00     0.210 C 
ENDBRANCH  10  15
ENDBRANCH   8   9
BRANCH   8  17
HETATM   17  N   UNL     1      24.923  46.074  51.871  1.00  0.00    -0.061 N 
HETATM   18  H   UNL     1      23.921  46.318  51.874  1.00  0.00     0.280 HD
HETATM   19  C   UNL     1      25.633  47.107  52.695  1.00  0.00     0.236 C 
HETATM   20  C   UNL     1      26.621  46.306  53.513  1.00  0.00     0.029 C 
HETATM   21  C   UNL     1      25.866  45.030  53.828  1.00  0.00     0.029 C 
HETATM   22  C   UNL     1      25.005  44.757  52.606  1.00  0.00     0.236 C 
ENDBRANCH   8  17
ENDBRANCH   7   8
ENDBRANCH   1   7
BRANCH   3  23
HETATM   23  C   UNL     1      20.174  48.531  48.629  1.00  0.00     0.149 C 
HETATM   24  C   UNL     1      18.942  47.725  49.139  1.00  0.00     0.149 C 
HETATM   25  C   UNL     1      17.695  48.563  48.801  1.00  0.00     0.073 C 
HETATM   26  C   UNL     1      18.254  49.953  48.721  1.00  0.00    -0.047 A 
HETATM   27  C   UNL     1      19.650  49.939  48.616  1.00  0.00    -0.026 A 
HETATM   28  C   UNL     1      17.546  51.143  48.690  1.00  0.00     0.008 A 
HETATM   29  C   UNL     1      20.361  51.122  48.469  1.00  0.00     0.010 A 
HETATM   30  C   UNL     1      19.656  52.327  48.448  1.00  0.00     0.001 A 
HETATM   31  C   UNL     1      18.258  52.337  48.560  1.00  0.00     0.001 A 
BRANCH  24  32
HETATM   32  O   UNL     1      19.006  47.528  50.565  1.00  0.00    -0.393 OA
HETATM   33  H   UNL     1      18.209  47.023  50.804  1.00  0.00     0.210 HD
ENDBRANCH  24  32
ENDBRANCH   3  23
TORSDOF 7
ENDMDL
MODEL 7
REMARK VINA RESULT:      -8.4      3.997      7.643
REMARK  7 active torsions:
REMARK  status: ('A' for Active; 'I' for Inactive)
REMARK    1  A    between atoms: O_2  and  C_3 
REMARK    2  A    between atoms: C_4  and  C_5 
REMARK    3  A    between atoms: C_5  and  N_6 
REMARK    4  A    between atoms: C_5  and  C_12 
REMARK    5  A    between atoms: C_12  and  N_13 
REMARK       I    between atoms: N_13  and  C_14 
REMARK       I    between atoms: C_14  and  N_15 
REMARK    6  A    between atoms: N_15  and  C_16 
REMARK    7  A    between atoms: C_17  and  O_18 
ROOT
HETATM    1  N   UNL     1      27.201  41.556  52.441  1.00  0.00    -0.341 N 
HETATM    2  C   UNL     1      28.017  40.666  51.794  1.00  0.00     0.316 C 
HETATM    3  N   UNL     1      27.437  40.156  50.674  1.00  0.00    -0.332 N 
HETATM    4  O   UNL     1      29.174  40.458  52.130  1.00  0.00    -0.247 OA
HETATM    5  H   UNL     1      26.211  41.401  52.301  1.00  0.00     0.164 HD
HETATM    6  H   UNL     1      26.446  39.959  50.718  1.00  0.00     0.165 HD
ENDROOT
BRANCH   1   7
HETATM    7  C   UNL     1      27.611  42.152  53.706  1.00  0.00     0.162 C 
BRANCH   7   8
HETATM    8  C   UNL     1      27.722  43.716  53.757  1.00  0.00     0.241 C 
BRANCH   8   9
HETATM    9  C   UNL     1      27.168  44.423  52.517  1.00  0.00     0.007 A 
HETATM   10  C   UNL     1      26.153  45.392  52.680  1.00  0.00     0.076 A 
HETATM   11  C   UNL     1      25.644  46.083  51.577  1.00  0.00     0.037 A 
HETATM   12  C   UNL     1      26.126  45.810  50.298  1.00  0.00     0.003 A 
HETATM   13  C   UNL     1      27.125  44.859  50.119  1.00  0.00     0.001 A 
HETATM   14  C   UNL     1      27.647  44.173  51.219  1.00  0.00     0.012 A 
BRANCH  10  15
HETATM   15  O   UNL     1      25.772  45.657  53.973  1.00  0.00    -0.355 OA
HETATM   16  C   UNL     1      26.058  46.984  54.425  1.00  0.00     0.210 C 
ENDBRANCH  10  15
ENDBRANCH   8   9
BRANCH   8  17
HETATM   17  N   UNL     1      29.147  44.222  54.033  1.00  0.00    -0.061 N 
HETATM   18  H   UNL     1      29.329  44.806  53.204  1.00  0.00     0.280 HD
HETATM   19  C   UNL     1      30.243  43.200  54.105  1.00  0.00     0.236 C 
HETATM   20  C   UNL     1      30.601  43.151  55.573  1.00  0.00     0.029 C 
HETATM   21  C   UNL     1      30.461  44.593  56.020  1.00  0.00     0.029 C 
HETATM   22  C   UNL     1      29.306  45.156  55.209  1.00  0.00     0.236 C 
ENDBRANCH   8  17
ENDBRANCH   7   8
ENDBRANCH   1   7
BRANCH   3  23
HETATM   23  C   UNL     1      28.169  39.225  49.832  1.00  0.00     0.149 C 
HETATM   24  C   UNL     1      27.577  37.784  49.847  1.00  0.00     0.149 C 
HETATM   25  C   UNL     1      27.752  37.220  48.424  1.00  0.00     0.073 C 
HETATM   26  C   UNL     1      27.823  38.465  47.591  1.00  0.00    -0.047 A 
HETATM   27  C   UNL     1      28.066  39.596  48.379  1.00  0.00    -0.026 A 
HETATM   28  C   UNL     1      27.730  38.561  46.212  1.00  0.00     0.008 A 
HETATM   29  C   UNL     1      28.228  40.845  47.795  1.00  0.00     0.010 A 
HETATM   30  C   UNL     1      28.124  40.952  46.407  1.00  0.00     0.001 A 
HETATM   31  C   UNL     1      27.876  39.817  45.621  1.00  0.00     0.001 A 
BRANCH  24  32
HETATM   32  O   UNL     1      26.174  37.803  50.178  1.00  0.00    -0.393 OA
HETATM   33  H   UNL     1      25.714  38.117  49.380  1.00  0.00     0.210 HD
ENDBRANCH  24  32
ENDBRANCH   3  23
TORSDOF 7
ENDMDL
MODEL 8
REMARK VINA RESULT:      -8.4      3.212      8.158
REMARK  7 active torsions:
REMARK  status: ('A' for Active; 'I' for Inactive)
REMARK    1  A    between atoms: O_2  and  C_3 
REMARK    2  A    between atoms: C_4  and  C_5 
REMARK    3  A    between atoms: C_5  and  N_6 
REMARK    4  A    between atoms: C_5  and  C_12 
REMARK    5  A    between atoms: C_12  and  N_13 
REMARK       I    between atoms: N_13  and  C_14 
REMARK       I    between atoms: C_14  and  N_15 
REMARK    6  A    between atoms: N_15  and  C_16 
REMARK    7  A    between atoms: C_17  and  O_18 
ROOT
HETATM    1  N   UNL     1      22.477  44.233  49.930  1.00  0.00    -0.341 N 
HETATM    2  C   UNL     1      22.256  45.024  48.832  1.00  0.00     0.316 C 
HETATM    3  N   UNL     1      21.306  45.969  49.063  1.00  0.00    -0.332 N 
HETATM    4  O   UNL     1      22.930  44.952  47.814  1.00  0.00    -0.247 OA
HETATM    5  H   UNL     1      21.683  44.142  50.551  1.00  0.00     0.164 HD
HETATM    6  H   UNL     1      20.514  45.697  49.629  1.00  0.00     0.165 HD
ENDROOT
BRANCH   1   7
HETATM    7  C   UNL     1      23.403  43.109  49.859  1.00  0.00     0.162 C 
BRANCH   7   8
HETATM    8  C   UNL     1      24.778  43.269  50.596  1.00  0.00     0.241 C 
BRANCH   8   9
HETATM    9  C   UNL     1      25.246  44.720  50.740  1.00  0.00     0.007 A 
HETATM   10  C   UNL     1      25.125  45.355  51.996  1.00  0.00     0.076 A 
HETATM   11  C   UNL     1      25.570  46.667  52.176  1.00  0.00     0.037 A 
HETATM   12  C   UNL     1      26.128  47.369  51.109  1.00  0.00     0.003 A 
HETATM   13  C   UNL     1      26.256  46.759  49.866  1.00  0.00     0.001 A 
HETATM   14  C   UNL     1      25.824  45.443  49.682  1.00  0.00     0.012 A 
BRANCH  10  15
HETATM   15  O   UNL     1      24.625  44.584  53.017  1.00  0.00    -0.355 OA
HETATM   16  C   UNL     1      25.376  44.639  54.234  1.00  0.00     0.210 C 
ENDBRANCH  10  15
ENDBRANCH   8   9
BRANCH   8  17
HETATM   17  N   UNL     1      25.908  42.432  49.976  1.00  0.00    -0.061 N 
HETATM   18  H   UNL     1      26.191  43.018  49.176  1.00  0.00     0.280 HD
HETATM   19  C   UNL     1      25.550  41.081  49.430  1.00  0.00     0.236 C 
HETATM   20  C   UNL     1      26.164  40.114  50.417  1.00  0.00     0.029 C 
HETATM   21  C   UNL     1      27.461  40.790  50.815  1.00  0.00     0.029 C 
HETATM   22  C   UNL     1      27.158  42.280  50.809  1.00  0.00     0.236 C 
ENDBRANCH   8  17
ENDBRANCH   7   8
ENDBRANCH   1   7
BRANCH   3  23
HETATM   23  C   UNL     1      20.966  46.929  48.027  1.00  0.00     0.149 C 
HETATM   24  C   UNL     1      19.483  47.403  48.088  1.00  0.00     0.149 C 
HETATM   25  C   UNL     1      19.476  48.889  47.680  1.00  0.00     0.073 C 
HETATM   26  C   UNL     1      20.875  49.319  48.012  1.00  0.00    -0.047 A 
HETATM   27  C   UNL     1      21.719  48.219  48.200  1.00  0.00    -0.026 A 
HETATM   28  C   UNL     1      21.360  50.614  48.084  1.00  0.00     0.008 A 
HETATM   29  C   UNL     1      23.071  48.399  48.457  1.00  0.00     0.010 A 
HETATM   30  C   UNL     1      23.567  49.702  48.543  1.00  0.00     0.001 A 
HETATM   31  C   UNL     1      22.716  50.801  48.359  1.00  0.00     0.001 A 
BRANCH  24  32
HETATM   32  O   UNL     1      18.953  47.278  49.422  1.00  0.00    -0.393 OA
HETATM   33  H   UNL     1      18.611  46.369  49.492  1.00  0.00     0.210 HD
ENDBRANCH  24  32
ENDBRANCH   3  23
TORSDOF 7
ENDMDL
MODEL 9
REMARK VINA RESULT:      -8.1      3.380      5.380
REMARK  7 active torsions:
REMARK  status: ('A' for Active; 'I' for Inactive)
REMARK    1  A    between atoms: O_2  and  C_3 
REMARK    2  A    between atoms: C_4  and  C_5 
REMARK    3  A    between atoms: C_5  and  N_6 
REMARK    4  A    between atoms: C_5  and  C_12 
REMARK    5  A    between atoms: C_12  and  N_13 
REMARK       I    between atoms: N_13  and  C_14 
REMARK       I    between atoms: C_14  and  N_15 
REMARK    6  A    between atoms: N_15  and  C_16 
REMARK    7  A    between atoms: C_17  and  O_18 
ROOT
HETATM    1  N   UNL     1      25.712  44.394  49.219  1.00  0.00    -0.341 N 
HETATM    2  C   UNL     1      25.531  43.044  49.067  1.00  0.00     0.316 C 
HETATM    3  N   UNL     1      26.613  42.440  48.504  1.00  0.00    -0.332 N 
HETATM    4  O   UNL     1      24.555  42.449  49.504  1.00  0.00    -0.247 OA
HETATM    5  H   UNL     1      26.348  44.812  48.553  1.00  0.00     0.164 HD
HETATM    6  H   UNL     1      27.094  42.948  47.775  1.00  0.00     0.165 HD
ENDROOT
BRANCH   1   7
HETATM    7  C   UNL     1      24.635  45.232  49.732  1.00  0.00     0.162 C 
BRANCH   7   8
HETATM    8  C   UNL     1      25.045  46.458  50.620  1.00  0.00     0.241 C 
BRANCH   8   9
HETATM    9  C   UNL     1      25.641  47.628  49.833  1.00  0.00     0.007 A 
HETATM   10  C   UNL     1      24.769  48.573  49.249  1.00  0.00     0.076 A 
HETATM   11  C   UNL     1      25.275  49.673  48.550  1.00  0.00     0.037 A 
HETATM   12  C   UNL     1      26.651  49.841  48.413  1.00  0.00     0.003 A 
HETATM   13  C   UNL     1      27.525  48.921  48.982  1.00  0.00     0.001 A 
HETATM   14  C   UNL     1      27.027  47.825  49.692  1.00  0.00     0.012 A 
BRANCH  10  15
HETATM   15  O   UNL     1      23.429  48.381  49.478  1.00  0.00    -0.355 OA
HETATM   16  C   UNL     1      22.587  48.591  48.340  1.00  0.00     0.210 C 
ENDBRANCH  10  15
ENDBRANCH   8   9
BRANCH   8  17
HETATM   17  N   UNL     1      25.991  46.090  51.775  1.00  0.00    -0.061 N 
HETATM   18  H   UNL     1      26.915  46.164  51.323  1.00  0.00     0.280 HD
HETATM   19  C   UNL     1      25.885  44.706  52.343  1.00  0.00     0.236 C 
HETATM   20  C   UNL     1      25.251  44.917  53.701  1.00  0.00     0.029 C 
HETATM   21  C   UNL     1      25.864  46.218  54.179  1.00  0.00     0.029 C 
HETATM   22  C   UNL     1      26.043  47.064  52.928  1.00  0.00     0.236 C 
ENDBRANCH   8  17
ENDBRANCH   7   8
ENDBRANCH   1   7
BRANCH   3  23
HETATM   23  C   UNL     1      26.623  41.001  48.303  1.00  0.00     0.149 C 
HETATM   24  C   UNL     1      27.136  40.579  46.894  1.00  0.00     0.149 C 
HETATM   25  C   UNL     1      27.927  39.272  47.085  1.00  0.00     0.073 C 
HETATM   26  C   UNL     1      28.343  39.356  48.524  1.00  0.00    -0.047 A 
HETATM   27  C   UNL     1      27.605  40.323  49.216  1.00  0.00    -0.026 A 
HETATM   28  C   UNL     1      29.284  38.574  49.174  1.00  0.00     0.008 A 
HETATM   29  C   UNL     1      27.793  40.518  50.577  1.00  0.00     0.010 A 
HETATM   30  C   UNL     1      28.748  39.742  51.238  1.00  0.00     0.001 A 
HETATM   31  C   UNL     1      29.489  38.777  50.539  1.00  0.00     0.001 A 
BRANCH  24  32
HETATM   32  O   UNL     1      28.009  41.582  46.338  1.00  0.00    -0.393 OA
HETATM   33  H   UNL     1      28.473  41.155  45.597  1.00  0.00     0.210 HD
ENDBRANCH  24  32
ENDBRANCH   3  23
TORSDOF 7
ENDMDL
MODEL 10
REMARK VINA RESULT:      -8.0      2.290      8.483
REMARK  7 active torsions:
REMARK  status: ('A' for Active; 'I' for Inactive)
REMARK    1  A    between atoms: O_2  and  C_3 
REMARK    2  A    between atoms: C_4  and  C_5 
REMARK    3  A    between atoms: C_5  and  N_6 
REMARK    4  A    between atoms: C_5  and  C_12 
REMARK    5  A    between atoms: C_12  and  N_13 
REMARK       I    between atoms: N_13  and  C_14 
REMARK       I    between atoms: C_14  and  N_15 
REMARK    6  A    between atoms: N_15  and  C_16 
REMARK    7  A    between atoms: C_17  and  O_18 
ROOT
HETATM    1  N   UNL     1      25.143  44.967  51.006  1.00  0.00    -0.341 N 
HETATM    2  C   UNL     1      24.636  45.364  49.796  1.00  0.00     0.316 C 
HETATM    3  N   UNL     1      23.286  45.527  49.833  1.00  0.00    -0.332 N 
HETATM    4  O   UNL     1      25.343  45.650  48.840  1.00  0.00    -0.247 OA
HETATM    5  H   UNL     1      24.495  44.449  51.586  1.00  0.00     0.164 HD
HETATM    6  H   UNL     1      22.758  44.865  50.384  1.00  0.00     0.165 HD
ENDROOT
BRANCH   1   7
HETATM    7  C   UNL     1      26.561  44.662  51.151  1.00  0.00     0.162 C 
BRANCH   7   8
HETATM    8  C   UNL     1      26.933  43.285  51.802  1.00  0.00     0.241 C 
BRANCH   8   9
HETATM    9  C   UNL     1      28.104  43.355  52.787  1.00  0.00     0.007 A 
HETATM   10  C   UNL     1      27.915  44.005  54.027  1.00  0.00     0.076 A 
HETATM   11  C   UNL     1      28.948  44.061  54.967  1.00  0.00     0.037 A 
HETATM   12  C   UNL     1      30.185  43.486  54.680  1.00  0.00     0.003 A 
HETATM   13  C   UNL     1      30.388  42.842  53.464  1.00  0.00     0.001 A 
HETATM   14  C   UNL     1      29.356  42.771  52.526  1.00  0.00     0.012 A 
BRANCH  10  15
HETATM   15  O   UNL     1      26.654  44.492  54.268  1.00  0.00    -0.355 OA
HETATM   16  C   UNL     1      26.600  45.882  54.607  1.00  0.00     0.210 C 
ENDBRANCH  10  15
ENDBRANCH   8   9
BRANCH   8  17
HETATM   17  N   UNL     1      27.201  42.173  50.776  1.00  0.00    -0.061 N 
HETATM   18  H   UNL     1      28.221  42.048  50.861  1.00  0.00     0.280 HD
HETATM   19  C   UNL     1      26.910  42.474  49.336  1.00  0.00     0.236 C 
HETATM   20  C   UNL     1      25.675  41.655  49.033  1.00  0.00     0.029 C 
HETATM   21  C   UNL     1      25.891  40.383  49.831  1.00  0.00     0.029 C 
HETATM   22  C   UNL     1      26.616  40.818  51.095  1.00  0.00     0.236 C 
ENDBRANCH   8  17
ENDBRANCH   7   8
ENDBRANCH   1   7
BRANCH   3  23
HETATM   23  C   UNL     1      22.575  45.987  48.652  1.00  0.00     0.149 C 
HETATM   24  C   UNL     1      21.185  45.307  48.467  1.00  0.00     0.149 C 
HETATM   25  C   UNL     1      20.244  46.377  47.882  1.00  0.00     0.073 C 
HETATM   26  C   UNL     1      20.890  47.654  48.333  1.00  0.00    -0.047 A 
HETATM   27  C   UNL     1      22.206  47.440  48.760  1.00  0.00    -0.026 A 
HETATM   28  C   UNL     1      20.345  48.927  48.307  1.00  0.00     0.008 A 
HETATM   29  C   UNL     1      23.002  48.504  49.161  1.00  0.00     0.010 A 
HETATM   30  C   UNL     1      22.456  49.789  49.149  1.00  0.00     0.001 A 
HETATM   31  C   UNL     1      21.136  49.998  48.725  1.00  0.00     0.001 A 
BRANCH  24  32
HETATM   32  O   UNL     1      20.657  44.853  49.728  1.00  0.00    -0.393 OA
HETATM   33  H   UNL     1      21.183  45.297  50.416  1.00  0.00     0.210 HD
ENDBRANCH  24  32
ENDBRANCH   3  23
TORSDOF 7
ENDMDL
