MODEL 1
REMARK VINA RESULT:      -8.8      0.000      0.000
REMARK  6 active torsions:
REMARK  status: ('A' for Active; 'I' for Inactive)
REMARK    1  A    between atoms: C_5  and  C_6 
REMARK    2  A    between atoms: C_12  and  C_13 
REMARK       I    between atoms: C_13  and  N_14 
REMARK    3  A    between atoms: N_14  and  C_15 
REMARK    4  A    between atoms: C_18  and  C_19 
REMARK    5  A    between atoms: C_19  and  O_20 
REMARK    6  A    between atoms: C_25  and  C_26 
ROOT
HETATM    1  C   UNL     1      23.857  44.072  50.803  1.00  0.00     0.118 C 
HETATM    2  N   UNL     1      23.342  45.347  50.274  1.00  0.00    -0.365 N 
HETATM    3  C   UNL     1      24.201  46.373  49.999  1.00  0.00     0.138 A 
HETATM    4  N   UNL     1      25.528  46.309  50.363  1.00  0.00    -0.240 N 
HETATM    5  N   UNL     1      26.212  47.438  50.122  1.00  0.00    -0.181 NA
HETATM    6  C   UNL     1      25.313  48.217  49.518  1.00  0.00     0.160 A 
HETATM    7  C   UNL     1      24.032  47.618  49.416  1.00  0.00     0.096 A 
HETATM    8  C   UNL     1      26.125  45.243  51.145  1.00  0.00     0.221 C 
HETATM    9  C   UNL     1      25.032  44.348  51.755  1.00  0.00     0.066 C 
HETATM   10  H   UNL     1      22.444  45.591  50.697  1.00  0.00     0.161 HD
ENDROOT
BRANCH   7  11
HETATM   11  C   UNL     1      22.852  48.252  48.843  1.00  0.00     0.261 C 
HETATM   12  N   UNL     1      22.091  48.963  49.752  1.00  0.00    -0.323 N 
HETATM   13  H   UNL     1      22.369  48.865  50.721  1.00  0.00     0.169 HD
HETATM   14  O   UNL     1      22.621  48.148  47.643  1.00  0.00    -0.267 OA
BRANCH  12  15
HETATM   15  C   UNL     1      21.031  49.851  49.475  1.00  0.00     0.035 A 
HETATM   16  C   UNL     1      21.172  51.023  48.733  1.00  0.00     0.030 A 
HETATM   17  C   UNL     1      20.089  51.892  48.556  1.00  0.00     0.012 A 
HETATM   18  C   UNL     1      18.842  51.611  49.126  1.00  0.00    -0.030 A 
HETATM   19  C   UNL     1      18.700  50.428  49.865  1.00  0.00     0.012 A 
HETATM   20  C   UNL     1      19.779  49.550  50.023  1.00  0.00     0.030 A 
BRANCH  18  21
HETATM   21  C   UNL     1      17.707  52.602  48.981  1.00  0.00     0.147 C 
HETATM   22  C   UNL     1      16.541  52.264  49.899  1.00  0.00     0.044 C 
BRANCH  21  23
HETATM   23  O   UNL     1      17.238  52.643  47.636  1.00  0.00    -0.391 OA
HETATM   24  H   UNL     1      16.449  53.213  47.634  1.00  0.00     0.210 HD
ENDBRANCH  21  23
ENDBRANCH  18  21
ENDBRANCH  12  15
ENDBRANCH   7  11
BRANCH   1  25
HETATM   25  C   UNL     1      24.153  43.045  49.722  1.00  0.00    -0.035 A 
HETATM   26  C   UNL     1      24.833  41.843  49.971  1.00  0.00     0.010 A 
HETATM   27  C   UNL     1      25.028  40.899  48.955  1.00  0.00     0.007 A 
HETATM   28  C   UNL     1      24.561  41.139  47.661  1.00  0.00    -0.062 A 
HETATM   29  C   UNL     1      24.735  40.120  46.575  1.00  0.00     0.048 C 
HETATM   30  C   UNL     1      23.928  42.354  47.389  1.00  0.00     0.007 A 
HETATM   31  C   UNL     1      23.731  43.295  48.403  1.00  0.00     0.010 A 
ENDBRANCH   1  25
BRANCH   8  32
HETATM   32  C   UNL     1      27.168  44.507  50.332  1.00  0.00     0.409 C 
HETATM   33  F   UNL     1      26.792  44.230  49.072  1.00  0.00    -0.169 F 
HETATM   34  F   UNL     1      28.331  45.197  50.263  1.00  0.00    -0.169 F 
HETATM   35  F   UNL     1      27.472  43.325  50.931  1.00  0.00    -0.169 F 
ENDBRANCH   8  32
TORSDOF 6
ENDMDL
MODEL 2
REMARK VINA RESULT:      -8.5      4.018      6.594
REMARK  6 active torsions:
REMARK  status: ('A' for Active; 'I' for Inactive)
REMARK    1  A    between atoms: C_5  and  C_6 
REMARK    2  A    between atoms: C_12  and  C_13 
REMARK       I    between atoms: C_13  and  N_14 
REMARK    3  A    between atoms: N_14  and  C_15 
REMARK    4  A    between atoms: C_18  and  C_19 
REMARK    5  A    between atoms: C_19  and  O_20 
REMARK    6  A    between atoms: C_25  and  C_26 
ROOT
HETATM    1  C   UNL     1      26.260  39.389  48.415  1.00  0.00     0.118 C 
HETATM    2  N   UNL     1      26.127  40.572  49.283  1.00  0.00    -0.365 N 
HETATM    3  C   UNL     1      27.074  40.837  50.232  1.00  0.00     0.138 A 
HETATM    4  N   UNL     1      28.071  39.931  50.517  1.00  0.00    -0.240 N 
HETATM    5  N   UNL     1      28.852  40.291  51.546  1.00  0.00    -0.181 NA
HETATM    6  C   UNL     1      28.388  41.497  51.878  1.00  0.00     0.160 A 
HETATM    7  C   UNL     1      27.270  41.896  51.103  1.00  0.00     0.096 A 
HETATM    8  C   UNL     1      28.171  38.599  49.952  1.00  0.00     0.221 C 
HETATM    9  C   UNL     1      26.869  38.228  49.219  1.00  0.00     0.066 C 
HETATM   10  H   UNL     1      25.151  40.740  49.537  1.00  0.00     0.161 HD
ENDROOT
BRANCH   7  11
HETATM   11  C   UNL     1      26.532  43.142  51.273  1.00  0.00     0.261 C 
HETATM   12  N   UNL     1      26.593  43.992  50.185  1.00  0.00    -0.323 N 
HETATM   13  H   UNL     1      27.232  43.712  49.451  1.00  0.00     0.169 HD
HETATM   14  O   UNL     1      25.908  43.348  52.308  1.00  0.00    -0.267 OA
BRANCH  12  15
HETATM   15  C   UNL     1      25.823  45.151  49.958  1.00  0.00     0.035 A 
HETATM   16  C   UNL     1      24.467  45.133  49.635  1.00  0.00     0.030 A 
HETATM   17  C   UNL     1      23.782  46.322  49.356  1.00  0.00     0.012 A 
HETATM   18  C   UNL     1      24.443  47.555  49.385  1.00  0.00    -0.030 A 
HETATM   19  C   UNL     1      25.805  47.572  49.717  1.00  0.00     0.012 A 
HETATM   20  C   UNL     1      26.483  46.384  50.017  1.00  0.00     0.030 A 
BRANCH  18  21
HETATM   21  C   UNL     1      23.699  48.818  49.007  1.00  0.00     0.147 C 
HETATM   22  C   UNL     1      24.623  49.855  48.384  1.00  0.00     0.044 C 
BRANCH  21  23
HETATM   23  O   UNL     1      23.064  49.392  50.148  1.00  0.00    -0.391 OA
HETATM   24  H   UNL     1      22.918  48.665  50.779  1.00  0.00     0.210 HD
ENDBRANCH  21  23
ENDBRANCH  18  21
ENDBRANCH  12  15
ENDBRANCH   7  11
BRANCH   1  25
HETATM   25  C   UNL     1      26.966  39.680  47.101  1.00  0.00    -0.035 A 
HETATM   26  C   UNL     1      27.574  40.911  46.813  1.00  0.00     0.010 A 
HETATM   27  C   UNL     1      28.269  41.111  45.614  1.00  0.00     0.007 A 
HETATM   28  C   UNL     1      28.360  40.090  44.666  1.00  0.00    -0.062 A 
HETATM   29  C   UNL     1      29.130  40.284  43.393  1.00  0.00     0.048 C 
HETATM   30  C   UNL     1      27.716  38.877  44.918  1.00  0.00     0.007 A 
HETATM   31  C   UNL     1      27.026  38.676  46.116  1.00  0.00     0.010 A 
ENDBRANCH   1  25
BRANCH   8  32
HETATM   32  C   UNL     1      29.427  38.467  49.119  1.00  0.00     0.409 C 
HETATM   33  F   UNL     1      29.320  37.611  48.089  1.00  0.00    -0.169 F 
HETATM   34  F   UNL     1      29.822  39.659  48.613  1.00  0.00    -0.169 F 
HETATM   35  F   UNL     1      30.455  38.035  49.897  1.00  0.00    -0.169 F 
ENDBRANCH   8  32
TORSDOF 6
ENDMDL
MODEL 3
REMARK VINA RESULT:      -8.4     11.972     14.817
REMARK  6 active torsions:
REMARK  status: ('A' for Active; 'I' for Inactive)
REMARK    1  A    between atoms: C_5  and  C_6 
REMARK    2  A    between atoms: C_12  and  C_13 
REMARK       I    between atoms: C_13  and  N_14 
REMARK    3  A    between atoms: N_14  and  C_15 
REMARK    4  A    between atoms: C_18  and  C_19 
REMARK    5  A    between atoms: C_19  and  O_20 
REMARK    6  A    between atoms: C_25  and  C_26 
ROOT
HETATM    1  C   UNL     1      30.010  50.219  38.752  1.00  0.00     0.118 C 
HETATM    2  N   UNL     1      31.223  50.403  39.569  1.00  0.00    -0.365 N 
HETATM    3  C   UNL     1      31.174  51.150  40.711  1.00  0.00     0.138 A 
HETATM    4  N   UNL     1      30.054  51.883  41.036  1.00  0.00    -0.240 N 
HETATM    5  N   UNL     1      30.205  52.649  42.128  1.00  0.00    -0.181 NA
HETATM    6  C   UNL     1      31.430  52.336  42.554  1.00  0.00     0.160 A 
HETATM    7  C   UNL     1      32.096  51.412  41.711  1.00  0.00     0.096 A 
HETATM    8  C   UNL     1      28.885  52.035  40.191  1.00  0.00     0.221 C 
HETATM    9  C   UNL     1      29.175  51.510  38.774  1.00  0.00     0.066 C 
HETATM   10  H   UNL     1      32.055  50.497  38.984  1.00  0.00     0.161 HD
ENDROOT
BRANCH   7  11
HETATM   11  C   UNL     1      33.456  50.927  41.906  1.00  0.00     0.261 C 
HETATM   12  N   UNL     1      34.356  51.899  42.300  1.00  0.00    -0.323 N 
HETATM   13  H   UNL     1      34.001  52.847  42.292  1.00  0.00     0.169 HD
HETATM   14  O   UNL     1      33.712  49.738  41.743  1.00  0.00    -0.267 OA
BRANCH  12  15
HETATM   15  C   UNL     1      35.671  51.709  42.772  1.00  0.00     0.035 A 
HETATM   16  C   UNL     1      36.583  50.822  42.201  1.00  0.00     0.030 A 
HETATM   17  C   UNL     1      37.850  50.636  42.766  1.00  0.00     0.012 A 
HETATM   18  C   UNL     1      38.230  51.328  43.921  1.00  0.00    -0.030 A 
HETATM   19  C   UNL     1      37.315  52.225  44.490  1.00  0.00     0.012 A 
HETATM   20  C   UNL     1      36.056  52.426  43.911  1.00  0.00     0.030 A 
BRANCH  18  21
HETATM   21  C   UNL     1      39.577  51.055  44.554  1.00  0.00     0.147 C 
HETATM   22  C   UNL     1      39.919  49.571  44.540  1.00  0.00     0.044 C 
BRANCH  21  23
HETATM   23  O   UNL     1      39.608  51.522  45.901  1.00  0.00    -0.391 OA
HETATM   24  H   UNL     1      39.592  52.494  45.858  1.00  0.00     0.210 HD
ENDBRANCH  21  23
ENDBRANCH  18  21
ENDBRANCH  12  15
ENDBRANCH   7  11
BRANCH   1  25
HETATM   25  C   UNL     1      29.230  48.962  39.103  1.00  0.00    -0.035 A 
HETATM   26  C   UNL     1      29.592  48.101  40.150  1.00  0.00     0.010 A 
HETATM   27  C   UNL     1      28.806  46.990  40.477  1.00  0.00     0.007 A 
HETATM   28  C   UNL     1      27.646  46.702  39.756  1.00  0.00    -0.062 A 
HETATM   29  C   UNL     1      26.780  45.532  40.119  1.00  0.00     0.048 C 
HETATM   30  C   UNL     1      27.302  47.521  38.679  1.00  0.00     0.007 A 
HETATM   31  C   UNL     1      28.085  48.633  38.355  1.00  0.00     0.010 A 
ENDBRANCH   1  25
BRANCH   8  32
HETATM   32  C   UNL     1      27.667  51.429  40.855  1.00  0.00     0.409 C 
HETATM   33  F   UNL     1      26.787  50.881  40.000  1.00  0.00    -0.169 F 
HETATM   34  F   UNL     1      28.007  50.474  41.752  1.00  0.00    -0.169 F 
HETATM   35  F   UNL     1      27.002  52.383  41.561  1.00  0.00    -0.169 F 
ENDBRANCH   8  32
TORSDOF 6
ENDMDL
MODEL 4
REMARK VINA RESULT:      -8.4      1.932      3.850
REMARK  6 active torsions:
REMARK  status: ('A' for Active; 'I' for Inactive)
REMARK    1  A    between atoms: C_5  and  C_6 
REMARK    2  A    between atoms: C_12  and  C_13 
REMARK       I    between atoms: C_13  and  N_14 
REMARK    3  A    between atoms: N_14  and  C_15 
REMARK    4  A    between atoms: C_18  and  C_19 
REMARK    5  A    between atoms: C_19  and  O_20 
REMARK    6  A    between atoms: C_25  and  C_26 
ROOT
HETATM    1  C   UNL     1      26.683  45.169  50.691  1.00  0.00     0.118 C 
HETATM    2  N   UNL     1      25.644  46.118  50.253  1.00  0.00    -0.365 N 
HETATM    3  C   UNL     1      24.572  45.678  49.530  1.00  0.00     0.138 A 
HETATM    4  N   UNL     1      24.519  44.389  49.048  1.00  0.00    -0.240 N 
HETATM    5  N   UNL     1      23.457  44.146  48.265  1.00  0.00    -0.181 NA
HETATM    6  C   UNL     1      22.773  45.290  48.312  1.00  0.00     0.160 A 
HETATM    7  C   UNL     1      23.418  46.295  49.077  1.00  0.00     0.096 A 
HETATM    8  C   UNL     1      25.592  43.418  49.148  1.00  0.00     0.221 C 
HETATM    9  C   UNL     1      26.893  44.102  49.604  1.00  0.00     0.066 C 
HETATM   10  H   UNL     1      26.049  47.018  49.987  1.00  0.00     0.161 HD
ENDROOT
BRANCH   7  11
HETATM   11  C   UNL     1      22.925  47.653  49.265  1.00  0.00     0.261 C 
HETATM   12  N   UNL     1      21.613  47.842  48.873  1.00  0.00    -0.323 N 
HETATM   13  H   UNL     1      21.187  47.057  48.395  1.00  0.00     0.169 HD
HETATM   14  O   UNL     1      23.654  48.507  49.758  1.00  0.00    -0.267 OA
BRANCH  12  15
HETATM   15  C   UNL     1      20.795  48.962  49.125  1.00  0.00     0.035 A 
HETATM   16  C   UNL     1      19.692  48.945  49.978  1.00  0.00     0.030 A 
HETATM   17  C   UNL     1      18.884  50.079  50.126  1.00  0.00     0.012 A 
HETATM   18  C   UNL     1      19.158  51.253  49.417  1.00  0.00    -0.030 A 
HETATM   19  C   UNL     1      20.272  51.272  48.566  1.00  0.00     0.012 A 
HETATM   20  C   UNL     1      21.091  50.143  48.435  1.00  0.00     0.030 A 
BRANCH  18  21
HETATM   21  C   UNL     1      18.228  52.441  49.538  1.00  0.00     0.147 C 
HETATM   22  C   UNL     1      16.802  52.013  49.854  1.00  0.00     0.044 C 
BRANCH  21  23
HETATM   23  O   UNL     1      18.224  53.206  48.335  1.00  0.00    -0.391 OA
HETATM   24  H   UNL     1      17.533  53.884  48.440  1.00  0.00     0.210 HD
ENDBRANCH  21  23
ENDBRANCH  18  21
ENDBRANCH  12  15
ENDBRANCH   7  11
BRANCH   1  25
HETATM   25  C   UNL     1      26.441  44.608  52.082  1.00  0.00    -0.035 A 
HETATM   26  C   UNL     1      27.365  43.789  52.750  1.00  0.00     0.010 A 
HETATM   27  C   UNL     1      27.126  43.348  54.057  1.00  0.00     0.007 A 
HETATM   28  C   UNL     1      25.951  43.700  54.724  1.00  0.00    -0.062 A 
HETATM   29  C   UNL     1      25.700  43.260  56.136  1.00  0.00     0.048 C 
HETATM   30  C   UNL     1      25.001  44.472  54.052  1.00  0.00     0.007 A 
HETATM   31  C   UNL     1      25.241  44.916  52.748  1.00  0.00     0.010 A 
ENDBRANCH   1  25
BRANCH   8  32
HETATM   32  C   UNL     1      25.165  42.238  49.995  1.00  0.00     0.409 C 
HETATM   33  F   UNL     1      24.256  42.536  50.939  1.00  0.00    -0.169 F 
HETATM   34  F   UNL     1      24.651  41.238  49.241  1.00  0.00    -0.169 F 
HETATM   35  F   UNL     1      26.245  41.709  50.630  1.00  0.00    -0.169 F 
ENDBRANCH   8  32
TORSDOF 6
ENDMDL
MODEL 5
REMARK VINA RESULT:      -8.2      4.165      8.713
REMARK  6 active torsions:
REMARK  status: ('A' for Active; 'I' for Inactive)
REMARK    1  A    between atoms: C_5  and  C_6 
REMARK    2  A    between atoms: C_12  and  C_13 
REMARK       I    between atoms: C_13  and  N_14 
REMARK    3  A    between atoms: N_14  and  C_15 
REMARK    4  A    between atoms: C_18  and  C_19 
REMARK    5  A    between atoms: C_19  and  O_20 
REMARK    6  A    between atoms: C_25  and  C_26 
ROOT
HETATM    1  C   UNL     1      19.069  46.303  48.925  1.00  0.00     0.118 C 
HETATM    2  N   UNL     1      20.304  45.657  49.405  1.00  0.00    -0.365 N 
HETATM    3  C   UNL     1      21.246  45.228  48.513  1.00  0.00     0.138 A 
HETATM    4  N   UNL     1      20.998  45.229  47.158  1.00  0.00    -0.240 N 
HETATM    5  N   UNL     1      21.977  44.675  46.427  1.00  0.00    -0.181 NA
HETATM    6  C   UNL     1      22.909  44.382  47.335  1.00  0.00     0.160 A 
HETATM    7  C   UNL     1      22.514  44.693  48.661  1.00  0.00     0.096 A 
HETATM    8  C   UNL     1      19.726  45.564  46.546  1.00  0.00     0.221 C 
HETATM    9  C   UNL     1      18.620  45.639  47.613  1.00  0.00     0.066 C 
HETATM   10  H   UNL     1      20.122  45.061  50.215  1.00  0.00     0.161 HD
ENDROOT
BRANCH   7  11
HETATM   11  C   UNL     1      23.311  44.441  49.855  1.00  0.00     0.261 C 
HETATM   12  N   UNL     1      24.449  45.220  49.954  1.00  0.00    -0.323 N 
HETATM   13  H   UNL     1      24.661  45.783  49.140  1.00  0.00     0.169 HD
HETATM   14  O   UNL     1      22.937  43.613  50.678  1.00  0.00    -0.267 OA
BRANCH  12  15
HETATM   15  C   UNL     1      25.293  45.367  51.074  1.00  0.00     0.035 A 
HETATM   16  C   UNL     1      26.171  44.381  51.521  1.00  0.00     0.030 A 
HETATM   17  C   UNL     1      26.930  44.571  52.682  1.00  0.00     0.012 A 
HETATM   18  C   UNL     1      26.819  45.750  53.427  1.00  0.00    -0.030 A 
HETATM   19  C   UNL     1      25.941  46.744  52.972  1.00  0.00     0.012 A 
HETATM   20  C   UNL     1      25.199  46.560  51.799  1.00  0.00     0.030 A 
BRANCH  18  21
HETATM   21  C   UNL     1      27.594  45.902  54.718  1.00  0.00     0.147 C 
HETATM   22  C   UNL     1      27.911  47.360  55.020  1.00  0.00     0.044 C 
BRANCH  21  23
HETATM   23  O   UNL     1      28.815  45.167  54.665  1.00  0.00    -0.391 OA
HETATM   24  H   UNL     1      28.599  44.251  54.916  1.00  0.00     0.210 HD
ENDBRANCH  21  23
ENDBRANCH  18  21
ENDBRANCH  12  15
ENDBRANCH   7  11
BRANCH   1  25
HETATM   25  C   UNL     1      19.166  47.818  48.859  1.00  0.00    -0.035 A 
HETATM   26  C   UNL     1      20.340  48.526  49.161  1.00  0.00     0.010 A 
HETATM   27  C   UNL     1      20.400  49.918  49.024  1.00  0.00     0.007 A 
HETATM   28  C   UNL     1      19.283  50.640  48.597  1.00  0.00    -0.062 A 
HETATM   29  C   UNL     1      19.347  52.127  48.417  1.00  0.00     0.048 C 
HETATM   30  C   UNL     1      18.094  49.953  48.344  1.00  0.00     0.007 A 
HETATM   31  C   UNL     1      18.036  48.563  48.476  1.00  0.00     0.010 A 
ENDBRANCH   1  25
BRANCH   8  32
HETATM   32  C   UNL     1      19.861  46.801  45.684  1.00  0.00     0.409 C 
HETATM   33  F   UNL     1      18.728  47.514  45.560  1.00  0.00    -0.169 F 
HETATM   34  F   UNL     1      20.815  47.638  46.153  1.00  0.00    -0.169 F 
HETATM   35  F   UNL     1      20.256  46.451  44.431  1.00  0.00    -0.169 F 
ENDBRANCH   8  32
TORSDOF 6
ENDMDL
MODEL 6
REMARK VINA RESULT:      -8.1      9.944     12.936
REMARK  6 active torsions:
REMARK  status: ('A' for Active; 'I' for Inactive)
REMARK    1  A    between atoms: C_5  and  C_6 
REMARK    2  A    between atoms: C_12  and  C_13 
REMARK       I    between atoms: C_13  and  N_14 
REMARK    3  A    between atoms: N_14  and  C_15 
REMARK    4  A    between atoms: C_18  and  C_19 
REMARK    5  A    between atoms: C_19  and  O_20 
REMARK    6  A    between atoms: C_25  and  C_26 
ROOT
HETATM    1  C   UNL     1      28.495  50.867  41.643  1.00  0.00     0.118 C 
HETATM    2  N   UNL     1      27.722  49.705  41.172  1.00  0.00    -0.365 N 
HETATM    3  C   UNL     1      27.406  49.581  39.848  1.00  0.00     0.138 A 
HETATM    4  N   UNL     1      27.646  50.606  38.960  1.00  0.00    -0.240 N 
HETATM    5  N   UNL     1      27.178  50.373  37.724  1.00  0.00    -0.181 NA
HETATM    6  C   UNL     1      26.694  49.132  37.808  1.00  0.00     0.160 A 
HETATM    7  C   UNL     1      26.795  48.581  39.110  1.00  0.00     0.096 A 
HETATM    8  C   UNL     1      28.137  51.922  39.321  1.00  0.00     0.221 C 
HETATM    9  C   UNL     1      28.083  52.115  40.846  1.00  0.00     0.066 C 
HETATM   10  H   UNL     1      27.008  49.432  41.850  1.00  0.00     0.161 HD
ENDROOT
BRANCH   7  11
HETATM   11  C   UNL     1      26.310  47.264  39.505  1.00  0.00     0.261 C 
HETATM   12  N   UNL     1      27.211  46.526  40.249  1.00  0.00    -0.323 N 
HETATM   13  H   UNL     1      28.137  46.928  40.332  1.00  0.00     0.169 HD
HETATM   14  O   UNL     1      25.179  46.910  39.193  1.00  0.00    -0.267 OA
BRANCH  12  15
HETATM   15  C   UNL     1      26.965  45.328  40.951  1.00  0.00     0.035 A 
HETATM   16  C   UNL     1      26.181  45.248  42.101  1.00  0.00     0.030 A 
HETATM   17  C   UNL     1      26.037  44.035  42.785  1.00  0.00     0.012 A 
HETATM   18  C   UNL     1      26.682  42.877  42.338  1.00  0.00    -0.030 A 
HETATM   19  C   UNL     1      27.464  42.958  41.177  1.00  0.00     0.012 A 
HETATM   20  C   UNL     1      27.590  44.167  40.482  1.00  0.00     0.030 A 
BRANCH  18  21
HETATM   21  C   UNL     1      26.570  41.596  43.136  1.00  0.00     0.147 C 
HETATM   22  C   UNL     1      25.177  40.989  43.038  1.00  0.00     0.044 C 
BRANCH  21  23
HETATM   23  O   UNL     1      26.878  41.825  44.508  1.00  0.00    -0.391 OA
HETATM   24  H   UNL     1      26.105  42.273  44.895  1.00  0.00     0.210 HD
ENDBRANCH  21  23
ENDBRANCH  18  21
ENDBRANCH  12  15
ENDBRANCH   7  11
BRANCH   1  25
HETATM   25  C   UNL     1      29.994  50.618  41.686  1.00  0.00    -0.035 A 
HETATM   26  C   UNL     1      30.584  49.413  41.276  1.00  0.00     0.010 A 
HETATM   27  C   UNL     1      31.975  49.253  41.274  1.00  0.00     0.007 A 
HETATM   28  C   UNL     1      32.811  50.288  41.696  1.00  0.00    -0.062 A 
HETATM   29  C   UNL     1      34.303  50.139  41.667  1.00  0.00     0.048 C 
HETATM   30  C   UNL     1      32.234  51.474  42.156  1.00  0.00     0.007 A 
HETATM   31  C   UNL     1      30.846  51.635  42.155  1.00  0.00     0.010 A 
ENDBRANCH   1  25
BRANCH   8  32
HETATM   32  C   UNL     1      29.494  52.172  38.698  1.00  0.00     0.409 C 
HETATM   33  F   UNL     1      30.284  52.997  39.406  1.00  0.00    -0.169 F 
HETATM   34  F   UNL     1      30.180  51.021  38.508  1.00  0.00    -0.169 F 
HETATM   35  F   UNL     1      29.342  52.722  37.463  1.00  0.00    -0.169 F 
ENDBRANCH   8  32
TORSDOF 6
ENDMDL
MODEL 7
REMARK VINA RESULT:      -8.1      5.723     10.088
REMARK  6 active torsions:
REMARK  status: ('A' for Active; 'I' for Inactive)
REMARK    1  A    between atoms: C_5  and  C_6 
REMARK    2  A    between atoms: C_12  and  C_13 
REMARK       I    between atoms: C_13  and  N_14 
REMARK    3  A    between atoms: N_14  and  C_15 
REMARK    4  A    between atoms: C_18  and  C_19 
REMARK    5  A    between atoms: C_19  and  O_20 
REMARK    6  A    between atoms: C_25  and  C_26 
ROOT
HETATM    1  C   UNL     1      25.758  43.835  53.809  1.00  0.00     0.118 C 
HETATM    2  N   UNL     1      25.729  43.077  52.546  1.00  0.00    -0.365 N 
HETATM    3  C   UNL     1      25.715  43.737  51.349  1.00  0.00     0.138 A 
HETATM    4  N   UNL     1      25.556  45.104  51.291  1.00  0.00    -0.240 N 
HETATM    5  N   UNL     1      25.452  45.585  50.043  1.00  0.00    -0.181 NA
HETATM    6  C   UNL     1      25.627  44.503  49.282  1.00  0.00     0.160 A 
HETATM    7  C   UNL     1      25.788  43.311  50.033  1.00  0.00     0.096 A 
HETATM    8  C   UNL     1      25.283  45.959  52.430  1.00  0.00     0.221 C 
HETATM    9  C   UNL     1      24.914  45.112  53.661  1.00  0.00     0.066 C 
HETATM   10  H   UNL     1      25.146  42.242  52.626  1.00  0.00     0.161 HD
ENDROOT
BRANCH   7  11
HETATM   11  C   UNL     1      25.953  41.978  49.469  1.00  0.00     0.261 C 
HETATM   12  N   UNL     1      26.862  41.909  48.429  1.00  0.00    -0.323 N 
HETATM   13  H   UNL     1      27.215  42.800  48.103  1.00  0.00     0.169 HD
HETATM   14  O   UNL     1      25.329  41.033  49.937  1.00  0.00    -0.267 OA
BRANCH  12  15
HETATM   15  C   UNL     1      27.395  40.749  47.832  1.00  0.00     0.035 A 
HETATM   16  C   UNL     1      27.127  40.355  46.521  1.00  0.00     0.030 A 
HETATM   17  C   UNL     1      27.637  39.153  46.017  1.00  0.00     0.012 A 
HETATM   18  C   UNL     1      28.420  38.313  46.817  1.00  0.00    -0.030 A 
HETATM   19  C   UNL     1      28.694  38.714  48.132  1.00  0.00     0.012 A 
HETATM   20  C   UNL     1      28.200  39.927  48.628  1.00  0.00     0.030 A 
BRANCH  18  21
HETATM   21  C   UNL     1      28.898  36.985  46.272  1.00  0.00     0.147 C 
HETATM   22  C   UNL     1      28.859  36.950  44.751  1.00  0.00     0.044 C 
BRANCH  21  23
HETATM   23  O   UNL     1      28.104  35.914  46.778  1.00  0.00    -0.391 OA
HETATM   24  H   UNL     1      27.908  35.333  46.023  1.00  0.00     0.210 HD
ENDBRANCH  21  23
ENDBRANCH  18  21
ENDBRANCH  12  15
ENDBRANCH   7  11
BRANCH   1  25
HETATM   25  C   UNL     1      27.162  44.071  54.341  1.00  0.00    -0.035 A 
HETATM   26  C   UNL     1      27.468  45.059  55.290  1.00  0.00     0.010 A 
HETATM   27  C   UNL     1      28.765  45.196  55.797  1.00  0.00     0.007 A 
HETATM   28  C   UNL     1      29.794  44.360  55.358  1.00  0.00    -0.062 A 
HETATM   29  C   UNL     1      31.180  44.477  55.920  1.00  0.00     0.048 C 
HETATM   30  C   UNL     1      29.514  43.407  54.376  1.00  0.00     0.007 A 
HETATM   31  C   UNL     1      28.218  43.267  53.872  1.00  0.00     0.010 A 
ENDBRANCH   1  25
BRANCH   8  32
HETATM   32  C   UNL     1      26.422  46.932  52.649  1.00  0.00     0.409 C 
HETATM   33  F   UNL     1      26.362  47.600  53.813  1.00  0.00    -0.169 F 
HETATM   34  F   UNL     1      27.626  46.316  52.598  1.00  0.00    -0.169 F 
HETATM   35  F   UNL     1      26.436  47.859  51.653  1.00  0.00    -0.169 F 
ENDBRANCH   8  32
TORSDOF 6
ENDMDL
MODEL 8
REMARK VINA RESULT:      -7.8      9.670     11.172
REMARK  6 active torsions:
REMARK  status: ('A' for Active; 'I' for Inactive)
REMARK    1  A    between atoms: C_5  and  C_6 
REMARK    2  A    between atoms: C_12  and  C_13 
REMARK       I    between atoms: C_13  and  N_14 
REMARK    3  A    between atoms: N_14  and  C_15 
REMARK    4  A    between atoms: C_18  and  C_19 
REMARK    5  A    between atoms: C_19  and  O_20 
REMARK    6  A    between atoms: C_25  and  C_26 
ROOT
HETATM    1  C   UNL     1      26.975  50.125  38.126  1.00  0.00     0.118 C 
HETATM    2  N   UNL     1      25.521  50.274  38.310  1.00  0.00    -0.365 N 
HETATM    3  C   UNL     1      24.821  49.346  39.029  1.00  0.00     0.138 A 
HETATM    4  N   UNL     1      25.412  48.175  39.447  1.00  0.00    -0.240 N 
HETATM    5  N   UNL     1      24.565  47.322  40.042  1.00  0.00    -0.181 NA
HETATM    6  C   UNL     1      23.417  48.001  40.072  1.00  0.00     0.160 A 
HETATM    7  C   UNL     1      23.503  49.271  39.447  1.00  0.00     0.096 A 
HETATM    8  C   UNL     1      26.755  47.750  39.099  1.00  0.00     0.221 C 
HETATM    9  C   UNL     1      27.323  48.635  37.976  1.00  0.00     0.066 C 
HETATM   10  H   UNL     1      25.075  50.648  37.470  1.00  0.00     0.161 HD
ENDROOT
BRANCH   7  11
HETATM   11  C   UNL     1      22.397  50.208  39.293  1.00  0.00     0.261 C 
HETATM   12  N   UNL     1      21.251  49.853  39.980  1.00  0.00    -0.323 N 
HETATM   13  H   UNL     1      21.270  48.936  40.408  1.00  0.00     0.169 HD
HETATM   14  O   UNL     1      22.542  51.221  38.618  1.00  0.00    -0.267 OA
BRANCH  12  15
HETATM   15  C   UNL     1      20.107  50.645  40.205  1.00  0.00     0.035 A 
HETATM   16  C   UNL     1      19.314  51.174  39.188  1.00  0.00     0.030 A 
HETATM   17  C   UNL     1      18.231  52.009  39.486  1.00  0.00     0.012 A 
HETATM   18  C   UNL     1      17.923  52.341  40.810  1.00  0.00    -0.030 A 
HETATM   19  C   UNL     1      18.717  51.803  41.832  1.00  0.00     0.012 A 
HETATM   20  C   UNL     1      19.787  50.950  41.533  1.00  0.00     0.030 A 
BRANCH  18  21
HETATM   21  C   UNL     1      16.792  53.304  41.102  1.00  0.00     0.147 C 
HETATM   22  C   UNL     1      16.235  53.925  39.828  1.00  0.00     0.044 C 
BRANCH  21  23
HETATM   23  O   UNL     1      17.227  54.347  41.971  1.00  0.00    -0.391 OA
HETATM   24  H   UNL     1      18.196  54.393  41.887  1.00  0.00     0.210 HD
ENDBRANCH  21  23
ENDBRANCH  18  21
ENDBRANCH  12  15
ENDBRANCH   7  11
BRANCH   1  25
HETATM   25  C   UNL     1      27.796  50.858  39.175  1.00  0.00    -0.035 A 
HETATM   26  C   UNL     1      27.244  51.377  40.356  1.00  0.00     0.010 A 
HETATM   27  C   UNL     1      28.050  51.988  41.323  1.00  0.00     0.007 A 
HETATM   28  C   UNL     1      29.428  52.110  41.127  1.00  0.00    -0.062 A 
HETATM   29  C   UNL     1      30.305  52.733  42.172  1.00  0.00     0.048 C 
HETATM   30  C   UNL     1      29.982  51.644  39.933  1.00  0.00     0.007 A 
HETATM   31  C   UNL     1      29.177  51.030  38.969  1.00  0.00     0.010 A 
ENDBRANCH   1  25
BRANCH   8  32
HETATM   32  C   UNL     1      27.622  47.661  40.337  1.00  0.00     0.409 C 
HETATM   33  F   UNL     1      27.653  46.443  40.903  1.00  0.00    -0.169 F 
HETATM   34  F   UNL     1      28.902  48.019  40.080  1.00  0.00    -0.169 F 
HETATM   35  F   UNL     1      27.174  48.533  41.279  1.00  0.00    -0.169 F 
ENDBRANCH   8  32
TORSDOF 6
ENDMDL
MODEL 9
REMARK VINA RESULT:      -7.7      5.180     10.260
REMARK  6 active torsions:
REMARK  status: ('A' for Active; 'I' for Inactive)
REMARK    1  A    between atoms: C_5  and  C_6 
REMARK    2  A    between atoms: C_12  and  C_13 
REMARK       I    between atoms: C_13  and  N_14 
REMARK    3  A    between atoms: N_14  and  C_15 
REMARK    4  A    between atoms: C_18  and  C_19 
REMARK    5  A    between atoms: C_19  and  O_20 
REMARK    6  A    between atoms: C_25  and  C_26 
ROOT
HETATM    1  C   UNL     1      18.173  51.577  47.397  1.00  0.00     0.118 C 
HETATM    2  N   UNL     1      19.239  50.604  47.696  1.00  0.00    -0.365 N 
HETATM    3  C   UNL     1      18.923  49.304  47.972  1.00  0.00     0.138 A 
HETATM    4  N   UNL     1      17.616  48.908  48.146  1.00  0.00    -0.240 N 
HETATM    5  N   UNL     1      17.482  47.627  48.520  1.00  0.00    -0.181 NA
HETATM    6  C   UNL     1      18.736  47.172  48.509  1.00  0.00     0.160 A 
HETATM    7  C   UNL     1      19.689  48.169  48.185  1.00  0.00     0.096 A 
HETATM    8  C   UNL     1      16.473  49.801  48.168  1.00  0.00     0.221 C 
HETATM    9  C   UNL     1      16.937  51.266  48.258  1.00  0.00     0.066 C 
HETATM   10  H   UNL     1      19.988  51.030  48.244  1.00  0.00     0.161 HD
ENDROOT
BRANCH   7  11
HETATM   11  C   UNL     1      21.132  47.969  48.140  1.00  0.00     0.261 C 
HETATM   12  N   UNL     1      21.616  47.102  49.102  1.00  0.00    -0.323 N 
HETATM   13  H   UNL     1      20.940  46.802  49.794  1.00  0.00     0.169 HD
HETATM   14  O   UNL     1      21.803  48.532  47.282  1.00  0.00    -0.267 OA
BRANCH  12  15
HETATM   15  C   UNL     1      22.908  46.543  49.181  1.00  0.00     0.035 A 
HETATM   16  C   UNL     1      23.209  45.226  48.836  1.00  0.00     0.030 A 
HETATM   17  C   UNL     1      24.503  44.720  49.006  1.00  0.00     0.012 A 
HETATM   18  C   UNL     1      25.523  45.520  49.533  1.00  0.00    -0.030 A 
HETATM   19  C   UNL     1      25.221  46.846  49.872  1.00  0.00     0.012 A 
HETATM   20  C   UNL     1      23.931  47.357  49.681  1.00  0.00     0.030 A 
BRANCH  18  21
HETATM   21  C   UNL     1      26.895  44.929  49.775  1.00  0.00     0.147 C 
HETATM   22  C   UNL     1      27.109  44.576  51.241  1.00  0.00     0.044 C 
BRANCH  21  23
HETATM   23  O   UNL     1      27.917  45.834  49.366  1.00  0.00    -0.391 OA
HETATM   24  H   UNL     1      28.506  45.338  48.771  1.00  0.00     0.210 HD
ENDBRANCH  21  23
ENDBRANCH  18  21
ENDBRANCH  12  15
ENDBRANCH   7  11
BRANCH   1  25
HETATM   25  C   UNL     1      17.882  51.717  45.911  1.00  0.00    -0.035 A 
HETATM   26  C   UNL     1      17.051  52.717  45.383  1.00  0.00     0.010 A 
HETATM   27  C   UNL     1      16.863  52.845  44.002  1.00  0.00     0.007 A 
HETATM   28  C   UNL     1      17.489  51.968  43.114  1.00  0.00    -0.062 A 
HETATM   29  C   UNL     1      17.320  52.117  41.631  1.00  0.00     0.048 C 
HETATM   30  C   UNL     1      18.277  50.936  43.629  1.00  0.00     0.007 A 
HETATM   31  C   UNL     1      18.467  50.811  45.008  1.00  0.00     0.010 A 
ENDBRANCH   1  25
BRANCH   8  32
HETATM   32  C   UNL     1      15.541  49.501  47.013  1.00  0.00     0.409 C 
HETATM   33  F   UNL     1      14.560  48.631  47.307  1.00  0.00    -0.169 F 
HETATM   34  F   UNL     1      14.956  50.624  46.535  1.00  0.00    -0.169 F 
HETATM   35  F   UNL     1      16.246  48.978  45.974  1.00  0.00    -0.169 F 
ENDBRANCH   8  32
TORSDOF 6
ENDMDL
MODEL 10
REMARK VINA RESULT:      -7.7      3.753      6.144
REMARK  6 active torsions:
REMARK  status: ('A' for Active; 'I' for Inactive)
REMARK    1  A    between atoms: C_5  and  C_6 
REMARK    2  A    between atoms: C_12  and  C_13 
REMARK       I    between atoms: C_13  and  N_14 
REMARK    3  A    between atoms: N_14  and  C_15 
REMARK    4  A    between atoms: C_18  and  C_19 
REMARK    5  A    between atoms: C_19  and  O_20 
REMARK    6  A    between atoms: C_25  and  C_26 
ROOT
HETATM    1  C   UNL     1      26.068  38.990  47.948  1.00  0.00     0.118 C 
HETATM    2  N   UNL     1      25.544  40.161  48.673  1.00  0.00    -0.365 N 
HETATM    3  C   UNL     1      26.230  40.673  49.738  1.00  0.00     0.138 A 
HETATM    4  N   UNL     1      27.321  40.019  50.264  1.00  0.00    -0.240 N 
HETATM    5  N   UNL     1      27.814  40.591  51.373  1.00  0.00    -0.181 NA
HETATM    6  C   UNL     1      27.063  41.685  51.513  1.00  0.00     0.160 A 
HETATM    7  C   UNL     1      26.047  41.794  50.531  1.00  0.00     0.096 A 
HETATM    8  C   UNL     1      27.789  38.711  49.845  1.00  0.00     0.221 C 
HETATM    9  C   UNL     1      26.744  38.031  48.942  1.00  0.00     0.066 C 
HETATM   10  H   UNL     1      24.525  40.129  48.745  1.00  0.00     0.161 HD
ENDROOT
BRANCH   7  11
HETATM   11  C   UNL     1      25.054  42.859  50.464  1.00  0.00     0.261 C 
HETATM   12  N   UNL     1      25.262  43.766  49.443  1.00  0.00    -0.323 N 
HETATM   13  H   UNL     1      26.133  43.659  48.939  1.00  0.00     0.169 HD
HETATM   14  O   UNL     1      24.122  42.879  51.261  1.00  0.00    -0.267 OA
BRANCH  12  15
HETATM   15  C   UNL     1      24.375  44.763  48.988  1.00  0.00     0.035 A 
HETATM   16  C   UNL     1      24.278  46.035  49.552  1.00  0.00     0.030 A 
HETATM   17  C   UNL     1      23.325  46.951  49.092  1.00  0.00     0.012 A 
HETATM   18  C   UNL     1      22.441  46.611  48.062  1.00  0.00    -0.030 A 
HETATM   19  C   UNL     1      22.544  45.335  47.491  1.00  0.00     0.012 A 
HETATM   20  C   UNL     1      23.513  44.427  47.938  1.00  0.00     0.030 A 
BRANCH  18  21
HETATM   21  C   UNL     1      21.371  47.592  47.632  1.00  0.00     0.147 C 
HETATM   22  C   UNL     1      20.563  48.103  48.817  1.00  0.00     0.044 C 
BRANCH  21  23
HETATM   23  O   UNL     1      20.483  46.993  46.692  1.00  0.00    -0.391 OA
HETATM   24  H   UNL     1      19.630  46.882  47.148  1.00  0.00     0.210 HD
ENDBRANCH  21  23
ENDBRANCH  18  21
ENDBRANCH  12  15
ENDBRANCH   7  11
BRANCH   1  25
HETATM   25  C   UNL     1      26.927  39.357  46.749  1.00  0.00    -0.035 A 
HETATM   26  C   UNL     1      27.404  38.411  45.828  1.00  0.00     0.010 A 
HETATM   27  C   UNL     1      28.139  38.803  44.703  1.00  0.00     0.007 A 
HETATM   28  C   UNL     1      28.429  40.150  44.478  1.00  0.00    -0.062 A 
HETATM   29  C   UNL     1      29.188  40.585  43.259  1.00  0.00     0.048 C 
HETATM   30  C   UNL     1      28.005  41.096  45.414  1.00  0.00     0.007 A 
HETATM   31  C   UNL     1      27.268  40.705  46.535  1.00  0.00     0.010 A 
ENDBRANCH   1  25
BRANCH   8  32
HETATM   32  C   UNL     1      29.176  38.809  49.247  1.00  0.00     0.409 C 
HETATM   33  F   UNL     1      29.425  37.910  48.280  1.00  0.00    -0.169 F 
HETATM   34  F   UNL     1      29.414  40.036  48.729  1.00  0.00    -0.169 F 
HETATM   35  F   UNL     1      30.112  38.626  50.217  1.00  0.00    -0.169 F 
ENDBRANCH   8  32
TORSDOF 6
ENDMDL
