MODEL 1
REMARK VINA RESULT:      -9.3      0.000      0.000
REMARK  7 active torsions:
REMARK  status: ('A' for Active; 'I' for Inactive)
REMARK    1  A    between atoms: C_7  and  C_8 
REMARK    2  A    between atoms: C_8  and  N_9 
REMARK    3  A    between atoms: C_13  and  C_14 
REMARK    4  A    between atoms: C_14  and  C_15 
REMARK    5  A    between atoms: C_15  and  C_16 
REMARK    6  A    between atoms: N_26  and  C_27 
REMARK    7  A    between atoms: C_27  and  C_28 
ROOT
HETATM    1  C   UNL     1      27.659  44.193  53.601  1.00  0.00     0.123 C 
HETATM    2  N   UNL     1      27.561  42.957  54.363  1.00  0.00    -0.324 N 
HETATM    3  C   UNL     1      27.834  41.835  53.616  1.00  0.00     0.326 C 
HETATM    4  O   UNL     1      27.907  40.715  54.086  1.00  0.00    -0.247 OA
HETATM    5  N   UNL     1      27.947  42.210  52.317  1.00  0.00    -0.268 N 
HETATM    6  C   UNL     1      27.767  43.557  52.198  1.00  0.00     0.257 C 
HETATM    7  O   UNL     1      27.703  44.180  51.147  1.00  0.00    -0.270 OA
HETATM    8  H   UNL     1      27.523  42.886  55.375  1.00  0.00     0.165 HD
ENDROOT
BRANCH   1   9
HETATM    9  C   UNL     1      26.381  45.067  53.827  1.00  0.00     0.027 C 
HETATM   10  C   UNL     1      25.073  44.471  53.265  1.00  0.00     0.035 C 
HETATM   11  C   UNL     1      24.876  44.686  51.773  1.00  0.00     0.235 C 
HETATM   12  N   UNL     1      24.921  46.152  51.440  1.00  0.00    -0.067 N 
HETATM   13  H   UNL     1      24.084  46.578  51.856  1.00  0.00     0.280 HD
HETATM   14  C   UNL     1      26.125  46.885  51.962  1.00  0.00     0.235 C 
HETATM   15  C   UNL     1      26.444  46.548  53.411  1.00  0.00     0.035 C 
BRANCH  12  16
HETATM   16  C   UNL     1      24.808  46.401  49.940  1.00  0.00     0.277 C 
BRANCH  16  17
HETATM   17  C   UNL     1      24.460  47.795  49.580  1.00  0.00     0.011 A 
HETATM   18  C   UNL     1      25.352  48.824  49.163  1.00  0.00     0.060 A 
HETATM   19  C   UNL     1      26.830  48.768  49.005  1.00  0.00     0.073 C 
HETATM   20  N   UNL     1      24.698  49.948  48.871  1.00  0.00    -0.178 NA
HETATM   21  N   UNL     1      23.417  49.687  49.169  1.00  0.00    -0.284 N 
HETATM   22  C   UNL     1      22.423  50.725  49.028  1.00  0.00     0.179 C 
HETATM   23  C   UNL     1      23.215  48.397  49.570  1.00  0.00     0.122 A 
ENDBRANCH  16  17
ENDBRANCH  12  16
ENDBRANCH   1   9
BRANCH   1  24
HETATM   24  C   UNL     1      29.028  44.897  53.860  1.00  0.00     0.082 C 
BRANCH  24  25
HETATM   25  C   UNL     1      29.679  44.647  55.209  1.00  0.00    -0.034 A 
HETATM   26  C   UNL     1      29.415  45.409  56.361  1.00  0.00     0.040 A 
HETATM   27 CL   UNL     1      28.327  46.746  56.366  1.00  0.00    -0.084 Cl
HETATM   28  C   UNL     1      30.064  45.128  57.571  1.00  0.00     0.024 A 
HETATM   29  C   UNL     1      30.993  44.094  57.650  1.00  0.00     0.002 A 
HETATM   30  C   UNL     1      31.290  43.348  56.516  1.00  0.00     0.001 A 
HETATM   31  C   UNL     1      30.649  43.630  55.307  1.00  0.00     0.009 A 
ENDBRANCH  24  25
ENDBRANCH   1  24
BRANCH   5  32
HETATM   32  C   UNL     1      28.161  41.297  51.214  1.00  0.00     0.141 C 
BRANCH  32  33
HETATM   33  C   UNL     1      26.848  40.755  50.736  1.00  0.00     0.004 A 
HETATM   34  C   UNL     1      26.404  40.962  49.310  1.00  0.00     0.007 A 
HETATM   35  C   UNL     1      26.807  39.591  49.781  1.00  0.00     0.007 A 
ENDBRANCH  32  33
ENDBRANCH   5  32
TORSDOF 7
ENDMDL
MODEL 2
REMARK VINA RESULT:      -8.5      2.625      5.449
REMARK  7 active torsions:
REMARK  status: ('A' for Active; 'I' for Inactive)
REMARK    1  A    between atoms: C_7  and  C_8 
REMARK    2  A    between atoms: C_8  and  N_9 
REMARK    3  A    between atoms: C_13  and  C_14 
REMARK    4  A    between atoms: C_14  and  C_15 
REMARK    5  A    between atoms: C_15  and  C_16 
REMARK    6  A    between atoms: N_26  and  C_27 
REMARK    7  A    between atoms: C_27  and  C_28 
ROOT
HETATM    1  C   UNL     1      26.564  43.527  51.203  1.00  0.00     0.123 C 
HETATM    2  N   UNL     1      27.939  43.646  51.661  1.00  0.00    -0.324 N 
HETATM    3  C   UNL     1      28.046  44.149  52.937  1.00  0.00     0.326 C 
HETATM    4  O   UNL     1      29.097  44.231  53.543  1.00  0.00    -0.247 OA
HETATM    5  N   UNL     1      26.813  44.557  53.333  1.00  0.00    -0.268 N 
HETATM    6  C   UNL     1      25.899  44.319  52.349  1.00  0.00     0.257 C 
HETATM    7  O   UNL     1      24.727  44.671  52.362  1.00  0.00    -0.270 OA
HETATM    8  H   UNL     1      28.750  43.216  51.225  1.00  0.00     0.165 HD
ENDROOT
BRANCH   1   9
HETATM    9  C   UNL     1      26.411  44.174  49.786  1.00  0.00     0.027 C 
HETATM   10  C   UNL     1      27.139  45.520  49.598  1.00  0.00     0.035 C 
HETATM   11  C   UNL     1      26.391  46.721  50.156  1.00  0.00     0.235 C 
HETATM   12  N   UNL     1      25.023  46.823  49.538  1.00  0.00    -0.067 N 
HETATM   13  H   UNL     1      25.159  47.062  48.549  1.00  0.00     0.280 HD
HETATM   14  C   UNL     1      24.202  45.565  49.605  1.00  0.00     0.235 C 
HETATM   15  C   UNL     1      24.988  44.321  49.216  1.00  0.00     0.035 C 
BRANCH  12  16
HETATM   16  C   UNL     1      24.212  47.969  50.132  1.00  0.00     0.277 C 
BRANCH  16  17
HETATM   17  C   UNL     1      23.526  48.814  49.127  1.00  0.00     0.011 A 
HETATM   18  C   UNL     1      24.134  49.673  48.168  1.00  0.00     0.060 A 
HETATM   19  C   UNL     1      25.578  49.951  47.948  1.00  0.00     0.073 C 
HETATM   20  N   UNL     1      23.223  50.252  47.385  1.00  0.00    -0.178 NA
HETATM   21  N   UNL     1      22.043  49.844  47.873  1.00  0.00    -0.284 N 
HETATM   22  C   UNL     1      20.817  50.338  47.290  1.00  0.00     0.179 C 
HETATM   23  C   UNL     1      22.170  48.954  48.902  1.00  0.00     0.122 A 
ENDBRANCH  16  17
ENDBRANCH  12  16
ENDBRANCH   1   9
BRANCH   1  24
HETATM   24  C   UNL     1      26.057  42.057  51.346  1.00  0.00     0.082 C 
BRANCH  24  25
HETATM   25  C   UNL     1      26.708  41.021  50.448  1.00  0.00    -0.034 A 
HETATM   26  C   UNL     1      27.891  40.333  50.771  1.00  0.00     0.040 A 
HETATM   27 CL   UNL     1      28.761  40.611  52.233  1.00  0.00    -0.084 Cl
HETATM   28  C   UNL     1      28.442  39.397  49.885  1.00  0.00     0.024 A 
HETATM   29  C   UNL     1      27.831  39.140  48.660  1.00  0.00     0.002 A 
HETATM   30  C   UNL     1      26.678  39.831  48.309  1.00  0.00     0.001 A 
HETATM   31  C   UNL     1      26.130  40.768  49.187  1.00  0.00     0.009 A 
ENDBRANCH  24  25
ENDBRANCH   1  24
BRANCH   5  32
HETATM   32  C   UNL     1      26.531  45.210  54.594  1.00  0.00     0.141 C 
BRANCH  32  33
HETATM   33  C   UNL     1      26.669  46.694  54.444  1.00  0.00     0.004 A 
HETATM   34  C   UNL     1      26.709  47.590  55.657  1.00  0.00     0.007 A 
HETATM   35  C   UNL     1      27.951  47.384  54.832  1.00  0.00     0.007 A 
ENDBRANCH  32  33
ENDBRANCH   5  32
TORSDOF 7
ENDMDL
MODEL 3
REMARK VINA RESULT:      -8.4      2.075      2.849
REMARK  7 active torsions:
REMARK  status: ('A' for Active; 'I' for Inactive)
REMARK    1  A    between atoms: C_7  and  C_8 
REMARK    2  A    between atoms: C_8  and  N_9 
REMARK    3  A    between atoms: C_13  and  C_14 
REMARK    4  A    between atoms: C_14  and  C_15 
REMARK    5  A    between atoms: C_15  and  C_16 
REMARK    6  A    between atoms: N_26  and  C_27 
REMARK    7  A    between atoms: C_27  and  C_28 
ROOT
HETATM    1  C   UNL     1      26.429  43.859  51.310  1.00  0.00     0.123 C 
HETATM    2  N   UNL     1      26.346  42.511  51.850  1.00  0.00    -0.324 N 
HETATM    3  C   UNL     1      26.444  41.533  50.887  1.00  0.00     0.326 C 
HETATM    4  O   UNL     1      26.501  40.344  51.139  1.00  0.00    -0.247 OA
HETATM    5  N   UNL     1      26.415  42.134  49.671  1.00  0.00    -0.268 N 
HETATM    6  C   UNL     1      26.313  43.487  49.816  1.00  0.00     0.257 C 
HETATM    7  O   UNL     1      26.157  44.293  48.909  1.00  0.00    -0.270 OA
HETATM    8  H   UNL     1      26.432  42.258  52.829  1.00  0.00     0.165 HD
ENDROOT
BRANCH   1   9
HETATM    9  C   UNL     1      25.252  44.732  51.859  1.00  0.00     0.027 C 
HETATM   10  C   UNL     1      23.842  44.279  51.426  1.00  0.00     0.035 C 
HETATM   11  C   UNL     1      23.440  44.730  50.032  1.00  0.00     0.235 C 
HETATM   12  N   UNL     1      23.521  46.228  49.917  1.00  0.00    -0.067 N 
HETATM   13  H   UNL     1      22.781  46.613  50.517  1.00  0.00     0.280 HD
HETATM   14  C   UNL     1      24.830  46.827  50.349  1.00  0.00     0.235 C 
HETATM   15  C   UNL     1      25.340  46.257  51.664  1.00  0.00     0.035 C 
BRANCH  12  16
HETATM   16  C   UNL     1      23.201  46.712  48.508  1.00  0.00     0.277 C 
BRANCH  16  17
HETATM   17  C   UNL     1      22.203  47.806  48.452  1.00  0.00     0.011 A 
HETATM   18  C   UNL     1      22.452  49.185  48.202  1.00  0.00     0.060 A 
HETATM   19  C   UNL     1      23.751  49.868  47.958  1.00  0.00     0.073 C 
HETATM   20  N   UNL     1      21.320  49.889  48.176  1.00  0.00    -0.178 NA
HETATM   21  N   UNL     1      20.360  49.005  48.483  1.00  0.00    -0.284 N 
HETATM   22  C   UNL     1      18.991  49.448  48.605  1.00  0.00     0.179 C 
HETATM   23  C   UNL     1      20.834  47.731  48.628  1.00  0.00     0.122 A 
ENDBRANCH  16  17
ENDBRANCH  12  16
ENDBRANCH   1   9
BRANCH   1  24
HETATM   24  C   UNL     1      27.864  44.445  51.496  1.00  0.00     0.082 C 
BRANCH  24  25
HETATM   25  C   UNL     1      28.635  43.982  52.720  1.00  0.00    -0.034 A 
HETATM   26  C   UNL     1      28.499  44.555  53.997  1.00  0.00     0.040 A 
HETATM   27 CL   UNL     1      27.445  45.882  54.316  1.00  0.00    -0.084 Cl
HETATM   28  C   UNL     1      29.254  44.083  55.079  1.00  0.00     0.024 A 
HETATM   29  C   UNL     1      30.163  43.043  54.905  1.00  0.00     0.002 A 
HETATM   30  C   UNL     1      30.334  42.483  53.645  1.00  0.00     0.001 A 
HETATM   31  C   UNL     1      29.588  42.955  52.564  1.00  0.00     0.009 A 
ENDBRANCH  24  25
ENDBRANCH   1  24
BRANCH   5  32
HETATM   32  C   UNL     1      26.424  41.429  48.407  1.00  0.00     0.141 C 
BRANCH  32  33
HETATM   33  C   UNL     1      27.832  41.100  48.013  1.00  0.00     0.004 A 
HETATM   34  C   UNL     1      28.204  39.703  47.585  1.00  0.00     0.007 A 
HETATM   35  C   UNL     1      28.175  40.817  46.574  1.00  0.00     0.007 A 
ENDBRANCH  32  33
ENDBRANCH   5  32
TORSDOF 7
ENDMDL
MODEL 4
REMARK VINA RESULT:      -8.2      6.484     12.828
REMARK  7 active torsions:
REMARK  status: ('A' for Active; 'I' for Inactive)
REMARK    1  A    between atoms: C_7  and  C_8 
REMARK    2  A    between atoms: C_8  and  N_9 
REMARK    3  A    between atoms: C_13  and  C_14 
REMARK    4  A    between atoms: C_14  and  C_15 
REMARK    5  A    between atoms: C_15  and  C_16 
REMARK    6  A    between atoms: N_26  and  C_27 
REMARK    7  A    between atoms: C_27  and  C_28 
ROOT
HETATM    1  C   UNL     1      18.416  50.488  48.636  1.00  0.00     0.123 C 
HETATM    2  N   UNL     1      17.272  49.648  48.315  1.00  0.00    -0.324 N 
HETATM    3  C   UNL     1      16.096  50.352  48.200  1.00  0.00     0.326 C 
HETATM    4  O   UNL     1      15.047  49.855  47.838  1.00  0.00    -0.247 OA
HETATM    5  N   UNL     1      16.328  51.628  48.601  1.00  0.00    -0.268 N 
HETATM    6  C   UNL     1      17.634  51.778  48.963  1.00  0.00     0.257 C 
HETATM    7  O   UNL     1      18.126  52.779  49.469  1.00  0.00    -0.270 OA
HETATM    8  H   UNL     1      17.314  48.690  47.982  1.00  0.00     0.165 HD
ENDROOT
BRANCH   1   9
HETATM    9  C   UNL     1      19.208  49.879  49.841  1.00  0.00     0.027 C 
HETATM   10  C   UNL     1      20.366  50.751  50.370  1.00  0.00     0.035 C 
HETATM   11  C   UNL     1      21.648  50.650  49.560  1.00  0.00     0.235 C 
HETATM   12  N   UNL     1      22.115  49.221  49.487  1.00  0.00    -0.067 N 
HETATM   13  H   UNL     1      22.407  48.954  50.434  1.00  0.00     0.280 HD
HETATM   14  C   UNL     1      21.075  48.238  49.025  1.00  0.00     0.235 C 
HETATM   15  C   UNL     1      19.727  48.437  49.701  1.00  0.00     0.035 C 
BRANCH  12  16
HETATM   16  C   UNL     1      23.355  49.070  48.614  1.00  0.00     0.277 C 
BRANCH  16  17
HETATM   17  C   UNL     1      24.503  48.427  49.296  1.00  0.00     0.011 A 
HETATM   18  C   UNL     1      25.880  48.762  49.162  1.00  0.00     0.060 A 
HETATM   19  C   UNL     1      26.506  49.807  48.309  1.00  0.00     0.073 C 
HETATM   20  N   UNL     1      26.645  48.012  49.955  1.00  0.00    -0.178 NA
HETATM   21  N   UNL     1      25.796  47.149  50.533  1.00  0.00    -0.284 N 
HETATM   22  C   UNL     1      26.304  46.133  51.424  1.00  0.00     0.179 C 
HETATM   23  C   UNL     1      24.492  47.376  50.194  1.00  0.00     0.122 A 
ENDBRANCH  16  17
ENDBRANCH  12  16
ENDBRANCH   1   9
BRANCH   1  24
HETATM   24  C   UNL     1      19.249  50.804  47.354  1.00  0.00     0.082 C 
BRANCH  24  25
HETATM   25  C   UNL     1      18.757  50.195  46.054  1.00  0.00    -0.034 A 
HETATM   26  C   UNL     1      17.985  50.887  45.104  1.00  0.00     0.040 A 
HETATM   27 CL   UNL     1      17.482  52.522  45.325  1.00  0.00    -0.084 Cl
HETATM   28  C   UNL     1      17.555  50.255  43.930  1.00  0.00     0.024 A 
HETATM   29  C   UNL     1      17.876  48.922  43.688  1.00  0.00     0.002 A 
HETATM   30  C   UNL     1      18.613  48.211  44.627  1.00  0.00     0.001 A 
HETATM   31  C   UNL     1      19.038  48.836  45.801  1.00  0.00     0.009 A 
ENDBRANCH  24  25
ENDBRANCH   1  24
BRANCH   5  32
HETATM   32  C   UNL     1      15.313  52.657  48.691  1.00  0.00     0.141 C 
BRANCH  32  33
HETATM   33  C   UNL     1      14.767  52.716  50.085  1.00  0.00     0.004 A 
HETATM   34  C   UNL     1      14.966  53.944  50.938  1.00  0.00     0.007 A 
HETATM   35  C   UNL     1      13.598  53.610  50.408  1.00  0.00     0.007 A 
ENDBRANCH  32  33
ENDBRANCH   5  32
TORSDOF 7
ENDMDL
MODEL 5
REMARK VINA RESULT:      -8.1      2.937      5.422
REMARK  7 active torsions:
REMARK  status: ('A' for Active; 'I' for Inactive)
REMARK    1  A    between atoms: C_7  and  C_8 
REMARK    2  A    between atoms: C_8  and  N_9 
REMARK    3  A    between atoms: C_13  and  C_14 
REMARK    4  A    between atoms: C_14  and  C_15 
REMARK    5  A    between atoms: C_15  and  C_16 
REMARK    6  A    between atoms: N_26  and  C_27 
REMARK    7  A    between atoms: C_27  and  C_28 
ROOT
HETATM    1  C   UNL     1      25.516  44.264  50.460  1.00  0.00     0.123 C 
HETATM    2  N   UNL     1      25.297  45.572  49.861  1.00  0.00    -0.324 N 
HETATM    3  C   UNL     1      25.350  46.603  50.771  1.00  0.00     0.326 C 
HETATM    4  O   UNL     1      25.295  47.777  50.461  1.00  0.00    -0.247 OA
HETATM    5  N   UNL     1      25.420  46.064  52.015  1.00  0.00    -0.268 N 
HETATM    6  C   UNL     1      25.428  44.702  51.939  1.00  0.00     0.257 C 
HETATM    7  O   UNL     1      25.376  43.932  52.889  1.00  0.00    -0.270 OA
HETATM    8  H   UNL     1      25.323  45.782  48.868  1.00  0.00     0.165 HD
ENDROOT
BRANCH   1   9
HETATM    9  C   UNL     1      24.396  43.270  50.005  1.00  0.00     0.027 C 
HETATM   10  C   UNL     1      24.397  42.928  48.500  1.00  0.00     0.035 C 
HETATM   11  C   UNL     1      23.734  43.975  47.620  1.00  0.00     0.235 C 
HETATM   12  N   UNL     1      22.315  44.214  48.060  1.00  0.00    -0.067 N 
HETATM   13  H   UNL     1      21.790  43.356  47.850  1.00  0.00     0.280 HD
HETATM   14  C   UNL     1      22.148  44.518  49.523  1.00  0.00     0.235 C 
HETATM   15  C   UNL     1      22.947  43.584  50.419  1.00  0.00     0.035 C 
BRANCH  12  16
HETATM   16  C   UNL     1      21.644  45.317  47.250  1.00  0.00     0.277 C 
BRANCH  16  17
HETATM   17  C   UNL     1      21.559  46.620  47.949  1.00  0.00     0.011 A 
HETATM   18  C   UNL     1      20.396  47.223  48.506  1.00  0.00     0.060 A 
HETATM   19  C   UNL     1      18.997  46.720  48.511  1.00  0.00     0.073 C 
HETATM   20  N   UNL     1      20.685  48.379  49.105  1.00  0.00    -0.178 NA
HETATM   21  N   UNL     1      21.992  48.567  48.874  1.00  0.00    -0.284 N 
HETATM   22  C   UNL     1      22.635  49.774  49.339  1.00  0.00     0.179 C 
HETATM   23  C   UNL     1      22.572  47.524  48.210  1.00  0.00     0.122 A 
ENDBRANCH  16  17
ENDBRANCH  12  16
ENDBRANCH   1   9
BRANCH   1  24
HETATM   24  C   UNL     1      26.987  43.792  50.239  1.00  0.00     0.082 C 
BRANCH  24  25
HETATM   25  C   UNL     1      27.662  43.097  51.408  1.00  0.00    -0.034 A 
HETATM   26  C   UNL     1      27.452  41.749  51.749  1.00  0.00     0.040 A 
HETATM   27 CL   UNL     1      26.368  40.726  50.880  1.00  0.00    -0.084 Cl
HETATM   28  C   UNL     1      28.101  41.177  52.851  1.00  0.00     0.024 A 
HETATM   29  C   UNL     1      28.960  41.940  53.638  1.00  0.00     0.002 A 
HETATM   30  C   UNL     1      29.160  43.281  53.336  1.00  0.00     0.001 A 
HETATM   31  C   UNL     1      28.509  43.855  52.242  1.00  0.00     0.009 A 
ENDBRANCH  24  25
ENDBRANCH   1  24
BRANCH   5  32
HETATM   32  C   UNL     1      25.418  46.831  53.242  1.00  0.00     0.141 C 
BRANCH  32  33
HETATM   33  C   UNL     1      26.826  47.089  53.687  1.00  0.00     0.004 A 
HETATM   34  C   UNL     1      27.104  47.746  55.016  1.00  0.00     0.007 A 
HETATM   35  C   UNL     1      27.428  46.290  54.813  1.00  0.00     0.007 A 
ENDBRANCH  32  33
ENDBRANCH   5  32
TORSDOF 7
ENDMDL
MODEL 6
REMARK VINA RESULT:      -8.0      8.899     12.048
REMARK  7 active torsions:
REMARK  status: ('A' for Active; 'I' for Inactive)
REMARK    1  A    between atoms: C_7  and  C_8 
REMARK    2  A    between atoms: C_8  and  N_9 
REMARK    3  A    between atoms: C_13  and  C_14 
REMARK    4  A    between atoms: C_14  and  C_15 
REMARK    5  A    between atoms: C_15  and  C_16 
REMARK    6  A    between atoms: N_26  and  C_27 
REMARK    7  A    between atoms: C_27  and  C_28 
ROOT
HETATM    1  C   UNL     1      18.712  49.771  48.468  1.00  0.00     0.123 C 
HETATM    2  N   UNL     1      17.406  49.380  48.978  1.00  0.00    -0.324 N 
HETATM    3  C   UNL     1      16.906  48.246  48.380  1.00  0.00     0.326 C 
HETATM    4  O   UNL     1      15.880  47.697  48.731  1.00  0.00    -0.247 OA
HETATM    5  N   UNL     1      17.722  47.921  47.345  1.00  0.00    -0.268 N 
HETATM    6  C   UNL     1      18.754  48.809  47.261  1.00  0.00     0.257 C 
HETATM    7  O   UNL     1      19.594  48.848  46.372  1.00  0.00    -0.270 OA
HETATM    8  H   UNL     1      16.971  49.730  49.826  1.00  0.00     0.165 HD
ENDROOT
BRANCH   1   9
HETATM    9  C   UNL     1      18.711  51.291  48.095  1.00  0.00     0.027 C 
HETATM   10  C   UNL     1      18.661  52.260  49.294  1.00  0.00     0.035 C 
HETATM   11  C   UNL     1      17.272  52.468  49.874  1.00  0.00     0.235 C 
HETATM   12  N   UNL     1      16.326  52.964  48.814  1.00  0.00    -0.067 N 
HETATM   13  H   UNL     1      16.628  53.914  48.566  1.00  0.00     0.280 HD
HETATM   14  C   UNL     1      16.295  52.140  47.557  1.00  0.00     0.235 C 
HETATM   15  C   UNL     1      17.683  51.771  47.054  1.00  0.00     0.035 C 
BRANCH  12  16
HETATM   16  C   UNL     1      14.903  53.108  49.341  1.00  0.00     0.277 C 
BRANCH  16  17
HETATM   17  C   UNL     1      14.560  54.475  49.799  1.00  0.00     0.011 A 
HETATM   18  C   UNL     1      13.262  54.984  50.089  1.00  0.00     0.060 A 
HETATM   19  C   UNL     1      11.947  54.296  49.990  1.00  0.00     0.073 C 
HETATM   20  N   UNL     1      13.318  56.243  50.524  1.00  0.00    -0.178 NA
HETATM   21  N   UNL     1      14.614  56.577  50.442  1.00  0.00    -0.284 N 
HETATM   22  C   UNL     1      15.031  57.916  50.784  1.00  0.00     0.179 C 
HETATM   23  C   UNL     1      15.407  55.539  50.041  1.00  0.00     0.122 A 
ENDBRANCH  16  17
ENDBRANCH  12  16
ENDBRANCH   1   9
BRANCH   1  24
HETATM   24  C   UNL     1      19.847  49.300  49.432  1.00  0.00     0.082 C 
BRANCH  24  25
HETATM   25  C   UNL     1      21.273  49.574  48.989  1.00  0.00    -0.034 A 
HETATM   26  C   UNL     1      22.174  48.575  48.579  1.00  0.00     0.040 A 
HETATM   27 CL   UNL     1      21.761  46.900  48.556  1.00  0.00    -0.084 Cl
HETATM   28  C   UNL     1      23.481  48.901  48.195  1.00  0.00     0.024 A 
HETATM   29  C   UNL     1      23.916  50.223  48.225  1.00  0.00     0.002 A 
HETATM   30  C   UNL     1      23.052  51.222  48.655  1.00  0.00     0.001 A 
HETATM   31  C   UNL     1      21.750  50.899  49.044  1.00  0.00     0.009 A 
ENDBRANCH  24  25
ENDBRANCH   1  24
BRANCH   5  32
HETATM   32  C   UNL     1      17.487  46.826  46.428  1.00  0.00     0.141 C 
BRANCH  32  33
HETATM   33  C   UNL     1      18.130  45.576  46.946  1.00  0.00     0.004 A 
HETATM   34  C   UNL     1      18.256  44.355  46.069  1.00  0.00     0.007 A 
HETATM   35  C   UNL     1      19.481  45.147  46.437  1.00  0.00     0.007 A 
ENDBRANCH  32  33
ENDBRANCH   5  32
TORSDOF 7
ENDMDL
MODEL 7
REMARK VINA RESULT:      -8.0      5.648     10.956
REMARK  7 active torsions:
REMARK  status: ('A' for Active; 'I' for Inactive)
REMARK    1  A    between atoms: C_7  and  C_8 
REMARK    2  A    between atoms: C_8  and  N_9 
REMARK    3  A    between atoms: C_13  and  C_14 
REMARK    4  A    between atoms: C_14  and  C_15 
REMARK    5  A    between atoms: C_15  and  C_16 
REMARK    6  A    between atoms: N_26  and  C_27 
REMARK    7  A    between atoms: C_27  and  C_28 
ROOT
HETATM    1  C   UNL     1      19.104  47.946  47.946  1.00  0.00     0.123 C 
HETATM    2  N   UNL     1      19.349  48.936  46.908  1.00  0.00    -0.324 N 
HETATM    3  C   UNL     1      18.441  49.970  46.918  1.00  0.00     0.326 C 
HETATM    4  O   UNL     1      18.528  50.948  46.202  1.00  0.00    -0.247 OA
HETATM    5  N   UNL     1      17.461  49.661  47.805  1.00  0.00    -0.268 N 
HETATM    6  C   UNL     1      17.714  48.453  48.386  1.00  0.00     0.257 C 
HETATM    7  O   UNL     1      16.964  47.854  49.145  1.00  0.00    -0.270 OA
HETATM    8  H   UNL     1      20.200  49.025  46.362  1.00  0.00     0.165 HD
ENDROOT
BRANCH   1   9
HETATM    9  C   UNL     1      19.111  46.507  47.330  1.00  0.00     0.027 C 
HETATM   10  C   UNL     1      19.448  45.373  48.318  1.00  0.00     0.035 C 
HETATM   11  C   UNL     1      20.934  45.195  48.585  1.00  0.00     0.235 C 
HETATM   12  N   UNL     1      21.676  44.950  47.298  1.00  0.00    -0.067 N 
HETATM   13  H   UNL     1      21.381  44.028  46.955  1.00  0.00     0.280 HD
HETATM   14  C   UNL     1      21.412  45.957  46.214  1.00  0.00     0.235 C 
HETATM   15  C   UNL     1      19.935  46.281  46.049  1.00  0.00     0.035 C 
BRANCH  12  16
HETATM   16  C   UNL     1      23.181  44.846  47.517  1.00  0.00     0.277 C 
BRANCH  16  17
HETATM   17  C   UNL     1      23.572  44.521  48.908  1.00  0.00     0.011 A 
HETATM   18  C   UNL     1      23.470  43.258  49.558  1.00  0.00     0.060 A 
HETATM   19  C   UNL     1      22.937  41.977  49.024  1.00  0.00     0.073 C 
HETATM   20  N   UNL     1      23.957  43.306  50.798  1.00  0.00    -0.178 NA
HETATM   21  N   UNL     1      24.294  44.590  50.984  1.00  0.00    -0.284 N 
HETATM   22  C   UNL     1      24.809  45.017  52.264  1.00  0.00     0.179 C 
HETATM   23  C   UNL     1      24.112  45.357  49.868  1.00  0.00     0.122 A 
ENDBRANCH  16  17
ENDBRANCH  12  16
ENDBRANCH   1   9
BRANCH   1  24
HETATM   24  C   UNL     1      20.051  48.175  49.166  1.00  0.00     0.082 C 
BRANCH  24  25
HETATM   25  C   UNL     1      21.274  49.043  48.926  1.00  0.00    -0.034 A 
HETATM   26  C   UNL     1      21.325  50.421  49.200  1.00  0.00     0.040 A 
HETATM   27 CL   UNL     1      19.978  51.298  49.825  1.00  0.00    -0.084 Cl
HETATM   28  C   UNL     1      22.486  51.162  48.941  1.00  0.00     0.024 A 
HETATM   29  C   UNL     1      23.609  50.546  48.395  1.00  0.00     0.002 A 
HETATM   30  C   UNL     1      23.569  49.190  48.090  1.00  0.00     0.001 A 
HETATM   31  C   UNL     1      22.412  48.451  48.341  1.00  0.00     0.009 A 
ENDBRANCH  24  25
ENDBRANCH   1  24
BRANCH   5  32
HETATM   32  C   UNL     1      16.285  50.471  48.043  1.00  0.00     0.141 C 
BRANCH  32  33
HETATM   33  C   UNL     1      16.471  51.290  49.284  1.00  0.00     0.004 A 
HETATM   34  C   UNL     1      16.703  52.778  49.196  1.00  0.00     0.007 A 
HETATM   35  C   UNL     1      15.399  52.250  49.731  1.00  0.00     0.007 A 
ENDBRANCH  32  33
ENDBRANCH   5  32
TORSDOF 7
ENDMDL
MODEL 8
REMARK VINA RESULT:      -7.9      7.203     13.454
REMARK  7 active torsions:
REMARK  status: ('A' for Active; 'I' for Inactive)
REMARK    1  A    between atoms: C_7  and  C_8 
REMARK    2  A    between atoms: C_8  and  N_9 
REMARK    3  A    between atoms: C_13  and  C_14 
REMARK    4  A    between atoms: C_14  and  C_15 
REMARK    5  A    between atoms: C_15  and  C_16 
REMARK    6  A    between atoms: N_26  and  C_27 
REMARK    7  A    between atoms: C_27  and  C_28 
ROOT
HETATM    1  C   UNL     1      17.252  51.490  48.204  1.00  0.00     0.123 C 
HETATM    2  N   UNL     1      17.453  52.447  47.127  1.00  0.00    -0.324 N 
HETATM    3  C   UNL     1      17.369  51.883  45.875  1.00  0.00     0.326 C 
HETATM    4  O   UNL     1      17.405  52.527  44.844  1.00  0.00    -0.247 OA
HETATM    5  N   UNL     1      17.292  50.536  46.024  1.00  0.00    -0.268 N 
HETATM    6  C   UNL     1      17.311  50.206  47.348  1.00  0.00     0.257 C 
HETATM    7  O   UNL     1      17.365  49.071  47.801  1.00  0.00    -0.270 OA
HETATM    8  H   UNL     1      17.436  53.458  47.221  1.00  0.00     0.165 HD
ENDROOT
BRANCH   1   9
HETATM    9  C   UNL     1      18.395  51.623  49.264  1.00  0.00     0.027 C 
HETATM   10  C   UNL     1      19.764  52.057  48.700  1.00  0.00     0.035 C 
HETATM   11  C   UNL     1      20.568  50.932  48.070  1.00  0.00     0.235 C 
HETATM   12  N   UNL     1      20.785  49.820  49.060  1.00  0.00    -0.067 N 
HETATM   13  H   UNL     1      21.412  50.186  49.786  1.00  0.00     0.280 HD
HETATM   14  C   UNL     1      19.538  49.316  49.732  1.00  0.00     0.235 C 
HETATM   15  C   UNL     1      18.630  50.437  50.217  1.00  0.00     0.035 C 
BRANCH  12  16
HETATM   16  C   UNL     1      21.519  48.637  48.439  1.00  0.00     0.277 C 
BRANCH  16  17
HETATM   17  C   UNL     1      22.936  48.513  48.857  1.00  0.00     0.011 A 
HETATM   18  C   UNL     1      23.994  49.428  48.591  1.00  0.00     0.060 A 
HETATM   19  C   UNL     1      23.953  50.703  47.827  1.00  0.00     0.073 C 
HETATM   20  N   UNL     1      25.135  49.031  49.154  1.00  0.00    -0.178 NA
HETATM   21  N   UNL     1      24.850  47.843  49.706  1.00  0.00    -0.284 N 
HETATM   22  C   UNL     1      25.893  47.088  50.360  1.00  0.00     0.179 C 
HETATM   23  C   UNL     1      23.533  47.500  49.582  1.00  0.00     0.122 A 
ENDBRANCH  16  17
ENDBRANCH  12  16
ENDBRANCH   1   9
BRANCH   1  24
HETATM   24  C   UNL     1      15.792  51.571  48.753  1.00  0.00     0.082 C 
BRANCH  24  25
HETATM   25  C   UNL     1      15.289  52.948  49.150  1.00  0.00    -0.034 A 
HETATM   26  C   UNL     1      14.576  53.802  48.290  1.00  0.00     0.040 A 
HETATM   27 CL   UNL     1      14.210  53.386  46.657  1.00  0.00    -0.084 Cl
HETATM   28  C   UNL     1      14.154  55.066  48.721  1.00  0.00     0.024 A 
HETATM   29  C   UNL     1      14.444  55.505  50.010  1.00  0.00     0.002 A 
HETATM   30  C   UNL     1      15.172  54.688  50.867  1.00  0.00     0.001 A 
HETATM   31  C   UNL     1      15.600  53.431  50.437  1.00  0.00     0.009 A 
ENDBRANCH  24  25
ENDBRANCH   1  24
BRANCH   5  32
HETATM   32  C   UNL     1      17.263  49.591  44.929  1.00  0.00     0.141 C 
BRANCH  32  33
HETATM   33  C   UNL     1      15.877  49.499  44.368  1.00  0.00     0.004 A 
HETATM   34  C   UNL     1      15.194  48.162  44.220  1.00  0.00     0.007 A 
HETATM   35  C   UNL     1      14.716  49.140  45.259  1.00  0.00     0.007 A 
ENDBRANCH  32  33
ENDBRANCH   5  32
TORSDOF 7
ENDMDL
MODEL 9
REMARK VINA RESULT:      -7.8     12.566     15.605
REMARK  7 active torsions:
REMARK  status: ('A' for Active; 'I' for Inactive)
REMARK    1  A    between atoms: C_7  and  C_8 
REMARK    2  A    between atoms: C_8  and  N_9 
REMARK    3  A    between atoms: C_13  and  C_14 
REMARK    4  A    between atoms: C_14  and  C_15 
REMARK    5  A    between atoms: C_15  and  C_16 
REMARK    6  A    between atoms: N_26  and  C_27 
REMARK    7  A    between atoms: C_27  and  C_28 
ROOT
HETATM    1  C   UNL     1      27.990  49.789  38.911  1.00  0.00     0.123 C 
HETATM    2  N   UNL     1      27.526  50.249  40.211  1.00  0.00    -0.324 N 
HETATM    3  C   UNL     1      27.730  51.593  40.417  1.00  0.00     0.326 C 
HETATM    4  O   UNL     1      27.323  52.194  41.394  1.00  0.00    -0.247 OA
HETATM    5  N   UNL     1      28.480  52.068  39.390  1.00  0.00    -0.268 N 
HETATM    6  C   UNL     1      28.760  51.066  38.508  1.00  0.00     0.257 C 
HETATM    7  O   UNL     1      29.503  51.152  37.540  1.00  0.00    -0.270 OA
HETATM    8  H   UNL     1      26.914  49.735  40.838  1.00  0.00     0.165 HD
ENDROOT
BRANCH   1   9
HETATM    9  C   UNL     1      28.880  48.513  39.078  1.00  0.00     0.027 C 
HETATM   10  C   UNL     1      28.599  47.679  40.345  1.00  0.00     0.035 C 
HETATM   11  C   UNL     1      29.251  48.219  41.607  1.00  0.00     0.235 C 
HETATM   12  N   UNL     1      30.740  48.334  41.426  1.00  0.00    -0.067 N 
HETATM   13  H   UNL     1      31.106  47.377  41.357  1.00  0.00     0.280 HD
HETATM   14  C   UNL     1      31.173  49.089  40.200  1.00  0.00     0.235 C 
HETATM   15  C   UNL     1      30.405  48.683  38.950  1.00  0.00     0.035 C 
BRANCH  12  16
HETATM   16  C   UNL     1      31.418  48.948  42.645  1.00  0.00     0.277 C 
BRANCH  16  17
HETATM   17  C   UNL     1      32.694  49.640  42.347  1.00  0.00     0.011 A 
HETATM   18  C   UNL     1      33.189  50.829  42.952  1.00  0.00     0.060 A 
HETATM   19  C   UNL     1      32.557  51.673  44.001  1.00  0.00     0.073 C 
HETATM   20  N   UNL     1      34.394  51.152  42.481  1.00  0.00    -0.178 NA
HETATM   21  N   UNL     1      34.645  50.242  41.530  1.00  0.00    -0.284 N 
HETATM   22  C   UNL     1      35.861  50.330  40.756  1.00  0.00     0.179 C 
HETATM   23  C   UNL     1      33.668  49.291  41.430  1.00  0.00     0.122 A 
ENDBRANCH  16  17
ENDBRANCH  12  16
ENDBRANCH   1   9
BRANCH   1  24
HETATM   24  C   UNL     1      26.800  49.671  37.907  1.00  0.00     0.082 C 
BRANCH  24  25
HETATM   25  C   UNL     1      25.646  48.774  38.319  1.00  0.00    -0.034 A 
HETATM   26  C   UNL     1      25.555  47.410  37.991  1.00  0.00     0.040 A 
HETATM   27 CL   UNL     1      26.748  46.597  37.047  1.00  0.00    -0.084 Cl
HETATM   28  C   UNL     1      24.453  46.646  38.396  1.00  0.00     0.024 A 
HETATM   29  C   UNL     1      23.419  47.230  39.124  1.00  0.00     0.002 A 
HETATM   30  C   UNL     1      23.476  48.583  39.434  1.00  0.00     0.001 A 
HETATM   31  C   UNL     1      24.570  49.348  39.026  1.00  0.00     0.009 A 
ENDBRANCH  24  25
ENDBRANCH   1  24
BRANCH   5  32
HETATM   32  C   UNL     1      28.965  53.428  39.289  1.00  0.00     0.141 C 
BRANCH  32  33
HETATM   33  C   UNL     1      30.409  53.488  39.686  1.00  0.00     0.004 A 
HETATM   34  C   UNL     1      30.846  54.306  40.875  1.00  0.00     0.007 A 
HETATM   35  C   UNL     1      30.883  52.804  40.942  1.00  0.00     0.007 A 
ENDBRANCH  32  33
ENDBRANCH   5  32
TORSDOF 7
ENDMDL
MODEL 10
REMARK VINA RESULT:      -7.8     12.575     14.646
REMARK  7 active torsions:
REMARK  status: ('A' for Active; 'I' for Inactive)
REMARK    1  A    between atoms: C_7  and  C_8 
REMARK    2  A    between atoms: C_8  and  N_9 
REMARK    3  A    between atoms: C_13  and  C_14 
REMARK    4  A    between atoms: C_14  and  C_15 
REMARK    5  A    between atoms: C_15  and  C_16 
REMARK    6  A    between atoms: N_26  and  C_27 
REMARK    7  A    between atoms: C_27  and  C_28 
ROOT
HETATM    1  C   UNL     1      28.033  49.447  39.037  1.00  0.00     0.123 C 
HETATM    2  N   UNL     1      27.604  49.377  40.425  1.00  0.00    -0.324 N 
HETATM    3  C   UNL     1      28.629  49.095  41.298  1.00  0.00     0.326 C 
HETATM    4  O   UNL     1      28.502  49.094  42.507  1.00  0.00    -0.247 OA
HETATM    5  N   UNL     1      29.731  48.786  40.567  1.00  0.00    -0.268 N 
HETATM    6  C   UNL     1      29.453  48.874  39.235  1.00  0.00     0.257 C 
HETATM    7  O   UNL     1      30.206  48.553  38.325  1.00  0.00    -0.270 OA
HETATM    8  H   UNL     1      26.716  49.711  40.789  1.00  0.00     0.165 HD
ENDROOT
BRANCH   1   9
HETATM    9  C   UNL     1      27.094  48.574  38.139  1.00  0.00     0.027 C 
HETATM   10  C   UNL     1      26.016  49.357  37.362  1.00  0.00     0.035 C 
HETATM   11  C   UNL     1      24.788  49.715  38.184  1.00  0.00     0.235 C 
HETATM   12  N   UNL     1      24.161  48.477  38.764  1.00  0.00    -0.067 N 
HETATM   13  H   UNL     1      23.775  47.942  37.976  1.00  0.00     0.280 HD
HETATM   14  C   UNL     1      25.105  47.582  39.518  1.00  0.00     0.235 C 
HETATM   15  C   UNL     1      26.418  47.352  38.786  1.00  0.00     0.035 C 
BRANCH  12  16
HETATM   16  C   UNL     1      22.973  48.804  39.661  1.00  0.00     0.277 C 
BRANCH  16  17
HETATM   17  C   UNL     1      21.866  49.509  38.971  1.00  0.00     0.011 A 
HETATM   18  C   UNL     1      21.311  50.775  39.309  1.00  0.00     0.060 A 
HETATM   19  C   UNL     1      21.678  51.685  40.427  1.00  0.00     0.073 C 
HETATM   20  N   UNL     1      20.357  51.135  38.450  1.00  0.00    -0.178 NA
HETATM   21  N   UNL     1      20.235  50.091  37.618  1.00  0.00    -0.284 N 
HETATM   22  C   UNL     1      19.230  50.116  36.580  1.00  0.00     0.179 C 
HETATM   23  C   UNL     1      21.140  49.099  37.869  1.00  0.00     0.122 A 
ENDBRANCH  16  17
ENDBRANCH  12  16
ENDBRANCH   1   9
BRANCH   1  24
HETATM   24  C   UNL     1      28.227  50.930  38.589  1.00  0.00     0.082 C 
BRANCH  24  25
HETATM   25  C   UNL     1      29.349  51.703  39.260  1.00  0.00    -0.034 A 
HETATM   26  C   UNL     1      29.195  52.441  40.446  1.00  0.00     0.040 A 
HETATM   27 CL   UNL     1      27.686  52.575  41.271  1.00  0.00    -0.084 Cl
HETATM   28  C   UNL     1      30.274  53.141  41.002  1.00  0.00     0.024 A 
HETATM   29  C   UNL     1      31.519  53.127  40.380  1.00  0.00     0.002 A 
HETATM   30  C   UNL     1      31.686  52.427  39.191  1.00  0.00     0.001 A 
HETATM   31  C   UNL     1      30.611  51.734  38.632  1.00  0.00     0.009 A 
ENDBRANCH  24  25
ENDBRANCH   1  24
BRANCH   5  32
HETATM   32  C   UNL     1      30.995  48.361  41.130  1.00  0.00     0.141 C 
BRANCH  32  33
HETATM   33  C   UNL     1      31.879  49.549  41.358  1.00  0.00     0.004 A 
HETATM   34  C   UNL     1      32.234  49.986  42.757  1.00  0.00     0.007 A 
HETATM   35  C   UNL     1      33.283  49.366  41.874  1.00  0.00     0.007 A 
ENDBRANCH  32  33
ENDBRANCH   5  32
TORSDOF 7
ENDMDL
