MODEL 1
REMARK VINA RESULT:      -8.3      0.000      0.000
REMARK  9 active torsions:
REMARK  status: ('A' for Active; 'I' for Inactive)
REMARK    1  A    between atoms: C_2  and  C_3 
REMARK    2  A    between atoms: C_6  and  N_7 
REMARK    3  A    between atoms: C_8  and  C_10 
REMARK    4  A    between atoms: C_8  and  O_9 
REMARK       I    between atoms: C_10  and  N_11 
REMARK    5  A    between atoms: N_11  and  C_12 
REMARK    6  A    between atoms: C_12  and  C_13 
REMARK    7  A    between atoms: C_13  and  N_14 
REMARK    8  A    between atoms: N_14  and  C_16 
REMARK    9  A    between atoms: N_14  and  C_18 
ROOT
HETATM    1  N   UNL     1      26.131  44.762  51.895  1.00  0.00    -0.254 N 
HETATM    2  C   UNL     1      25.225  43.851  51.163  1.00  0.00     0.256 C 
HETATM    3  C   UNL     1      24.321  44.514  50.146  1.00  0.00     0.034 A 
HETATM    4  C   UNL     1      24.278  45.896  50.075  1.00  0.00     0.048 A 
HETATM    5  N   UNL     1      25.055  46.632  50.951  1.00  0.00    -0.308 N 
HETATM    6  C   UNL     1      25.936  46.137  51.859  1.00  0.00     0.330 C 
HETATM    7  O   UNL     1      26.512  46.957  52.572  1.00  0.00    -0.246 OA
HETATM    8  C   UNL     1      23.474  43.778  49.295  1.00  0.00     0.015 A 
HETATM    9  C   UNL     1      22.652  44.425  48.370  1.00  0.00     0.001 A 
HETATM   10  C   UNL     1      22.645  45.814  48.300  1.00  0.00     0.002 A 
HETATM   11  C   UNL     1      23.451  46.554  49.162  1.00  0.00     0.030 A 
HETATM   12  H   UNL     1      24.975  47.644  50.962  1.00  0.00     0.170 HD
ENDROOT
BRANCH   2  13
HETATM   13  C   UNL     1      26.097  42.758  50.356  1.00  0.00     0.279 C 
HETATM   14  N   UNL     1      26.091  41.473  50.867  1.00  0.00    -0.355 N 
HETATM   15  H   UNL     1      25.537  41.335  51.711  1.00  0.00     0.162 HD
HETATM   16  O   UNL     1      26.802  43.041  49.384  1.00  0.00    -0.268 OA
BRANCH  14  17
HETATM   17  C   UNL     1      26.751  40.294  50.320  1.00  0.00     0.150 C 
BRANCH  17  18
HETATM   18  C   UNL     1      28.248  40.076  50.639  1.00  0.00     0.254 C 
BRANCH  18  19
HETATM   19  N   UNL     1      29.097  39.738  49.423  1.00  0.00    -0.070 N 
HETATM   20  H   UNL     1      29.911  40.385  49.512  1.00  0.00     0.279 HD
BRANCH  19  21
HETATM   21  C   UNL     1      29.730  38.366  49.408  1.00  0.00     0.230 C 
HETATM   22  C   UNL     1      29.918  37.806  50.805  1.00  0.00     0.034 C 
ENDBRANCH  19  21
BRANCH  19  23
HETATM   23  C   UNL     1      28.440  40.090  48.107  1.00  0.00     0.230 C 
HETATM   24  C   UNL     1      28.213  38.853  47.256  1.00  0.00     0.034 C 
ENDBRANCH  19  23
ENDBRANCH  18  19
ENDBRANCH  17  18
ENDBRANCH  14  17
ENDBRANCH   2  13
BRANCH   2  25
HETATM   25  O   UNL     1      24.351  43.272  52.117  1.00  0.00    -0.359 OA
HETATM   26  H   UNL     1      24.847  42.521  52.484  1.00  0.00     0.213 HD
ENDBRANCH   2  25
BRANCH   1  27
HETATM   27  C   UNL     1      27.230  44.202  52.670  1.00  0.00     0.043 A 
HETATM   28  C   UNL     1      28.451  43.832  52.079  1.00  0.00     0.030 A 
HETATM   29  C   UNL     1      29.549  43.437  52.856  1.00  0.00     0.009 A 
HETATM   30  C   UNL     1      29.459  43.401  54.248  1.00  0.00    -0.058 A 
HETATM   31  C   UNL     1      28.248  43.743  54.849  1.00  0.00     0.009 A 
HETATM   32  C   UNL     1      27.151  44.130  54.071  1.00  0.00     0.030 A 
BRANCH  30  33
HETATM   33  C   UNL     1      30.654  43.033  55.091  1.00  0.00     0.034 C 
HETATM   34  C   UNL     1      30.966  44.117  56.114  1.00  0.00     0.010 C 
ENDBRANCH  30  33
ENDBRANCH   1  27
TORSDOF 9
ENDMDL
MODEL 2
REMARK VINA RESULT:      -7.8      2.632      7.491
REMARK  9 active torsions:
REMARK  status: ('A' for Active; 'I' for Inactive)
REMARK    1  A    between atoms: C_2  and  C_3 
REMARK    2  A    between atoms: C_6  and  N_7 
REMARK    3  A    between atoms: C_8  and  C_10 
REMARK    4  A    between atoms: C_8  and  O_9 
REMARK       I    between atoms: C_10  and  N_11 
REMARK    5  A    between atoms: N_11  and  C_12 
REMARK    6  A    between atoms: C_12  and  C_13 
REMARK    7  A    between atoms: C_13  and  N_14 
REMARK    8  A    between atoms: N_14  and  C_16 
REMARK    9  A    between atoms: N_14  and  C_18 
ROOT
HETATM    1  N   UNL     1      26.408  43.644  51.882  1.00  0.00    -0.254 N 
HETATM    2  C   UNL     1      25.701  44.894  52.234  1.00  0.00     0.256 C 
HETATM    3  C   UNL     1      26.351  45.726  53.320  1.00  0.00     0.034 A 
HETATM    4  C   UNL     1      27.438  45.212  54.007  1.00  0.00     0.048 A 
HETATM    5  N   UNL     1      27.888  43.943  53.691  1.00  0.00    -0.308 N 
HETATM    6  C   UNL     1      27.411  43.142  52.702  1.00  0.00     0.330 C 
HETATM    7  O   UNL     1      27.926  42.030  52.597  1.00  0.00    -0.246 OA
HETATM    8  C   UNL     1      25.861  46.990  53.700  1.00  0.00     0.015 A 
HETATM    9  C   UNL     1      26.487  47.727  54.707  1.00  0.00     0.001 A 
HETATM   10  C   UNL     1      27.593  47.200  55.366  1.00  0.00     0.002 A 
HETATM   11  C   UNL     1      28.065  45.934  55.025  1.00  0.00     0.030 A 
HETATM   12  H   UNL     1      28.632  43.525  54.238  1.00  0.00     0.170 HD
ENDROOT
BRANCH   2  13
HETATM   13  C   UNL     1      25.600  45.842  50.931  1.00  0.00     0.279 C 
HETATM   14  N   UNL     1      24.325  46.180  50.518  1.00  0.00    -0.355 N 
HETATM   15  H   UNL     1      23.563  45.796  51.074  1.00  0.00     0.162 HD
HETATM   16  O   UNL     1      26.585  46.193  50.274  1.00  0.00    -0.268 OA
BRANCH  14  17
HETATM   17  C   UNL     1      23.950  47.047  49.407  1.00  0.00     0.150 C 
BRANCH  17  18
HETATM   18  C   UNL     1      24.240  48.561  49.527  1.00  0.00     0.254 C 
BRANCH  18  19
HETATM   19  N   UNL     1      24.312  49.285  48.190  1.00  0.00    -0.070 N 
HETATM   20  H   UNL     1      24.302  48.506  47.496  1.00  0.00     0.279 HD
BRANCH  19  21
HETATM   21  C   UNL     1      23.108  50.117  47.813  1.00  0.00     0.230 C 
HETATM   22  C   UNL     1      22.749  51.125  48.887  1.00  0.00     0.034 C 
ENDBRANCH  19  21
BRANCH  19  23
HETATM   23  C   UNL     1      25.618  50.014  47.965  1.00  0.00     0.230 C 
HETATM   24  C   UNL     1      26.759  49.343  48.708  1.00  0.00     0.034 C 
ENDBRANCH  19  23
ENDBRANCH  18  19
ENDBRANCH  17  18
ENDBRANCH  14  17
ENDBRANCH   2  13
BRANCH   2  25
HETATM   25  O   UNL     1      24.434  44.528  52.755  1.00  0.00    -0.359 OA
HETATM   26  H   UNL     1      23.814  44.663  52.018  1.00  0.00     0.213 HD
ENDBRANCH   2  25
BRANCH   1  27
HETATM   27  C   UNL     1      26.034  42.933  50.668  1.00  0.00     0.043 A 
HETATM   28  C   UNL     1      26.953  42.682  49.634  1.00  0.00     0.030 A 
HETATM   29  C   UNL     1      26.621  41.867  48.542  1.00  0.00     0.009 A 
HETATM   30  C   UNL     1      25.358  41.279  48.452  1.00  0.00    -0.058 A 
HETATM   31  C   UNL     1      24.427  41.537  49.458  1.00  0.00     0.009 A 
HETATM   32  C   UNL     1      24.759  42.355  50.544  1.00  0.00     0.030 A 
BRANCH  30  33
HETATM   33  C   UNL     1      25.014  40.356  47.310  1.00  0.00     0.034 C 
HETATM   34  C   UNL     1      26.107  39.319  47.087  1.00  0.00     0.010 C 
ENDBRANCH  30  33
ENDBRANCH   1  27
TORSDOF 9
ENDMDL
MODEL 3
REMARK VINA RESULT:      -7.7      1.635      2.209
REMARK  9 active torsions:
REMARK  status: ('A' for Active; 'I' for Inactive)
REMARK    1  A    between atoms: C_2  and  C_3 
REMARK    2  A    between atoms: C_6  and  N_7 
REMARK    3  A    between atoms: C_8  and  C_10 
REMARK    4  A    between atoms: C_8  and  O_9 
REMARK       I    between atoms: C_10  and  N_11 
REMARK    5  A    between atoms: N_11  and  C_12 
REMARK    6  A    between atoms: C_12  and  C_13 
REMARK    7  A    between atoms: C_13  and  N_14 
REMARK    8  A    between atoms: N_14  and  C_16 
REMARK    9  A    between atoms: N_14  and  C_18 
ROOT
HETATM    1  N   UNL     1      25.845  43.985  51.031  1.00  0.00    -0.254 N 
HETATM    2  C   UNL     1      25.119  42.758  50.640  1.00  0.00     0.256 C 
HETATM    3  C   UNL     1      24.371  42.836  49.326  1.00  0.00     0.034 A 
HETATM    4  C   UNL     1      24.278  44.052  48.671  1.00  0.00     0.048 A 
HETATM    5  N   UNL     1      24.860  45.166  49.247  1.00  0.00    -0.308 N 
HETATM    6  C   UNL     1      25.596  45.191  50.388  1.00  0.00     0.330 C 
HETATM    7  O   UNL     1      26.005  46.291  50.757  1.00  0.00    -0.246 OA
HETATM    8  C   UNL     1      23.715  41.724  48.762  1.00  0.00     0.015 A 
HETATM    9  C   UNL     1      23.033  41.836  47.549  1.00  0.00     0.001 A 
HETATM   10  C   UNL     1      22.975  43.063  46.896  1.00  0.00     0.002 A 
HETATM   11  C   UNL     1      23.589  44.178  47.462  1.00  0.00     0.030 A 
HETATM   12  H   UNL     1      24.733  46.076  48.818  1.00  0.00     0.170 HD
ENDROOT
BRANCH   2  13
HETATM   13  C   UNL     1      26.164  41.535  50.498  1.00  0.00     0.279 C 
HETATM   14  N   UNL     1      27.009  41.576  49.404  1.00  0.00    -0.355 N 
HETATM   15  H   UNL     1      26.891  42.375  48.783  1.00  0.00     0.162 HD
HETATM   16  O   UNL     1      26.177  40.566  51.262  1.00  0.00    -0.268 OA
BRANCH  14  17
HETATM   17  C   UNL     1      28.065  40.632  49.059  1.00  0.00     0.150 C 
BRANCH  17  18
HETATM   18  C   UNL     1      27.676  39.160  48.793  1.00  0.00     0.254 C 
BRANCH  18  19
HETATM   19  N   UNL     1      27.976  38.221  49.952  1.00  0.00    -0.070 N 
HETATM   20  H   UNL     1      27.441  38.640  50.744  1.00  0.00     0.279 HD
BRANCH  19  21
HETATM   21  C   UNL     1      27.419  36.821  49.843  1.00  0.00     0.230 C 
HETATM   22  C   UNL     1      26.557  36.642  48.608  1.00  0.00     0.034 C 
ENDBRANCH  19  21
BRANCH  19  23
HETATM   23  C   UNL     1      29.425  38.239  50.388  1.00  0.00     0.230 C 
HETATM   24  C   UNL     1      29.759  37.027  51.240  1.00  0.00     0.034 C 
ENDBRANCH  19  23
ENDBRANCH  18  19
ENDBRANCH  17  18
ENDBRANCH  14  17
ENDBRANCH   2  13
BRANCH   2  25
HETATM   25  O   UNL     1      24.123  42.527  51.622  1.00  0.00    -0.359 OA
HETATM   26  H   UNL     1      23.311  42.355  51.116  1.00  0.00     0.213 HD
ENDBRANCH   2  25
BRANCH   1  27
HETATM   27  C   UNL     1      26.821  43.921  52.110  1.00  0.00     0.043 A 
HETATM   28  C   UNL     1      28.189  43.702  51.870  1.00  0.00     0.030 A 
HETATM   29  C   UNL     1      29.136  43.794  52.901  1.00  0.00     0.009 A 
HETATM   30  C   UNL     1      28.742  44.107  54.202  1.00  0.00    -0.058 A 
HETATM   31  C   UNL     1      27.386  44.304  54.461  1.00  0.00     0.009 A 
HETATM   32  C   UNL     1      26.442  44.206  53.432  1.00  0.00     0.030 A 
BRANCH  30  33
HETATM   33  C   UNL     1      29.761  44.264  55.303  1.00  0.00     0.034 C 
HETATM   34  C   UNL     1      30.730  43.089  55.331  1.00  0.00     0.010 C 
ENDBRANCH  30  33
ENDBRANCH   1  27
TORSDOF 9
ENDMDL
MODEL 4
REMARK VINA RESULT:      -7.7      2.536      7.612
REMARK  9 active torsions:
REMARK  status: ('A' for Active; 'I' for Inactive)
REMARK    1  A    between atoms: C_2  and  C_3 
REMARK    2  A    between atoms: C_6  and  N_7 
REMARK    3  A    between atoms: C_8  and  C_10 
REMARK    4  A    between atoms: C_8  and  O_9 
REMARK       I    between atoms: C_10  and  N_11 
REMARK    5  A    between atoms: N_11  and  C_12 
REMARK    6  A    between atoms: C_12  and  C_13 
REMARK    7  A    between atoms: C_13  and  N_14 
REMARK    8  A    between atoms: N_14  and  C_16 
REMARK    9  A    between atoms: N_14  and  C_18 
ROOT
HETATM    1  N   UNL     1      27.362  42.163  51.517  1.00  0.00    -0.254 N 
HETATM    2  C   UNL     1      26.825  43.424  52.072  1.00  0.00     0.256 C 
HETATM    3  C   UNL     1      27.647  44.049  53.180  1.00  0.00     0.034 A 
HETATM    4  C   UNL     1      28.722  43.350  53.702  1.00  0.00     0.048 A 
HETATM    5  N   UNL     1      29.004  42.091  53.204  1.00  0.00    -0.308 N 
HETATM    6  C   UNL     1      28.367  41.468  52.179  1.00  0.00     0.330 C 
HETATM    7  O   UNL     1      28.747  40.331  51.903  1.00  0.00    -0.246 OA
HETATM    8  C   UNL     1      27.329  45.299  53.744  1.00  0.00     0.015 A 
HETATM    9  C   UNL     1      28.110  45.842  54.766  1.00  0.00     0.001 A 
HETATM   10  C   UNL     1      29.201  45.132  55.258  1.00  0.00     0.002 A 
HETATM   11  C   UNL     1      29.503  43.877  54.733  1.00  0.00     0.030 A 
HETATM   12  H   UNL     1      29.740  41.538  53.630  1.00  0.00     0.170 HD
ENDROOT
BRANCH   2  13
HETATM   13  C   UNL     1      26.726  44.529  50.899  1.00  0.00     0.279 C 
HETATM   14  N   UNL     1      25.468  45.048  50.653  1.00  0.00    -0.355 N 
HETATM   15  H   UNL     1      24.716  44.682  51.235  1.00  0.00     0.162 HD
HETATM   16  O   UNL     1      27.685  44.852  50.193  1.00  0.00    -0.268 OA
BRANCH  14  17
HETATM   17  C   UNL     1      25.103  46.079  49.689  1.00  0.00     0.150 C 
BRANCH  17  18
HETATM   18  C   UNL     1      25.347  47.558  50.067  1.00  0.00     0.254 C 
BRANCH  18  19
HETATM   19  N   UNL     1      25.157  48.531  48.913  1.00  0.00    -0.070 N 
HETATM   20  H   UNL     1      25.180  47.913  48.072  1.00  0.00     0.279 HD
BRANCH  19  21
HETATM   21  C   UNL     1      23.810  49.209  48.822  1.00  0.00     0.230 C 
HETATM   22  C   UNL     1      23.873  50.508  48.041  1.00  0.00     0.034 C 
ENDBRANCH  19  21
BRANCH  19  23
HETATM   23  C   UNL     1      26.308  49.498  48.738  1.00  0.00     0.230 C 
HETATM   24  C   UNL     1      27.634  48.844  49.084  1.00  0.00     0.034 C 
ENDBRANCH  19  23
ENDBRANCH  18  19
ENDBRANCH  17  18
ENDBRANCH  14  17
ENDBRANCH   2  13
BRANCH   2  25
HETATM   25  O   UNL     1      25.571  43.124  52.662  1.00  0.00    -0.359 OA
HETATM   26  H   UNL     1      25.506  43.724  53.424  1.00  0.00     0.213 HD
ENDBRANCH   2  25
BRANCH   1  27
HETATM   27  C   UNL     1      26.817  41.645  50.270  1.00  0.00     0.043 A 
HETATM   28  C   UNL     1      25.462  41.299  50.131  1.00  0.00     0.030 A 
HETATM   29  C   UNL     1      24.921  40.946  48.887  1.00  0.00     0.009 A 
HETATM   30  C   UNL     1      25.721  40.928  47.743  1.00  0.00    -0.058 A 
HETATM   31  C   UNL     1      27.073  41.246  47.868  1.00  0.00     0.009 A 
HETATM   32  C   UNL     1      27.612  41.592  49.113  1.00  0.00     0.030 A 
BRANCH  30  33
HETATM   33  C   UNL     1      25.133  40.605  46.392  1.00  0.00     0.034 C 
HETATM   34  C   UNL     1      23.837  39.817  46.526  1.00  0.00     0.010 C 
ENDBRANCH  30  33
ENDBRANCH   1  27
TORSDOF 9
ENDMDL
MODEL 5
REMARK VINA RESULT:      -7.6      2.656      7.880
REMARK  9 active torsions:
REMARK  status: ('A' for Active; 'I' for Inactive)
REMARK    1  A    between atoms: C_2  and  C_3 
REMARK    2  A    between atoms: C_6  and  N_7 
REMARK    3  A    between atoms: C_8  and  C_10 
REMARK    4  A    between atoms: C_8  and  O_9 
REMARK       I    between atoms: C_10  and  N_11 
REMARK    5  A    between atoms: N_11  and  C_12 
REMARK    6  A    between atoms: C_12  and  C_13 
REMARK    7  A    between atoms: C_13  and  N_14 
REMARK    8  A    between atoms: N_14  and  C_16 
REMARK    9  A    between atoms: N_14  and  C_18 
ROOT
HETATM    1  N   UNL     1      26.379  43.429  51.898  1.00  0.00    -0.254 N 
HETATM    2  C   UNL     1      25.973  44.764  52.384  1.00  0.00     0.256 C 
HETATM    3  C   UNL     1      26.876  45.377  53.433  1.00  0.00     0.034 A 
HETATM    4  C   UNL     1      27.898  44.616  53.974  1.00  0.00     0.048 A 
HETATM    5  N   UNL     1      28.053  43.308  53.550  1.00  0.00    -0.308 N 
HETATM    6  C   UNL     1      27.334  42.686  52.580  1.00  0.00     0.330 C 
HETATM    7  O   UNL     1      27.603  41.505  52.367  1.00  0.00    -0.246 OA
HETATM    8  C   UNL     1      26.688  46.683  53.924  1.00  0.00     0.015 A 
HETATM    9  C   UNL     1      27.541  47.213  54.894  1.00  0.00     0.001 A 
HETATM   10  C   UNL     1      28.577  46.437  55.405  1.00  0.00     0.002 A 
HETATM   11  C   UNL     1      28.751  45.131  54.954  1.00  0.00     0.030 A 
HETATM   12  H   UNL     1      28.747  42.717  53.994  1.00  0.00     0.170 HD
ENDROOT
BRANCH   2  13
HETATM   13  C   UNL     1      25.941  45.802  51.147  1.00  0.00     0.279 C 
HETATM   14  N   UNL     1      24.746  46.463  50.933  1.00  0.00    -0.355 N 
HETATM   15  H   UNL     1      23.991  46.232  51.577  1.00  0.00     0.162 HD
HETATM   16  O   UNL     1      26.888  45.955  50.370  1.00  0.00    -0.268 OA
BRANCH  14  17
HETATM   17  C   UNL     1      24.455  47.473  49.923  1.00  0.00     0.150 C 
BRANCH  17  18
HETATM   18  C   UNL     1      23.127  47.366  49.139  1.00  0.00     0.254 C 
BRANCH  18  19
HETATM   19  N   UNL     1      22.142  48.487  49.435  1.00  0.00    -0.070 N 
HETATM   20  H   UNL     1      21.922  48.351  50.446  1.00  0.00     0.279 HD
BRANCH  19  21
HETATM   21  C   UNL     1      22.688  49.895  49.373  1.00  0.00     0.230 C 
HETATM   22  C   UNL     1      22.714  50.437  47.957  1.00  0.00     0.034 C 
ENDBRANCH  19  21
BRANCH  19  23
HETATM   23  C   UNL     1      20.822  48.343  48.710  1.00  0.00     0.230 C 
HETATM   24  C   UNL     1      19.658  48.746  49.598  1.00  0.00     0.034 C 
ENDBRANCH  19  23
ENDBRANCH  18  19
ENDBRANCH  17  18
ENDBRANCH  14  17
ENDBRANCH   2  13
BRANCH   2  25
HETATM   25  O   UNL     1      24.713  44.616  53.018  1.00  0.00    -0.359 OA
HETATM   26  H   UNL     1      24.726  43.717  53.387  1.00  0.00     0.213 HD
ENDBRANCH   2  25
BRANCH   1  27
HETATM   27  C   UNL     1      25.757  42.888  50.697  1.00  0.00     0.043 A 
HETATM   28  C   UNL     1      26.508  42.504  49.572  1.00  0.00     0.030 A 
HETATM   29  C   UNL     1      25.913  41.848  48.485  1.00  0.00     0.009 A 
HETATM   30  C   UNL     1      24.548  41.556  48.491  1.00  0.00    -0.058 A 
HETATM   31  C   UNL     1      23.785  41.951  49.589  1.00  0.00     0.009 A 
HETATM   32  C   UNL     1      24.380  42.612  50.670  1.00  0.00     0.030 A 
BRANCH  30  33
HETATM   33  C   UNL     1      23.914  40.799  47.351  1.00  0.00     0.034 C 
HETATM   34  C   UNL     1      22.415  40.635  47.561  1.00  0.00     0.010 C 
ENDBRANCH  30  33
ENDBRANCH   1  27
TORSDOF 9
ENDMDL
MODEL 6
REMARK VINA RESULT:      -7.5      2.243      7.967
REMARK  9 active torsions:
REMARK  status: ('A' for Active; 'I' for Inactive)
REMARK    1  A    between atoms: C_2  and  C_3 
REMARK    2  A    between atoms: C_6  and  N_7 
REMARK    3  A    between atoms: C_8  and  C_10 
REMARK    4  A    between atoms: C_8  and  O_9 
REMARK       I    between atoms: C_10  and  N_11 
REMARK    5  A    between atoms: N_11  and  C_12 
REMARK    6  A    between atoms: C_12  and  C_13 
REMARK    7  A    between atoms: C_13  and  N_14 
REMARK    8  A    between atoms: N_14  and  C_16 
REMARK    9  A    between atoms: N_14  and  C_18 
ROOT
HETATM    1  N   UNL     1      25.786  41.964  50.662  1.00  0.00    -0.254 N 
HETATM    2  C   UNL     1      25.989  43.176  51.485  1.00  0.00     0.256 C 
HETATM    3  C   UNL     1      27.114  43.095  52.494  1.00  0.00     0.034 A 
HETATM    4  C   UNL     1      27.758  41.886  52.695  1.00  0.00     0.048 A 
HETATM    5  N   UNL     1      27.342  40.781  51.976  1.00  0.00    -0.308 N 
HETATM    6  C   UNL     1      26.385  40.760  51.012  1.00  0.00     0.330 C 
HETATM    7  O   UNL     1      26.134  39.667  50.506  1.00  0.00    -0.246 OA
HETATM    8  C   UNL     1      27.502  44.195  53.283  1.00  0.00     0.015 A 
HETATM    9  C   UNL     1      28.544  44.081  54.206  1.00  0.00     0.001 A 
HETATM   10  C   UNL     1      29.194  42.862  54.372  1.00  0.00     0.002 A 
HETATM   11  C   UNL     1      28.794  41.757  53.624  1.00  0.00     0.030 A 
HETATM   12  H   UNL     1      27.753  39.874  52.169  1.00  0.00     0.170 HD
ENDROOT
BRANCH   2  13
HETATM   13  C   UNL     1      26.325  44.430  50.525  1.00  0.00     0.279 C 
HETATM   14  N   UNL     1      25.406  45.463  50.524  1.00  0.00    -0.355 N 
HETATM   15  H   UNL     1      24.596  45.336  51.129  1.00  0.00     0.162 HD
HETATM   16  O   UNL     1      27.297  44.456  49.765  1.00  0.00    -0.268 OA
BRANCH  14  17
HETATM   17  C   UNL     1      25.481  46.720  49.789  1.00  0.00     0.150 C 
BRANCH  17  18
HETATM   18  C   UNL     1      24.325  47.733  49.948  1.00  0.00     0.254 C 
BRANCH  18  19
HETATM   19  N   UNL     1      23.996  48.502  48.677  1.00  0.00    -0.070 N 
HETATM   20  H   UNL     1      24.523  47.982  47.940  1.00  0.00     0.279 HD
BRANCH  19  21
HETATM   21  C   UNL     1      22.562  48.437  48.205  1.00  0.00     0.230 C 
HETATM   22  C   UNL     1      21.987  47.037  48.311  1.00  0.00     0.034 C 
ENDBRANCH  19  21
BRANCH  19  23
HETATM   23  C   UNL     1      24.552  49.909  48.657  1.00  0.00     0.230 C 
HETATM   24  C   UNL     1      25.944  49.943  48.051  1.00  0.00     0.034 C 
ENDBRANCH  19  23
ENDBRANCH  18  19
ENDBRANCH  17  18
ENDBRANCH  14  17
ENDBRANCH   2  13
BRANCH   2  25
HETATM   25  O   UNL     1      24.812  43.363  52.253  1.00  0.00    -0.359 OA
HETATM   26  H   UNL     1      24.432  42.473  52.347  1.00  0.00     0.213 HD
ENDBRANCH   2  25
BRANCH   1  27
HETATM   27  C   UNL     1      24.939  42.040  49.479  1.00  0.00     0.043 A 
HETATM   28  C   UNL     1      25.419  41.733  48.194  1.00  0.00     0.030 A 
HETATM   29  C   UNL     1      24.558  41.665  47.089  1.00  0.00     0.009 A 
HETATM   30  C   UNL     1      23.190  41.901  47.238  1.00  0.00    -0.058 A 
HETATM   31  C   UNL     1      22.702  42.229  48.502  1.00  0.00     0.009 A 
HETATM   32  C   UNL     1      23.565  42.304  49.602  1.00  0.00     0.030 A 
BRANCH  30  33
HETATM   33  C   UNL     1      22.250  41.772  46.065  1.00  0.00     0.034 C 
HETATM   34  C   UNL     1      21.097  42.761  46.168  1.00  0.00     0.010 C 
ENDBRANCH  30  33
ENDBRANCH   1  27
TORSDOF 9
ENDMDL
MODEL 7
REMARK VINA RESULT:      -7.5     12.795     15.159
REMARK  9 active torsions:
REMARK  status: ('A' for Active; 'I' for Inactive)
REMARK    1  A    between atoms: C_2  and  C_3 
REMARK    2  A    between atoms: C_6  and  N_7 
REMARK    3  A    between atoms: C_8  and  C_10 
REMARK    4  A    between atoms: C_8  and  O_9 
REMARK       I    between atoms: C_10  and  N_11 
REMARK    5  A    between atoms: N_11  and  C_12 
REMARK    6  A    between atoms: C_12  and  C_13 
REMARK    7  A    between atoms: C_13  and  N_14 
REMARK    8  A    between atoms: N_14  and  C_16 
REMARK    9  A    between atoms: N_14  and  C_18 
ROOT
HETATM    1  N   UNL     1      32.349  49.531  40.731  1.00  0.00    -0.254 N 
HETATM    2  C   UNL     1      32.455  50.957  40.353  1.00  0.00     0.256 C 
HETATM    3  C   UNL     1      33.858  51.454  40.076  1.00  0.00     0.034 A 
HETATM    4  C   UNL     1      34.934  50.624  40.340  1.00  0.00     0.048 A 
HETATM    5  N   UNL     1      34.695  49.367  40.865  1.00  0.00    -0.308 N 
HETATM    6  C   UNL     1      33.478  48.809  41.096  1.00  0.00     0.330 C 
HETATM    7  O   UNL     1      33.473  47.686  41.598  1.00  0.00    -0.246 OA
HETATM    8  C   UNL     1      34.120  52.755  39.608  1.00  0.00     0.015 A 
HETATM    9  C   UNL     1      35.429  53.178  39.366  1.00  0.00     0.001 A 
HETATM   10  C   UNL     1      36.493  52.317  39.615  1.00  0.00     0.002 A 
HETATM   11  C   UNL     1      36.248  51.040  40.114  1.00  0.00     0.030 A 
HETATM   12  H   UNL     1      35.476  48.779  41.134  1.00  0.00     0.170 HD
ENDROOT
BRANCH   2  13
HETATM   13  C   UNL     1      31.603  51.222  39.007  1.00  0.00     0.279 C 
HETATM   14  N   UNL     1      30.448  51.968  39.151  1.00  0.00    -0.355 N 
HETATM   15  H   UNL     1      30.238  52.281  40.098  1.00  0.00     0.162 HD
HETATM   16  O   UNL     1      31.898  50.731  37.913  1.00  0.00    -0.268 OA
BRANCH  14  17
HETATM   17  C   UNL     1      29.522  52.387  38.105  1.00  0.00     0.150 C 
BRANCH  17  18
HETATM   18  C   UNL     1      28.032  52.001  38.246  1.00  0.00     0.254 C 
BRANCH  18  19
HETATM   19  N   UNL     1      27.799  50.688  38.978  1.00  0.00    -0.070 N 
HETATM   20  H   UNL     1      28.761  50.397  39.259  1.00  0.00     0.279 HD
BRANCH  19  21
HETATM   21  C   UNL     1      27.053  50.774  40.289  1.00  0.00     0.230 C 
HETATM   22  C   UNL     1      27.628  51.837  41.206  1.00  0.00     0.034 C 
ENDBRANCH  19  21
BRANCH  19  23
HETATM   23  C   UNL     1      27.283  49.580  38.087  1.00  0.00     0.230 C 
HETATM   24  C   UNL     1      25.977  49.012  38.614  1.00  0.00     0.034 C 
ENDBRANCH  19  23
ENDBRANCH  18  19
ENDBRANCH  17  18
ENDBRANCH  14  17
ENDBRANCH   2  13
BRANCH   2  25
HETATM   25  O   UNL     1      32.000  51.720  41.458  1.00  0.00    -0.359 OA
HETATM   26  H   UNL     1      31.043  51.816  41.316  1.00  0.00     0.213 HD
ENDBRANCH   2  25
BRANCH   1  27
HETATM   27  C   UNL     1      31.042  48.889  40.729  1.00  0.00     0.043 A 
HETATM   28  C   UNL     1      30.655  47.979  39.730  1.00  0.00     0.030 A 
HETATM   29  C   UNL     1      29.457  47.257  39.822  1.00  0.00     0.009 A 
HETATM   30  C   UNL     1      28.609  47.423  40.918  1.00  0.00    -0.058 A 
HETATM   31  C   UNL     1      28.967  48.339  41.907  1.00  0.00     0.009 A 
HETATM   32  C   UNL     1      30.160  49.064  41.809  1.00  0.00     0.030 A 
BRANCH  30  33
HETATM   33  C   UNL     1      27.348  46.607  41.052  1.00  0.00     0.034 C 
HETATM   34  C   UNL     1      27.554  45.183  40.553  1.00  0.00     0.010 C 
ENDBRANCH  30  33
ENDBRANCH   1  27
TORSDOF 9
ENDMDL
MODEL 8
REMARK VINA RESULT:      -7.5      1.506      5.887
REMARK  9 active torsions:
REMARK  status: ('A' for Active; 'I' for Inactive)
REMARK    1  A    between atoms: C_2  and  C_3 
REMARK    2  A    between atoms: C_6  and  N_7 
REMARK    3  A    between atoms: C_8  and  C_10 
REMARK    4  A    between atoms: C_8  and  O_9 
REMARK       I    between atoms: C_10  and  N_11 
REMARK    5  A    between atoms: N_11  and  C_12 
REMARK    6  A    between atoms: C_12  and  C_13 
REMARK    7  A    between atoms: C_13  and  N_14 
REMARK    8  A    between atoms: N_14  and  C_16 
REMARK    9  A    between atoms: N_14  and  C_18 
ROOT
HETATM    1  N   UNL     1      25.877  43.977  51.410  1.00  0.00    -0.254 N 
HETATM    2  C   UNL     1      27.260  43.512  51.173  1.00  0.00     0.256 C 
HETATM    3  C   UNL     1      28.144  43.445  52.401  1.00  0.00     0.034 A 
HETATM    4  C   UNL     1      27.676  43.955  53.600  1.00  0.00     0.048 A 
HETATM    5  N   UNL     1      26.418  44.528  53.636  1.00  0.00    -0.308 N 
HETATM    6  C   UNL     1      25.530  44.588  52.610  1.00  0.00     0.330 C 
HETATM    7  O   UNL     1      24.469  45.168  52.832  1.00  0.00    -0.246 OA
HETATM    8  C   UNL     1      29.453  42.928  52.363  1.00  0.00     0.015 A 
HETATM    9  C   UNL     1      30.239  42.884  53.516  1.00  0.00     0.001 A 
HETATM   10  C   UNL     1      29.738  43.381  54.716  1.00  0.00     0.002 A 
HETATM   11  C   UNL     1      28.458  43.928  54.758  1.00  0.00     0.030 A 
HETATM   12  H   UNL     1      26.095  44.974  54.488  1.00  0.00     0.170 HD
ENDROOT
BRANCH   2  13
HETATM   13  C   UNL     1      27.229  42.022  50.551  1.00  0.00     0.279 C 
HETATM   14  N   UNL     1      27.482  41.920  49.196  1.00  0.00    -0.355 N 
HETATM   15  H   UNL     1      27.663  42.798  48.711  1.00  0.00     0.162 HD
HETATM   16  O   UNL     1      26.920  41.023  51.207  1.00  0.00    -0.268 OA
BRANCH  14  17
HETATM   17  C   UNL     1      27.556  40.705  48.393  1.00  0.00     0.150 C 
BRANCH  17  18
HETATM   18  C   UNL     1      28.856  39.870  48.442  1.00  0.00     0.254 C 
BRANCH  18  19
HETATM   19  N   UNL     1      28.725  38.566  49.215  1.00  0.00    -0.070 N 
HETATM   20  H   UNL     1      28.236  38.855  50.091  1.00  0.00     0.279 HD
BRANCH  19  21
HETATM   21  C   UNL     1      27.808  37.523  48.620  1.00  0.00     0.230 C 
HETATM   22  C   UNL     1      26.675  37.154  49.558  1.00  0.00     0.034 C 
ENDBRANCH  19  21
BRANCH  19  23
HETATM   23  C   UNL     1      30.051  37.990  49.661  1.00  0.00     0.230 C 
HETATM   24  C   UNL     1      30.025  37.624  51.135  1.00  0.00     0.034 C 
ENDBRANCH  19  23
ENDBRANCH  18  19
ENDBRANCH  17  18
ENDBRANCH  14  17
ENDBRANCH   2  13
BRANCH   2  25
HETATM   25  O   UNL     1      27.881  44.458  50.319  1.00  0.00    -0.359 OA
HETATM   26  H   UNL     1      27.907  45.280  50.837  1.00  0.00     0.213 HD
ENDBRANCH   2  25
BRANCH   1  27
HETATM   27  C   UNL     1      24.877  43.799  50.367  1.00  0.00     0.043 A 
HETATM   28  C   UNL     1      23.902  42.788  50.428  1.00  0.00     0.030 A 
HETATM   29  C   UNL     1      22.857  42.723  49.496  1.00  0.00     0.009 A 
HETATM   30  C   UNL     1      22.755  43.668  48.475  1.00  0.00    -0.058 A 
HETATM   31  C   UNL     1      23.727  44.664  48.386  1.00  0.00     0.009 A 
HETATM   32  C   UNL     1      24.774  44.723  49.314  1.00  0.00     0.030 A 
BRANCH  30  33
HETATM   33  C   UNL     1      21.601  43.638  47.504  1.00  0.00     0.034 C 
HETATM   34  C   UNL     1      20.903  44.989  47.430  1.00  0.00     0.010 C 
ENDBRANCH  30  33
ENDBRANCH   1  27
TORSDOF 9
ENDMDL
MODEL 9
REMARK VINA RESULT:      -7.5     11.661     13.688
REMARK  9 active torsions:
REMARK  status: ('A' for Active; 'I' for Inactive)
REMARK    1  A    between atoms: C_2  and  C_3 
REMARK    2  A    between atoms: C_6  and  N_7 
REMARK    3  A    between atoms: C_8  and  C_10 
REMARK    4  A    between atoms: C_8  and  O_9 
REMARK       I    between atoms: C_10  and  N_11 
REMARK    5  A    between atoms: N_11  and  C_12 
REMARK    6  A    between atoms: C_12  and  C_13 
REMARK    7  A    between atoms: C_13  and  N_14 
REMARK    8  A    between atoms: N_14  and  C_16 
REMARK    9  A    between atoms: N_14  and  C_18 
ROOT
HETATM    1  N   UNL     1      26.686  48.784  39.941  1.00  0.00    -0.254 N 
HETATM    2  C   UNL     1      27.490  47.615  40.357  1.00  0.00     0.256 C 
HETATM    3  C   UNL     1      26.910  46.264  39.996  1.00  0.00     0.034 A 
HETATM    4  C   UNL     1      25.633  46.196  39.463  1.00  0.00     0.048 A 
HETATM    5  N   UNL     1      24.919  47.368  39.292  1.00  0.00    -0.308 N 
HETATM    6  C   UNL     1      25.367  48.628  39.531  1.00  0.00     0.330 C 
HETATM    7  O   UNL     1      24.567  49.543  39.345  1.00  0.00    -0.246 OA
HETATM    8  C   UNL     1      27.598  45.058  40.229  1.00  0.00     0.015 A 
HETATM    9  C   UNL     1      27.029  43.831  39.884  1.00  0.00     0.001 A 
HETATM   10  C   UNL     1      25.754  43.790  39.327  1.00  0.00     0.002 A 
HETATM   11  C   UNL     1      25.048  44.974  39.125  1.00  0.00     0.030 A 
HETATM   12  H   UNL     1      23.956  47.326  38.976  1.00  0.00     0.170 HD
ENDROOT
BRANCH   2  13
HETATM   13  C   UNL     1      28.946  47.687  39.661  1.00  0.00     0.279 C 
HETATM   14  N   UNL     1      30.033  47.675  40.515  1.00  0.00    -0.355 N 
HETATM   15  H   UNL     1      29.815  47.624  41.509  1.00  0.00     0.162 HD
HETATM   16  O   UNL     1      29.106  47.827  38.445  1.00  0.00    -0.268 OA
BRANCH  14  17
HETATM   17  C   UNL     1      31.446  47.689  40.157  1.00  0.00     0.150 C 
BRANCH  17  18
HETATM   18  C   UNL     1      32.424  48.478  41.057  1.00  0.00     0.254 C 
BRANCH  18  19
HETATM   19  N   UNL     1      32.734  49.880  40.554  1.00  0.00    -0.070 N 
HETATM   20  H   UNL     1      33.635  49.757  40.041  1.00  0.00     0.279 HD
BRANCH  19  21
HETATM   21  C   UNL     1      31.799  50.439  39.506  1.00  0.00     0.230 C 
HETATM   22  C   UNL     1      32.528  51.282  38.478  1.00  0.00     0.034 C 
ENDBRANCH  19  21
BRANCH  19  23
HETATM   23  C   UNL     1      33.027  50.871  41.659  1.00  0.00     0.230 C 
HETATM   24  C   UNL     1      32.032  50.737  42.798  1.00  0.00     0.034 C 
ENDBRANCH  19  23
ENDBRANCH  18  19
ENDBRANCH  17  18
ENDBRANCH  14  17
ENDBRANCH   2  13
BRANCH   2  25
HETATM   25  O   UNL     1      27.550  47.628  41.773  1.00  0.00    -0.359 OA
HETATM   26  H   UNL     1      26.735  48.079  42.052  1.00  0.00     0.213 HD
ENDBRANCH   2  25
BRANCH   1  27
HETATM   27  C   UNL     1      27.286  50.110  39.976  1.00  0.00     0.043 A 
HETATM   28  C   UNL     1      27.704  50.712  41.176  1.00  0.00     0.030 A 
HETATM   29  C   UNL     1      28.415  51.920  41.179  1.00  0.00     0.009 A 
HETATM   30  C   UNL     1      28.730  52.563  39.981  1.00  0.00    -0.058 A 
HETATM   31  C   UNL     1      28.302  51.991  38.783  1.00  0.00     0.009 A 
HETATM   32  C   UNL     1      27.587  50.788  38.783  1.00  0.00     0.030 A 
BRANCH  30  33
HETATM   33  C   UNL     1      29.544  53.833  39.975  1.00  0.00     0.034 C 
HETATM   34  C   UNL     1      30.761  53.716  40.882  1.00  0.00     0.010 C 
ENDBRANCH  30  33
ENDBRANCH   1  27
TORSDOF 9
ENDMDL
MODEL 10
REMARK VINA RESULT:      -7.4     16.853     19.205
REMARK  9 active torsions:
REMARK  status: ('A' for Active; 'I' for Inactive)
REMARK    1  A    between atoms: C_2  and  C_3 
REMARK    2  A    between atoms: C_6  and  N_7 
REMARK    3  A    between atoms: C_8  and  C_10 
REMARK    4  A    between atoms: C_8  and  O_9 
REMARK       I    between atoms: C_10  and  N_11 
REMARK    5  A    between atoms: N_11  and  C_12 
REMARK    6  A    between atoms: C_12  and  C_13 
REMARK    7  A    between atoms: C_13  and  N_14 
REMARK    8  A    between atoms: N_14  and  C_16 
REMARK    9  A    between atoms: N_14  and  C_18 
ROOT
HETATM    1  N   UNL     1      37.125  43.609  64.774  1.00  0.00    -0.254 N 
HETATM    2  C   UNL     1      37.736  44.907  64.416  1.00  0.00     0.256 C 
HETATM    3  C   UNL     1      37.231  46.101  65.198  1.00  0.00     0.034 A 
HETATM    4  C   UNL     1      36.155  45.943  66.056  1.00  0.00     0.048 A 
HETATM    5  N   UNL     1      35.562  44.698  66.160  1.00  0.00    -0.308 N 
HETATM    6  C   UNL     1      35.971  43.557  65.547  1.00  0.00     0.330 C 
HETATM    7  O   UNL     1      35.290  42.551  65.742  1.00  0.00    -0.246 OA
HETATM    8  C   UNL     1      37.780  47.389  65.050  1.00  0.00     0.015 A 
HETATM    9  C   UNL     1      37.286  48.467  65.788  1.00  0.00     0.001 A 
HETATM   10  C   UNL     1      36.221  48.278  66.663  1.00  0.00     0.002 A 
HETATM   11  C   UNL     1      35.645  47.016  66.790  1.00  0.00     0.030 A 
HETATM   12  H   UNL     1      34.727  44.587  66.725  1.00  0.00     0.170 HD
ENDROOT
BRANCH   2  13
HETATM   13  C   UNL     1      39.330  44.840  64.664  1.00  0.00     0.279 C 
HETATM   14  N   UNL     1      39.737  44.568  65.957  1.00  0.00    -0.355 N 
HETATM   15  H   UNL     1      38.990  44.438  66.638  1.00  0.00     0.162 HD
HETATM   16  O   UNL     1      40.160  45.091  63.786  1.00  0.00    -0.268 OA
BRANCH  14  17
HETATM   17  C   UNL     1      41.101  44.412  66.447  1.00  0.00     0.150 C 
BRANCH  17  18
HETATM   18  C   UNL     1      41.894  45.682  66.830  1.00  0.00     0.254 C 
BRANCH  18  19
HETATM   19  N   UNL     1      42.093  46.658  65.679  1.00  0.00    -0.070 N 
HETATM   20  H   UNL     1      41.665  46.161  64.867  1.00  0.00     0.279 HD
BRANCH  19  21
HETATM   21  C   UNL     1      41.319  47.953  65.756  1.00  0.00     0.230 C 
HETATM   22  C   UNL     1      40.843  48.253  67.165  1.00  0.00     0.034 C 
ENDBRANCH  19  21
BRANCH  19  23
HETATM   23  C   UNL     1      43.545  46.869  65.307  1.00  0.00     0.230 C 
HETATM   24  C   UNL     1      43.898  46.132  64.027  1.00  0.00     0.034 C 
ENDBRANCH  19  23
ENDBRANCH  18  19
ENDBRANCH  17  18
ENDBRANCH  14  17
ENDBRANCH   2  13
BRANCH   2  25
HETATM   25  O   UNL     1      37.393  45.174  63.067  1.00  0.00    -0.359 OA
HETATM   26  H   UNL     1      36.434  45.025  63.020  1.00  0.00     0.213 HD
ENDBRANCH   2  25
BRANCH   1  27
HETATM   27  C   UNL     1      37.740  42.377  64.299  1.00  0.00     0.043 A 
HETATM   28  C   UNL     1      38.076  42.181  62.948  1.00  0.00     0.030 A 
HETATM   29  C   UNL     1      38.802  41.057  62.531  1.00  0.00     0.009 A 
HETATM   30  C   UNL     1      39.213  40.093  63.453  1.00  0.00    -0.058 A 
HETATM   31  C   UNL     1      38.867  40.261  64.794  1.00  0.00     0.009 A 
HETATM   32  C   UNL     1      38.137  41.382  65.207  1.00  0.00     0.030 A 
BRANCH  30  33
HETATM   33  C   UNL     1      40.043  38.911  63.020  1.00  0.00     0.034 C 
HETATM   34  C   UNL     1      41.006  38.478  64.117  1.00  0.00     0.010 C 
ENDBRANCH  30  33
ENDBRANCH   1  27
TORSDOF 9
ENDMDL
