MODEL 1
REMARK VINA RESULT:      -9.7      0.000      0.000
REMARK  4 active torsions:
REMARK  status: ('A' for Active; 'I' for Inactive)
REMARK    1  A    between atoms: C_2  and  C_3 
REMARK    2  A    between atoms: C_3  and  N_4 
REMARK    3  A    between atoms: C_3  and  C_18 
REMARK       I    between atoms: N_4  and  C_5 
REMARK    4  A    between atoms: C_5  and  C_6 
ROOT
HETATM    1  N   UNL     1      25.705  45.346  51.752  1.00  0.00    -0.344 N 
HETATM    2  C   UNL     1      25.600  44.818  53.017  1.00  0.00     0.273 C 
HETATM    3  O   UNL     1      24.655  44.158  53.423  1.00  0.00    -0.266 OA
HETATM    4  H   UNL     1      26.347  46.129  51.664  1.00  0.00     0.163 HD
ENDROOT
BRANCH   1   5
HETATM    5  C   UNL     1      24.647  45.203  50.763  1.00  0.00     0.158 C 
BRANCH   5   6
HETATM    6  C   UNL     1      24.907  44.027  49.785  1.00  0.00     0.008 C 
HETATM    7  C   UNL     1      24.146  42.775  50.238  1.00  0.00     0.012 C 
HETATM    8  C   UNL     1      26.387  43.674  49.595  1.00  0.00     0.012 C 
ENDBRANCH   5   6
BRANCH   5   9
HETATM    9  C   UNL     1      24.433  46.522  50.063  1.00  0.00     0.128 A 
HETATM   10  N   UNL     1      25.314  47.478  49.834  1.00  0.00    -0.231 NA
HETATM   11  C   UNL     1      24.638  48.451  49.140  1.00  0.00     0.085 A 
HETATM   12  C   UNL     1      23.313  48.088  48.937  1.00  0.00     0.062 A 
HETATM   13  C   UNL     1      25.094  49.683  48.647  1.00  0.00     0.034 A 
HETATM   14  N   UNL     1      23.213  46.850  49.514  1.00  0.00    -0.341 N 
HETATM   15  C   UNL     1      22.389  48.894  48.270  1.00  0.00     0.032 A 
HETATM   16  H   UNL     1      22.385  46.268  49.557  1.00  0.00     0.167 HD
HETATM   17  C   UNL     1      22.860  50.122  47.789  1.00  0.00     0.002 A 
HETATM   18  C   UNL     1      24.190  50.510  47.969  1.00  0.00     0.002 A 
ENDBRANCH   5   9
ENDBRANCH   1   5
BRANCH   2  19
HETATM   19  C   UNL     1      26.748  45.209  53.945  1.00  0.00     0.155 A 
HETATM   20  N   UNL     1      26.572  46.309  54.624  1.00  0.00    -0.166 NA
HETATM   21  N   UNL     1      27.551  46.684  55.492  1.00  0.00    -0.242 N 
HETATM   22  C   UNL     1      28.709  45.992  55.756  1.00  0.00     0.272 A 
HETATM   23  H   UNL     1      27.384  47.530  56.033  1.00  0.00     0.192 HD
HETATM   24  O   UNL     1      29.526  46.371  56.586  1.00  0.00    -0.266 OA
HETATM   25  C   UNL     1      28.925  44.765  54.970  1.00  0.00     0.046 A 
HETATM   26  C   UNL     1      27.961  44.371  54.042  1.00  0.00     0.016 A 
HETATM   27  C   UNL     1      30.095  44.016  55.144  1.00  0.00     0.018 A 
HETATM   28  C   UNL     1      28.186  43.233  53.260  1.00  0.00     0.015 A 
HETATM   29  C   UNL     1      29.356  42.486  53.432  1.00  0.00     0.001 A 
HETATM   30  C   UNL     1      30.306  42.873  54.375  1.00  0.00     0.001 A 
ENDBRANCH   2  19
TORSDOF 4
ENDMDL
MODEL 2
REMARK VINA RESULT:      -9.1      1.769      2.795
REMARK  4 active torsions:
REMARK  status: ('A' for Active; 'I' for Inactive)
REMARK    1  A    between atoms: C_2  and  C_3 
REMARK    2  A    between atoms: C_3  and  N_4 
REMARK    3  A    between atoms: C_3  and  C_18 
REMARK       I    between atoms: N_4  and  C_5 
REMARK    4  A    between atoms: C_5  and  C_6 
ROOT
HETATM    1  N   UNL     1      25.667  44.441  51.754  1.00  0.00    -0.344 N 
HETATM    2  C   UNL     1      25.653  44.097  53.085  1.00  0.00     0.273 C 
HETATM    3  O   UNL     1      24.665  44.122  53.803  1.00  0.00    -0.266 OA
HETATM    4  H   UNL     1      26.579  44.700  51.386  1.00  0.00     0.163 HD
ENDROOT
BRANCH   1   5
HETATM    5  C   UNL     1      24.479  44.927  51.068  1.00  0.00     0.158 C 
BRANCH   5   6
HETATM    6  C   UNL     1      23.854  43.855  50.137  1.00  0.00     0.008 C 
HETATM    7  C   UNL     1      24.627  43.776  48.814  1.00  0.00     0.012 C 
HETATM    8  C   UNL     1      22.365  44.064  49.837  1.00  0.00     0.012 C 
ENDBRANCH   5   6
BRANCH   5   9
HETATM    9  C   UNL     1      24.804  46.216  50.355  1.00  0.00     0.128 A 
HETATM   10  N   UNL     1      23.971  47.091  49.825  1.00  0.00    -0.231 NA
HETATM   11  C   UNL     1      24.754  48.102  49.326  1.00  0.00     0.085 A 
HETATM   12  C   UNL     1      26.101  47.846  49.554  1.00  0.00     0.062 A 
HETATM   13  C   UNL     1      24.384  49.280  48.662  1.00  0.00     0.034 A 
HETATM   14  N   UNL     1      26.105  46.653  50.226  1.00  0.00    -0.341 N 
HETATM   15  C   UNL     1      27.125  48.699  49.142  1.00  0.00     0.032 A 
HETATM   16  H   UNL     1      26.919  46.151  50.562  1.00  0.00     0.167 HD
HETATM   17  C   UNL     1      26.737  49.869  48.476  1.00  0.00     0.002 A 
HETATM   18  C   UNL     1      25.391  50.158  48.242  1.00  0.00     0.002 A 
ENDBRANCH   5   9
ENDBRANCH   1   5
BRANCH   2  19
HETATM   19  C   UNL     1      27.032  43.759  53.648  1.00  0.00     0.155 A 
HETATM   20  N   UNL     1      27.499  42.586  53.321  1.00  0.00    -0.166 NA
HETATM   21  N   UNL     1      28.740  42.248  53.768  1.00  0.00    -0.242 N 
HETATM   22  C   UNL     1      29.578  43.045  54.512  1.00  0.00     0.272 A 
HETATM   23  H   UNL     1      29.100  41.341  53.481  1.00  0.00     0.192 HD
HETATM   24  O   UNL     1      30.702  42.687  54.842  1.00  0.00    -0.266 OA
HETATM   25  C   UNL     1      29.041  44.358  54.908  1.00  0.00     0.046 A 
HETATM   26  C   UNL     1      27.758  44.722  54.501  1.00  0.00     0.016 A 
HETATM   27  C   UNL     1      29.810  45.221  55.700  1.00  0.00     0.018 A 
HETATM   28  C   UNL     1      27.228  45.948  54.916  1.00  0.00     0.015 A 
HETATM   29  C   UNL     1      27.994  46.810  55.709  1.00  0.00     0.001 A 
HETATM   30  C   UNL     1      29.283  46.449  56.095  1.00  0.00     0.001 A 
ENDBRANCH   2  19
TORSDOF 4
ENDMDL
MODEL 3
REMARK VINA RESULT:      -9.0      2.400      7.666
REMARK  4 active torsions:
REMARK  status: ('A' for Active; 'I' for Inactive)
REMARK    1  A    between atoms: C_2  and  C_3 
REMARK    2  A    between atoms: C_3  and  N_4 
REMARK    3  A    between atoms: C_3  and  C_18 
REMARK       I    between atoms: N_4  and  C_5 
REMARK    4  A    between atoms: C_5  and  C_6 
ROOT
HETATM    1  N   UNL     1      26.891  44.653  51.687  1.00  0.00    -0.344 N 
HETATM    2  C   UNL     1      26.715  44.838  50.336  1.00  0.00     0.273 C 
HETATM    3  O   UNL     1      27.352  44.267  49.463  1.00  0.00    -0.266 OA
HETATM    4  H   UNL     1      26.555  45.412  52.273  1.00  0.00     0.163 HD
ENDROOT
BRANCH   1   5
HETATM    5  C   UNL     1      27.918  43.769  52.219  1.00  0.00     0.158 C 
BRANCH   5   6
HETATM    6  C   UNL     1      27.448  42.292  52.286  1.00  0.00     0.008 C 
HETATM    7  C   UNL     1      27.880  41.650  53.610  1.00  0.00     0.012 C 
HETATM    8  C   UNL     1      27.935  41.417  51.123  1.00  0.00     0.012 C 
ENDBRANCH   5   6
BRANCH   5   9
HETATM    9  C   UNL     1      28.397  44.300  53.547  1.00  0.00     0.128 A 
HETATM   10  N   UNL     1      27.801  45.166  54.345  1.00  0.00    -0.231 NA
HETATM   11  C   UNL     1      28.622  45.296  55.438  1.00  0.00     0.085 A 
HETATM   12  C   UNL     1      29.748  44.492  55.312  1.00  0.00     0.062 A 
HETATM   13  C   UNL     1      28.469  46.087  56.586  1.00  0.00     0.034 A 
HETATM   14  N   UNL     1      29.572  43.854  54.113  1.00  0.00    -0.341 N 
HETATM   15  C   UNL     1      30.760  44.433  56.271  1.00  0.00     0.032 A 
HETATM   16  H   UNL     1      30.198  43.181  53.689  1.00  0.00     0.167 HD
HETATM   17  C   UNL     1      30.594  45.233  57.408  1.00  0.00     0.002 A 
HETATM   18  C   UNL     1      29.468  46.044  57.567  1.00  0.00     0.002 A 
ENDBRANCH   5   9
ENDBRANCH   1   5
BRANCH   2  19
HETATM   19  C   UNL     1      25.692  45.917  49.990  1.00  0.00     0.155 A 
HETATM   20  N   UNL     1      24.442  45.563  50.105  1.00  0.00    -0.166 NA
HETATM   21  N   UNL     1      23.488  46.499  49.842  1.00  0.00    -0.242 N 
HETATM   22  C   UNL     1      23.714  47.810  49.497  1.00  0.00     0.272 A 
HETATM   23  H   UNL     1      22.519  46.213  49.963  1.00  0.00     0.192 HD
HETATM   24  O   UNL     1      22.802  48.608  49.318  1.00  0.00    -0.266 OA
HETATM   25  C   UNL     1      25.124  48.205  49.338  1.00  0.00     0.046 A 
HETATM   26  C   UNL     1      26.126  47.262  49.561  1.00  0.00     0.016 A 
HETATM   27  C   UNL     1      25.447  49.512  48.951  1.00  0.00     0.018 A 
HETATM   28  C   UNL     1      27.464  47.622  49.363  1.00  0.00     0.015 A 
HETATM   29  C   UNL     1      27.788  48.926  48.974  1.00  0.00     0.001 A 
HETATM   30  C   UNL     1      26.783  49.870  48.773  1.00  0.00     0.001 A 
ENDBRANCH   2  19
TORSDOF 4
ENDMDL
MODEL 4
REMARK VINA RESULT:      -8.8      2.553      7.728
REMARK  4 active torsions:
REMARK  status: ('A' for Active; 'I' for Inactive)
REMARK    1  A    between atoms: C_2  and  C_3 
REMARK    2  A    between atoms: C_3  and  N_4 
REMARK    3  A    between atoms: C_3  and  C_18 
REMARK       I    between atoms: N_4  and  C_5 
REMARK    4  A    between atoms: C_5  and  C_6 
ROOT
HETATM    1  N   UNL     1      26.849  45.408  51.192  1.00  0.00    -0.344 N 
HETATM    2  C   UNL     1      26.665  45.593  49.841  1.00  0.00     0.273 C 
HETATM    3  O   UNL     1      26.585  44.695  49.017  1.00  0.00    -0.266 OA
HETATM    4  H   UNL     1      27.231  46.208  51.688  1.00  0.00     0.163 HD
ENDROOT
BRANCH   1   5
HETATM    5  C   UNL     1      27.016  44.085  51.775  1.00  0.00     0.158 C 
BRANCH   5   6
HETATM    6  C   UNL     1      25.659  43.409  52.105  1.00  0.00     0.008 C 
HETATM    7  C   UNL     1      25.324  42.339  51.058  1.00  0.00     0.012 C 
HETATM    8  C   UNL     1      24.478  44.380  52.226  1.00  0.00     0.012 C 
ENDBRANCH   5   6
BRANCH   5   9
HETATM    9  C   UNL     1      27.939  44.175  52.964  1.00  0.00     0.128 A 
HETATM   10  N   UNL     1      28.936  43.373  53.289  1.00  0.00    -0.231 NA
HETATM   11  C   UNL     1      29.483  43.899  54.433  1.00  0.00     0.085 A 
HETATM   12  C   UNL     1      28.810  45.050  54.823  1.00  0.00     0.062 A 
HETATM   13  C   UNL     1      30.565  43.444  55.202  1.00  0.00     0.034 A 
HETATM   14  N   UNL     1      27.847  45.216  53.863  1.00  0.00    -0.341 N 
HETATM   15  C   UNL     1      29.143  45.787  55.960  1.00  0.00     0.032 A 
HETATM   16  H   UNL     1      27.162  45.961  53.817  1.00  0.00     0.167 HD
HETATM   17  C   UNL     1      30.223  45.316  56.718  1.00  0.00     0.002 A 
HETATM   18  C   UNL     1      30.925  44.167  56.346  1.00  0.00     0.002 A 
ENDBRANCH   5   9
ENDBRANCH   1   5
BRANCH   2  19
HETATM   19  C   UNL     1      26.664  47.060  49.416  1.00  0.00     0.155 A 
HETATM   20  N   UNL     1      27.838  47.578  49.180  1.00  0.00    -0.166 NA
HETATM   21  N   UNL     1      27.890  48.873  48.764  1.00  0.00    -0.242 N 
HETATM   22  C   UNL     1      26.812  49.693  48.529  1.00  0.00     0.272 A 
HETATM   23  H   UNL     1      28.812  49.251  48.559  1.00  0.00     0.192 HD
HETATM   24  O   UNL     1      26.936  50.838  48.112  1.00  0.00    -0.266 OA
HETATM   25  C   UNL     1      25.486  49.120  48.823  1.00  0.00     0.046 A 
HETATM   26  C   UNL     1      25.397  47.809  49.288  1.00  0.00     0.016 A 
HETATM   27  C   UNL     1      24.333  49.896  48.650  1.00  0.00     0.018 A 
HETATM   28  C   UNL     1      24.143  47.281  49.614  1.00  0.00     0.015 A 
HETATM   29  C   UNL     1      22.991  48.056  49.444  1.00  0.00     0.001 A 
HETATM   30  C   UNL     1      23.085  49.358  48.959  1.00  0.00     0.001 A 
ENDBRANCH   2  19
TORSDOF 4
ENDMDL
MODEL 5
REMARK VINA RESULT:      -8.7      3.569      6.349
REMARK  4 active torsions:
REMARK  status: ('A' for Active; 'I' for Inactive)
REMARK    1  A    between atoms: C_2  and  C_3 
REMARK    2  A    between atoms: C_3  and  N_4 
REMARK    3  A    between atoms: C_3  and  C_18 
REMARK       I    between atoms: N_4  and  C_5 
REMARK    4  A    between atoms: C_5  and  C_6 
ROOT
HETATM    1  N   UNL     1      26.188  43.174  50.777  1.00  0.00    -0.344 N 
HETATM    2  C   UNL     1      26.988  44.292  50.811  1.00  0.00     0.273 C 
HETATM    3  O   UNL     1      27.479  44.831  49.831  1.00  0.00    -0.266 OA
HETATM    4  H   UNL     1      26.140  42.653  51.649  1.00  0.00     0.163 HD
ENDROOT
BRANCH   1   5
HETATM    5  C   UNL     1      25.881  42.480  49.535  1.00  0.00     0.158 C 
BRANCH   5   6
HETATM    6  C   UNL     1      24.381  42.098  49.427  1.00  0.00     0.008 C 
HETATM    7  C   UNL     1      23.910  42.184  47.970  1.00  0.00     0.012 C 
HETATM    8  C   UNL     1      23.447  42.938  50.307  1.00  0.00     0.012 C 
ENDBRANCH   5   6
BRANCH   5   9
HETATM    9  C   UNL     1      26.807  41.300  49.379  1.00  0.00     0.128 A 
HETATM   10  N   UNL     1      27.097  40.627  48.282  1.00  0.00    -0.231 NA
HETATM   11  C   UNL     1      28.009  39.671  48.658  1.00  0.00     0.085 A 
HETATM   12  C   UNL     1      28.288  39.757  50.016  1.00  0.00     0.062 A 
HETATM   13  C   UNL     1      28.648  38.688  47.887  1.00  0.00     0.034 A 
HETATM   14  N   UNL     1      27.529  40.812  50.447  1.00  0.00    -0.341 N 
HETATM   15  C   UNL     1      29.172  38.901  50.674  1.00  0.00     0.032 A 
HETATM   16  H   UNL     1      27.478  41.173  51.392  1.00  0.00     0.167 HD
HETATM   17  C   UNL     1      29.797  37.922  49.890  1.00  0.00     0.002 A 
HETATM   18  C   UNL     1      29.544  37.818  48.521  1.00  0.00     0.002 A 
ENDBRANCH   5   9
ENDBRANCH   1   5
BRANCH   2  19
HETATM   19  C   UNL     1      27.309  44.777  52.224  1.00  0.00     0.155 A 
HETATM   20  N   UNL     1      26.551  45.738  52.673  1.00  0.00    -0.166 NA
HETATM   21  N   UNL     1      26.772  46.184  53.941  1.00  0.00    -0.242 N 
HETATM   22  C   UNL     1      27.705  45.691  54.821  1.00  0.00     0.272 A 
HETATM   23  H   UNL     1      26.154  46.915  54.284  1.00  0.00     0.192 HD
HETATM   24  O   UNL     1      27.817  46.115  55.965  1.00  0.00    -0.266 OA
HETATM   25  C   UNL     1      28.583  44.625  54.306  1.00  0.00     0.046 A 
HETATM   26  C   UNL     1      28.410  44.171  52.999  1.00  0.00     0.016 A 
HETATM   27  C   UNL     1      29.588  44.089  55.121  1.00  0.00     0.018 A 
HETATM   28  C   UNL     1      29.274  43.194  52.493  1.00  0.00     0.015 A 
HETATM   29  C   UNL     1      30.280  42.659  53.305  1.00  0.00     0.001 A 
HETATM   30  C   UNL     1      30.434  43.103  54.617  1.00  0.00     0.001 A 
ENDBRANCH   2  19
TORSDOF 4
ENDMDL
MODEL 6
REMARK VINA RESULT:      -8.3      3.321      7.402
REMARK  4 active torsions:
REMARK  status: ('A' for Active; 'I' for Inactive)
REMARK    1  A    between atoms: C_2  and  C_3 
REMARK    2  A    between atoms: C_3  and  N_4 
REMARK    3  A    between atoms: C_3  and  C_18 
REMARK       I    between atoms: N_4  and  C_5 
REMARK    4  A    between atoms: C_5  and  C_6 
ROOT
HETATM    1  N   UNL     1      26.417  43.507  51.149  1.00  0.00    -0.344 N 
HETATM    2  C   UNL     1      25.333  42.689  50.938  1.00  0.00     0.273 C 
HETATM    3  O   UNL     1      24.230  42.845  51.440  1.00  0.00    -0.266 OA
HETATM    4  H   UNL     1      27.321  43.083  50.958  1.00  0.00     0.163 HD
ENDROOT
BRANCH   1   5
HETATM    5  C   UNL     1      26.363  44.645  52.055  1.00  0.00     0.158 C 
BRANCH   5   6
HETATM    6  C   UNL     1      26.375  46.001  51.303  1.00  0.00     0.008 C 
HETATM    7  C   UNL     1      24.993  46.663  51.365  1.00  0.00     0.012 C 
HETATM    8  C   UNL     1      26.823  45.911  49.838  1.00  0.00     0.012 C 
ENDBRANCH   5   6
BRANCH   5   9
HETATM    9  C   UNL     1      27.463  44.523  53.079  1.00  0.00     0.128 A 
HETATM   10  N   UNL     1      28.393  43.591  53.174  1.00  0.00    -0.231 NA
HETATM   11  C   UNL     1      29.171  43.945  54.248  1.00  0.00     0.085 A 
HETATM   12  C   UNL     1      28.712  45.121  54.829  1.00  0.00     0.062 A 
HETATM   13  C   UNL     1      30.295  43.306  54.792  1.00  0.00     0.034 A 
HETATM   14  N   UNL     1      27.640  45.479  54.056  1.00  0.00    -0.341 N 
HETATM   15  C   UNL     1      29.305  45.708  55.948  1.00  0.00     0.032 A 
HETATM   16  H   UNL     1      27.052  46.295  54.179  1.00  0.00     0.167 HD
HETATM   17  C   UNL     1      30.424  45.053  56.480  1.00  0.00     0.002 A 
HETATM   18  C   UNL     1      30.914  43.875  55.912  1.00  0.00     0.002 A 
ENDBRANCH   5   9
ENDBRANCH   1   5
BRANCH   2  19
HETATM   19  C   UNL     1      25.642  41.469  50.072  1.00  0.00     0.155 A 
HETATM   20  N   UNL     1      24.789  41.229  49.115  1.00  0.00    -0.166 NA
HETATM   21  N   UNL     1      25.036  40.173  48.292  1.00  0.00    -0.242 N 
HETATM   22  C   UNL     1      26.131  39.342  48.346  1.00  0.00     0.272 A 
HETATM   23  H   UNL     1      24.375  40.017  47.535  1.00  0.00     0.192 HD
HETATM   24  O   UNL     1      26.308  38.436  47.541  1.00  0.00    -0.266 OA
HETATM   25  C   UNL     1      27.081  39.593  49.444  1.00  0.00     0.046 A 
HETATM   26  C   UNL     1      26.839  40.642  50.330  1.00  0.00     0.016 A 
HETATM   27  C   UNL     1      28.205  38.772  49.600  1.00  0.00     0.018 A 
HETATM   28  C   UNL     1      27.714  40.851  51.401  1.00  0.00     0.015 A 
HETATM   29  C   UNL     1      28.836  40.030  51.560  1.00  0.00     0.001 A 
HETATM   30  C   UNL     1      29.083  38.996  50.659  1.00  0.00     0.001 A 
ENDBRANCH   2  19
TORSDOF 4
ENDMDL
MODEL 7
REMARK VINA RESULT:      -8.2      2.872      7.575
REMARK  4 active torsions:
REMARK  status: ('A' for Active; 'I' for Inactive)
REMARK    1  A    between atoms: C_2  and  C_3 
REMARK    2  A    between atoms: C_3  and  N_4 
REMARK    3  A    between atoms: C_3  and  C_18 
REMARK       I    between atoms: N_4  and  C_5 
REMARK    4  A    between atoms: C_5  and  C_6 
ROOT
HETATM    1  N   UNL     1      25.588  45.989  51.838  1.00  0.00    -0.344 N 
HETATM    2  C   UNL     1      24.827  46.261  50.726  1.00  0.00     0.273 C 
HETATM    3  O   UNL     1      23.905  45.567  50.323  1.00  0.00    -0.266 OA
HETATM    4  H   UNL     1      26.500  46.438  51.856  1.00  0.00     0.163 HD
ENDROOT
BRANCH   1   5
HETATM    5  C   UNL     1      25.391  44.787  52.636  1.00  0.00     0.158 C 
BRANCH   5   6
HETATM    6  C   UNL     1      25.963  44.930  54.070  1.00  0.00     0.008 C 
HETATM    7  C   UNL     1      25.213  44.010  55.041  1.00  0.00     0.012 C 
HETATM    8  C   UNL     1      25.948  46.361  54.621  1.00  0.00     0.012 C 
ENDBRANCH   5   6
BRANCH   5   9
HETATM    9  C   UNL     1      25.942  43.596  51.892  1.00  0.00     0.128 A 
HETATM   10  N   UNL     1      27.184  43.151  51.866  1.00  0.00    -0.231 NA
HETATM   11  C   UNL     1      27.164  42.028  51.076  1.00  0.00     0.085 A 
HETATM   12  C   UNL     1      25.882  41.776  50.603  1.00  0.00     0.062 A 
HETATM   13  C   UNL     1      28.210  41.167  50.713  1.00  0.00     0.034 A 
HETATM   14  N   UNL     1      25.121  42.773  51.152  1.00  0.00    -0.341 N 
HETATM   15  C   UNL     1      25.569  40.705  49.765  1.00  0.00     0.032 A 
HETATM   16  H   UNL     1      24.125  42.910  51.029  1.00  0.00     0.167 HD
HETATM   17  C   UNL     1      26.627  39.858  49.409  1.00  0.00     0.002 A 
HETATM   18  C   UNL     1      27.924  40.080  49.877  1.00  0.00     0.002 A 
ENDBRANCH   5   9
ENDBRANCH   1   5
BRANCH   2  19
HETATM   19  C   UNL     1      25.292  47.489  49.947  1.00  0.00     0.155 A 
HETATM   20  N   UNL     1      26.582  47.679  49.917  1.00  0.00    -0.166 NA
HETATM   21  N   UNL     1      27.053  48.740  49.206  1.00  0.00    -0.242 N 
HETATM   22  C   UNL     1      26.297  49.625  48.475  1.00  0.00     0.272 A 
HETATM   23  H   UNL     1      28.063  48.857  49.172  1.00  0.00     0.192 HD
HETATM   24  O   UNL     1      26.796  50.534  47.823  1.00  0.00    -0.266 OA
HETATM   25  C   UNL     1      24.837  49.431  48.531  1.00  0.00     0.046 A 
HETATM   26  C   UNL     1      24.318  48.377  49.281  1.00  0.00     0.016 A 
HETATM   27  C   UNL     1      23.986  50.308  47.847  1.00  0.00     0.018 A 
HETATM   28  C   UNL     1      22.931  48.220  49.375  1.00  0.00     0.015 A 
HETATM   29  C   UNL     1      22.079  49.097  48.695  1.00  0.00     0.001 A 
HETATM   30  C   UNL     1      22.605  50.136  47.930  1.00  0.00     0.001 A 
ENDBRANCH   2  19
TORSDOF 4
ENDMDL
MODEL 8
REMARK VINA RESULT:      -8.2      3.813      7.689
REMARK  4 active torsions:
REMARK  status: ('A' for Active; 'I' for Inactive)
REMARK    1  A    between atoms: C_2  and  C_3 
REMARK    2  A    between atoms: C_3  and  N_4 
REMARK    3  A    between atoms: C_3  and  C_18 
REMARK       I    between atoms: N_4  and  C_5 
REMARK    4  A    between atoms: C_5  and  C_6 
ROOT
HETATM    1  N   UNL     1      27.511  43.047  51.323  1.00  0.00    -0.344 N 
HETATM    2  C   UNL     1      26.787  41.948  50.923  1.00  0.00     0.273 C 
HETATM    3  O   UNL     1      25.588  41.800  51.099  1.00  0.00    -0.266 OA
HETATM    4  H   UNL     1      28.511  42.891  51.422  1.00  0.00     0.163 HD
ENDROOT
BRANCH   1   5
HETATM    5  C   UNL     1      26.905  44.147  52.057  1.00  0.00     0.158 C 
BRANCH   5   6
HETATM    6  C   UNL     1      26.682  45.399  51.168  1.00  0.00     0.008 C 
HETATM    7  C   UNL     1      25.270  45.960  51.378  1.00  0.00     0.012 C 
HETATM    8  C   UNL     1      26.911  45.163  49.670  1.00  0.00     0.012 C 
ENDBRANCH   5   6
BRANCH   5   9
HETATM    9  C   UNL     1      27.721  44.434  53.293  1.00  0.00     0.128 A 
HETATM   10  N   UNL     1      28.886  43.921  53.642  1.00  0.00    -0.231 NA
HETATM   11  C   UNL     1      29.222  44.526  54.827  1.00  0.00     0.085 A 
HETATM   12  C   UNL     1      28.245  45.432  55.219  1.00  0.00     0.062 A 
HETATM   13  C   UNL     1      30.357  44.350  55.634  1.00  0.00     0.034 A 
HETATM   14  N   UNL     1      27.312  45.370  54.218  1.00  0.00    -0.341 N 
HETATM   15  C   UNL     1      28.318  46.181  56.394  1.00  0.00     0.032 A 
HETATM   16  H   UNL     1      26.451  45.901  54.161  1.00  0.00     0.167 HD
HETATM   17  C   UNL     1      29.455  45.990  57.190  1.00  0.00     0.002 A 
HETATM   18  C   UNL     1      30.460  45.094  56.817  1.00  0.00     0.002 A 
ENDBRANCH   5   9
ENDBRANCH   1   5
BRANCH   2  19
HETATM   19  C   UNL     1      27.638  40.842  50.303  1.00  0.00     0.155 A 
HETATM   20  N   UNL     1      28.426  40.211  51.129  1.00  0.00    -0.166 NA
HETATM   21  N   UNL     1      29.182  39.191  50.634  1.00  0.00    -0.242 N 
HETATM   22  C   UNL     1      29.171  38.730  49.339  1.00  0.00     0.272 A 
HETATM   23  H   UNL     1      29.770  38.693  51.297  1.00  0.00     0.192 HD
HETATM   24  O   UNL     1      29.849  37.777  48.976  1.00  0.00    -0.266 OA
HETATM   25  C   UNL     1      28.305  39.461  48.397  1.00  0.00     0.046 A 
HETATM   26  C   UNL     1      27.546  40.535  48.861  1.00  0.00     0.016 A 
HETATM   27  C   UNL     1      28.260  39.085  47.049  1.00  0.00     0.018 A 
HETATM   28  C   UNL     1      26.760  41.260  47.959  1.00  0.00     0.015 A 
HETATM   29  C   UNL     1      26.717  40.887  46.611  1.00  0.00     0.001 A 
HETATM   30  C   UNL     1      27.461  39.800  46.158  1.00  0.00     0.001 A 
ENDBRANCH   2  19
TORSDOF 4
ENDMDL
MODEL 9
REMARK VINA RESULT:      -8.1      2.475      7.648
REMARK  4 active torsions:
REMARK  status: ('A' for Active; 'I' for Inactive)
REMARK    1  A    between atoms: C_2  and  C_3 
REMARK    2  A    between atoms: C_3  and  N_4 
REMARK    3  A    between atoms: C_3  and  C_18 
REMARK       I    between atoms: N_4  and  C_5 
REMARK    4  A    between atoms: C_5  and  C_6 
ROOT
HETATM    1  N   UNL     1      26.399  44.213  50.953  1.00  0.00    -0.344 N 
HETATM    2  C   UNL     1      26.544  45.145  49.952  1.00  0.00     0.273 C 
HETATM    3  O   UNL     1      27.571  45.337  49.319  1.00  0.00    -0.266 OA
HETATM    4  H   UNL     1      25.637  44.392  51.601  1.00  0.00     0.163 HD
ENDROOT
BRANCH   1   5
HETATM    5  C   UNL     1      27.504  43.375  51.396  1.00  0.00     0.158 C 
BRANCH   5   6
HETATM    6  C   UNL     1      27.109  41.878  51.491  1.00  0.00     0.008 C 
HETATM    7  C   UNL     1      28.273  40.986  51.043  1.00  0.00     0.012 C 
HETATM    8  C   UNL     1      25.852  41.500  50.697  1.00  0.00     0.012 C 
ENDBRANCH   5   6
BRANCH   5   9
HETATM    9  C   UNL     1      28.064  43.925  52.683  1.00  0.00     0.128 A 
HETATM   10  N   UNL     1      27.590  44.905  53.430  1.00  0.00    -0.231 NA
HETATM   11  C   UNL     1      28.437  45.000  54.506  1.00  0.00     0.085 A 
HETATM   12  C   UNL     1      29.456  44.060  54.422  1.00  0.00     0.062 A 
HETATM   13  C   UNL     1      28.399  45.874  55.603  1.00  0.00     0.034 A 
HETATM   14  N   UNL     1      29.186  43.376  53.267  1.00  0.00    -0.341 N 
HETATM   15  C   UNL     1      30.469  43.938  55.374  1.00  0.00     0.032 A 
HETATM   16  H   UNL     1      29.720  42.607  52.881  1.00  0.00     0.167 HD
HETATM   17  C   UNL     1      30.418  44.821  56.460  1.00  0.00     0.002 A 
HETATM   18  C   UNL     1      29.400  45.771  56.577  1.00  0.00     0.002 A 
ENDBRANCH   5   9
ENDBRANCH   1   5
BRANCH   2  19
HETATM   19  C   UNL     1      25.311  46.022  49.744  1.00  0.00     0.155 A 
HETATM   20  N   UNL     1      25.419  47.252  50.165  1.00  0.00    -0.166 NA
HETATM   21  N   UNL     1      24.360  48.086  49.972  1.00  0.00    -0.242 N 
HETATM   22  C   UNL     1      23.184  47.767  49.337  1.00  0.00     0.272 A 
HETATM   23  H   UNL     1      24.472  49.048  50.282  1.00  0.00     0.192 HD
HETATM   24  O   UNL     1      22.290  48.586  49.162  1.00  0.00    -0.266 OA
HETATM   25  C   UNL     1      23.047  46.371  48.887  1.00  0.00     0.046 A 
HETATM   26  C   UNL     1      24.096  45.479  49.103  1.00  0.00     0.016 A 
HETATM   27  C   UNL     1      21.866  45.947  48.264  1.00  0.00     0.018 A 
HETATM   28  C   UNL     1      23.949  44.141  48.720  1.00  0.00     0.015 A 
HETATM   29  C   UNL     1      22.769  43.716  48.100  1.00  0.00     0.001 A 
HETATM   30  C   UNL     1      21.733  44.617  47.868  1.00  0.00     0.001 A 
ENDBRANCH   2  19
TORSDOF 4
ENDMDL
MODEL 10
REMARK VINA RESULT:      -8.0      3.126      8.351
REMARK  4 active torsions:
REMARK  status: ('A' for Active; 'I' for Inactive)
REMARK    1  A    between atoms: C_2  and  C_3 
REMARK    2  A    between atoms: C_3  and  N_4 
REMARK    3  A    between atoms: C_3  and  C_18 
REMARK       I    between atoms: N_4  and  C_5 
REMARK    4  A    between atoms: C_5  and  C_6 
ROOT
HETATM    1  N   UNL     1      23.744  47.211  49.911  1.00  0.00    -0.344 N 
HETATM    2  C   UNL     1      23.808  48.411  49.242  1.00  0.00     0.273 C 
HETATM    3  O   UNL     1      24.790  48.829  48.648  1.00  0.00    -0.266 OA
HETATM    4  H   UNL     1      23.020  47.152  50.621  1.00  0.00     0.163 HD
ENDROOT
BRANCH   1   5
HETATM    5  C   UNL     1      24.892  46.321  50.014  1.00  0.00     0.158 C 
BRANCH   5   6
HETATM    6  C   UNL     1      24.533  44.852  49.670  1.00  0.00     0.008 C 
HETATM    7  C   UNL     1      23.795  44.781  48.327  1.00  0.00     0.012 C 
HETATM    8  C   UNL     1      23.701  44.133  50.739  1.00  0.00     0.012 C 
ENDBRANCH   5   6
BRANCH   5   9
HETATM    9  C   UNL     1      25.523  46.475  51.375  1.00  0.00     0.128 A 
HETATM   10  N   UNL     1      25.345  47.443  52.255  1.00  0.00    -0.231 NA
HETATM   11  C   UNL     1      26.114  47.108  53.342  1.00  0.00     0.085 A 
HETATM   12  C   UNL     1      26.781  45.908  53.128  1.00  0.00     0.062 A 
HETATM   13  C   UNL     1      26.295  47.785  54.557  1.00  0.00     0.034 A 
HETATM   14  N   UNL     1      26.374  45.516  51.881  1.00  0.00    -0.341 N 
HETATM   15  C   UNL     1      27.645  45.332  54.061  1.00  0.00     0.032 A 
HETATM   16  H   UNL     1      26.655  44.676  51.390  1.00  0.00     0.167 HD
HETATM   17  C   UNL     1      27.817  46.024  55.267  1.00  0.00     0.002 A 
HETATM   18  C   UNL     1      27.152  47.228  55.515  1.00  0.00     0.002 A 
ENDBRANCH   5   9
ENDBRANCH   1   5
BRANCH   2  19
HETATM   19  C   UNL     1      22.547  49.260  49.380  1.00  0.00     0.155 A 
HETATM   20  N   UNL     1      22.599  50.201  50.283  1.00  0.00    -0.166 NA
HETATM   21  N   UNL     1      21.512  51.010  50.422  1.00  0.00    -0.242 N 
HETATM   22  C   UNL     1      20.362  50.958  49.672  1.00  0.00     0.272 A 
HETATM   23  H   UNL     1      21.581  51.754  51.112  1.00  0.00     0.192 HD
HETATM   24  O   UNL     1      19.440  51.750  49.827  1.00  0.00    -0.266 OA
HETATM   25  C   UNL     1      20.288  49.878  48.672  1.00  0.00     0.046 A 
HETATM   26  C   UNL     1      21.367  49.006  48.529  1.00  0.00     0.016 A 
HETATM   27  C   UNL     1      19.137  49.725  47.888  1.00  0.00     0.018 A 
HETATM   28  C   UNL     1      21.279  47.951  47.614  1.00  0.00     0.015 A 
HETATM   29  C   UNL     1      20.129  47.795  46.833  1.00  0.00     0.001 A 
HETATM   30  C   UNL     1      19.063  48.682  46.966  1.00  0.00     0.001 A 
ENDBRANCH   2  19
TORSDOF 4
ENDMDL
