MODEL 1
REMARK VINA RESULT:      -9.7      0.000      0.000
REMARK  3 active torsions:
REMARK  status: ('A' for Active; 'I' for Inactive)
REMARK    1  A    between atoms: C_6  and  N_7 
REMARK       I    between atoms: N_7  and  C_8 
REMARK    2  A    between atoms: C_8  and  C_9 
REMARK    3  A    between atoms: C_9  and  C_10 
ROOT
HETATM    1  C   UNL     1      25.933  41.637  51.004  1.00  0.00     0.164 C 
HETATM    2  N   UNL     1      26.771  40.766  51.808  1.00  0.00    -0.245 NA
HETATM    3  C   UNL     1      28.036  40.448  51.413  1.00  0.00     0.234 C 
HETATM    4  O   UNL     1      28.970  40.779  52.138  1.00  0.00    -0.274 OA
HETATM    5  C   UNL     1      28.232  39.648  50.185  1.00  0.00     0.053 A 
HETATM    6  C   UNL     1      27.326  39.517  49.126  1.00  0.00     0.050 A 
HETATM    7  N   UNL     1      26.101  40.178  48.953  1.00  0.00    -0.325 N 
HETATM    8  C   UNL     1      25.417  41.090  49.684  1.00  0.00     0.240 C 
HETATM    9  O   UNL     1      24.371  41.540  49.202  1.00  0.00    -0.271 OA
HETATM   10  C   UNL     1      29.441  38.917  50.154  1.00  0.00     0.019 A 
HETATM   11  C   UNL     1      29.743  38.050  49.105  1.00  0.00     0.001 A 
HETATM   12  C   UNL     1      28.842  37.907  48.063  1.00  0.00     0.002 A 
HETATM   13  C   UNL     1      27.653  38.638  48.073  1.00  0.00     0.030 A 
HETATM   14  H   UNL     1      26.801  41.065  52.777  1.00  0.00     0.131 HD
HETATM   15  H   UNL     1      25.601  39.985  48.091  1.00  0.00     0.169 HD
ENDROOT
BRANCH   1  16
HETATM   16  C   UNL     1      26.452  43.069  50.887  1.00  0.00     0.132 C 
BRANCH  16  17
HETATM   17  C   UNL     1      26.714  43.780  52.197  1.00  0.00     0.224 C 
HETATM   18  N   UNL     1      28.060  43.932  52.474  1.00  0.00    -0.327 N 
HETATM   19  H   UNL     1      28.710  43.905  51.692  1.00  0.00     0.169 HD
HETATM   20  O   UNL     1      25.784  44.141  52.910  1.00  0.00    -0.273 OA
BRANCH  18  21
HETATM   21  C   UNL     1      28.640  44.176  53.737  1.00  0.00     0.035 A 
HETATM   22  C   UNL     1      29.616  43.348  54.304  1.00  0.00     0.043 A 
HETATM   23  C   UNL     1      30.244  43.725  55.513  1.00  0.00    -0.006 A 
HETATM   24  C   UNL     1      29.861  44.914  56.139  1.00  0.00     0.044 A 
HETATM   25  C   UNL     1      31.271  43.141  56.305  1.00  0.00     0.031 A 
HETATM   26  N   UNL     1      30.645  45.040  57.269  1.00  0.00    -0.360 N 
HETATM   27  C   UNL     1      28.861  45.738  55.605  1.00  0.00     0.033 A 
HETATM   28  C   UNL     1      30.604  46.136  58.211  1.00  0.00     0.155 C 
HETATM   29  C   UNL     1      31.497  43.972  57.377  1.00  0.00     0.091 A 
HETATM   30  C   UNL     1      28.269  45.353  54.394  1.00  0.00     0.032 A 
ENDBRANCH  18  21
ENDBRANCH  16  17
ENDBRANCH   1  16
TORSDOF 3
ENDMDL
MODEL 2
REMARK VINA RESULT:      -9.4      4.665      8.545
REMARK  3 active torsions:
REMARK  status: ('A' for Active; 'I' for Inactive)
REMARK    1  A    between atoms: C_6  and  N_7 
REMARK       I    between atoms: N_7  and  C_8 
REMARK    2  A    between atoms: C_8  and  C_9 
REMARK    3  A    between atoms: C_9  and  C_10 
ROOT
HETATM    1  C   UNL     1      26.541  43.412  52.740  1.00  0.00     0.164 C 
HETATM    2  N   UNL     1      26.273  44.091  53.995  1.00  0.00    -0.245 NA
HETATM    3  C   UNL     1      27.112  45.057  54.465  1.00  0.00     0.234 C 
HETATM    4  O   UNL     1      26.665  46.191  54.614  1.00  0.00    -0.274 OA
HETATM    5  C   UNL     1      28.490  44.692  54.857  1.00  0.00     0.053 A 
HETATM    6  C   UNL     1      29.206  43.569  54.425  1.00  0.00     0.050 A 
HETATM    7  N   UNL     1      28.821  42.616  53.470  1.00  0.00    -0.325 N 
HETATM    8  C   UNL     1      27.718  42.453  52.701  1.00  0.00     0.240 C 
HETATM    9  O   UNL     1      27.724  41.523  51.885  1.00  0.00    -0.271 OA
HETATM   10  C   UNL     1      29.074  45.559  55.808  1.00  0.00     0.019 A 
HETATM   11  C   UNL     1      30.336  45.311  56.344  1.00  0.00     0.001 A 
HETATM   12  C   UNL     1      31.042  44.193  55.929  1.00  0.00     0.002 A 
HETATM   13  C   UNL     1      30.484  43.340  54.977  1.00  0.00     0.030 A 
HETATM   14  H   UNL     1      25.322  44.442  54.035  1.00  0.00     0.131 HD
HETATM   15  H   UNL     1      29.500  41.892  53.254  1.00  0.00     0.169 HD
ENDROOT
BRANCH   1  16
HETATM   16  C   UNL     1      26.479  44.320  51.514  1.00  0.00     0.132 C 
BRANCH  16  17
HETATM   17  C   UNL     1      25.101  44.823  51.140  1.00  0.00     0.224 C 
HETATM   18  N   UNL     1      25.092  45.577  49.982  1.00  0.00    -0.327 N 
HETATM   19  H   UNL     1      25.855  45.439  49.322  1.00  0.00     0.169 HD
HETATM   20  O   UNL     1      24.131  44.575  51.848  1.00  0.00    -0.273 OA
BRANCH  18  21
HETATM   21  C   UNL     1      24.100  46.496  49.578  1.00  0.00     0.035 A 
HETATM   22  C   UNL     1      24.227  47.880  49.742  1.00  0.00     0.043 A 
HETATM   23  C   UNL     1      23.251  48.746  49.198  1.00  0.00    -0.006 A 
HETATM   24  C   UNL     1      22.156  48.202  48.521  1.00  0.00     0.044 A 
HETATM   25  C   UNL     1      23.113  50.161  49.158  1.00  0.00     0.031 A 
HETATM   26  N   UNL     1      21.391  49.263  48.082  1.00  0.00    -0.360 N 
HETATM   27  C   UNL     1      21.994  46.816  48.379  1.00  0.00     0.033 A 
HETATM   28  C   UNL     1      20.168  49.167  47.316  1.00  0.00     0.155 C 
HETATM   29  C   UNL     1      21.961  50.450  48.464  1.00  0.00     0.091 A 
HETATM   30  C   UNL     1      22.987  45.980  48.907  1.00  0.00     0.032 A 
ENDBRANCH  18  21
ENDBRANCH  16  17
ENDBRANCH   1  16
TORSDOF 3
ENDMDL
MODEL 3
REMARK VINA RESULT:      -9.3      1.575      8.019
REMARK  3 active torsions:
REMARK  status: ('A' for Active; 'I' for Inactive)
REMARK    1  A    between atoms: C_6  and  N_7 
REMARK       I    between atoms: N_7  and  C_8 
REMARK    2  A    between atoms: C_8  and  C_9 
REMARK    3  A    between atoms: C_9  and  C_10 
ROOT
HETATM    1  C   UNL     1      27.565  45.357  54.105  1.00  0.00     0.164 C 
HETATM    2  N   UNL     1      28.773  44.663  53.699  1.00  0.00    -0.245 NA
HETATM    3  C   UNL     1      29.373  43.757  54.522  1.00  0.00     0.234 C 
HETATM    4  O   UNL     1      29.467  42.595  54.134  1.00  0.00    -0.274 OA
HETATM    5  C   UNL     1      29.960  44.214  55.800  1.00  0.00     0.053 A 
HETATM    6  C   UNL     1      29.627  45.382  56.495  1.00  0.00     0.050 A 
HETATM    7  N   UNL     1      28.615  46.306  56.194  1.00  0.00    -0.325 N 
HETATM    8  C   UNL     1      27.689  46.393  55.209  1.00  0.00     0.240 C 
HETATM    9  O   UNL     1      26.873  47.320  55.273  1.00  0.00    -0.271 OA
HETATM   10  C   UNL     1      30.996  43.389  56.292  1.00  0.00     0.019 A 
HETATM   11  C   UNL     1      31.710  43.722  57.442  1.00  0.00     0.001 A 
HETATM   12  C   UNL     1      31.392  44.884  58.125  1.00  0.00     0.002 A 
HETATM   13  C   UNL     1      30.359  45.698  57.659  1.00  0.00     0.030 A 
HETATM   14  H   UNL     1      28.676  44.248  52.779  1.00  0.00     0.131 HD
HETATM   15  H   UNL     1      28.493  47.073  56.847  1.00  0.00     0.169 HD
ENDROOT
BRANCH   1  16
HETATM   16  C   UNL     1      26.352  44.446  54.286  1.00  0.00     0.132 C 
BRANCH  16  17
HETATM   17  C   UNL     1      25.856  43.759  53.031  1.00  0.00     0.224 C 
HETATM   18  N   UNL     1      26.593  42.639  52.696  1.00  0.00    -0.327 N 
HETATM   19  H   UNL     1      27.119  42.179  53.437  1.00  0.00     0.169 HD
HETATM   20  O   UNL     1      24.905  44.212  52.404  1.00  0.00    -0.273 OA
BRANCH  18  21
HETATM   21  C   UNL     1      26.661  42.019  51.430  1.00  0.00     0.035 A 
HETATM   22  C   UNL     1      27.831  41.441  50.922  1.00  0.00     0.043 A 
HETATM   23  C   UNL     1      27.792  40.727  49.703  1.00  0.00    -0.006 A 
HETATM   24  C   UNL     1      26.583  40.627  49.009  1.00  0.00     0.044 A 
HETATM   25  C   UNL     1      28.768  40.010  48.959  1.00  0.00     0.031 A 
HETATM   26  N   UNL     1      26.830  39.864  47.886  1.00  0.00    -0.360 N 
HETATM   27  C   UNL     1      25.409  41.229  49.484  1.00  0.00     0.033 A 
HETATM   28  C   UNL     1      25.856  39.488  46.885  1.00  0.00     0.155 C 
HETATM   29  C   UNL     1      28.148  39.489  47.847  1.00  0.00     0.091 A 
HETATM   30  C   UNL     1      25.470  41.914  50.706  1.00  0.00     0.032 A 
ENDBRANCH  18  21
ENDBRANCH  16  17
ENDBRANCH   1  16
TORSDOF 3
ENDMDL
MODEL 4
REMARK VINA RESULT:      -9.3      2.194      8.156
REMARK  3 active torsions:
REMARK  status: ('A' for Active; 'I' for Inactive)
REMARK    1  A    between atoms: C_6  and  N_7 
REMARK       I    between atoms: N_7  and  C_8 
REMARK    2  A    between atoms: C_8  and  C_9 
REMARK    3  A    between atoms: C_9  and  C_10 
ROOT
HETATM    1  C   UNL     1      27.275  45.531  53.808  1.00  0.00     0.164 C 
HETATM    2  N   UNL     1      28.385  44.753  53.290  1.00  0.00    -0.245 NA
HETATM    3  C   UNL     1      28.946  43.752  54.025  1.00  0.00     0.234 C 
HETATM    4  O   UNL     1      28.906  42.609  53.576  1.00  0.00    -0.274 OA
HETATM    5  C   UNL     1      29.653  44.084  55.281  1.00  0.00     0.053 A 
HETATM    6  C   UNL     1      29.475  45.238  56.053  1.00  0.00     0.050 A 
HETATM    7  N   UNL     1      28.538  46.266  55.865  1.00  0.00    -0.325 N 
HETATM    8  C   UNL     1      27.565  46.490  54.950  1.00  0.00     0.240 C 
HETATM    9  O   UNL     1      26.847  47.483  55.113  1.00  0.00    -0.271 OA
HETATM   10  C   UNL     1      30.635  43.143  55.663  1.00  0.00     0.019 A 
HETATM   11  C   UNL     1      31.448  43.346  56.777  1.00  0.00     0.001 A 
HETATM   12  C   UNL     1      31.284  44.494  57.535  1.00  0.00     0.002 A 
HETATM   13  C   UNL     1      30.305  45.422  57.179  1.00  0.00     0.030 A 
HETATM   14  H   UNL     1      28.192  44.399  52.359  1.00  0.00     0.131 HD
HETATM   15  H   UNL     1      28.531  47.004  56.562  1.00  0.00     0.169 HD
ENDROOT
BRANCH   1  16
HETATM   16  C   UNL     1      25.996  44.726  54.026  1.00  0.00     0.132 C 
BRANCH  16  17
HETATM   17  C   UNL     1      25.390  44.109  52.783  1.00  0.00     0.224 C 
HETATM   18  N   UNL     1      26.032  42.952  52.382  1.00  0.00    -0.327 N 
HETATM   19  H   UNL     1      26.562  42.438  53.082  1.00  0.00     0.169 HD
HETATM   20  O   UNL     1      24.442  44.643  52.218  1.00  0.00    -0.273 OA
BRANCH  18  21
HETATM   21  C   UNL     1      25.992  42.365  51.099  1.00  0.00     0.035 A 
HETATM   22  C   UNL     1      24.801  42.025  50.449  1.00  0.00     0.043 A 
HETATM   23  C   UNL     1      24.834  41.559  49.115  1.00  0.00    -0.006 A 
HETATM   24  C   UNL     1      26.067  41.423  48.470  1.00  0.00     0.044 A 
HETATM   25  C   UNL     1      23.826  41.178  48.187  1.00  0.00     0.031 A 
HETATM   26  N   UNL     1      25.800  40.981  47.190  1.00  0.00    -0.360 N 
HETATM   27  C   UNL     1      27.273  41.724  49.118  1.00  0.00     0.033 A 
HETATM   28  C   UNL     1      26.782  40.722  46.161  1.00  0.00     0.155 C 
HETATM   29  C   UNL     1      24.449  40.829  47.011  1.00  0.00     0.091 A 
HETATM   30  C   UNL     1      27.211  42.205  50.433  1.00  0.00     0.032 A 
ENDBRANCH  18  21
ENDBRANCH  16  17
ENDBRANCH   1  16
TORSDOF 3
ENDMDL
MODEL 5
REMARK VINA RESULT:      -9.2      6.514      9.903
REMARK  3 active torsions:
REMARK  status: ('A' for Active; 'I' for Inactive)
REMARK    1  A    between atoms: C_6  and  N_7 
REMARK       I    between atoms: N_7  and  C_8 
REMARK    2  A    between atoms: C_8  and  C_9 
REMARK    3  A    between atoms: C_9  and  C_10 
ROOT
HETATM    1  C   UNL     1      25.613  46.243  50.555  1.00  0.00     0.164 C 
HETATM    2  N   UNL     1      25.018  46.435  51.864  1.00  0.00    -0.245 NA
HETATM    3  C   UNL     1      25.777  46.805  52.934  1.00  0.00     0.234 C 
HETATM    4  O   UNL     1      25.521  47.873  53.485  1.00  0.00    -0.274 OA
HETATM    5  C   UNL     1      26.811  45.880  53.444  1.00  0.00     0.053 A 
HETATM    6  C   UNL     1      27.419  44.841  52.731  1.00  0.00     0.050 A 
HETATM    7  N   UNL     1      27.260  44.516  51.375  1.00  0.00    -0.325 N 
HETATM    8  C   UNL     1      26.522  45.040  50.367  1.00  0.00     0.240 C 
HETATM    9  O   UNL     1      26.666  44.552  49.241  1.00  0.00    -0.271 OA
HETATM   10  C   UNL     1      27.138  46.066  54.806  1.00  0.00     0.019 A 
HETATM   11  C   UNL     1      28.034  45.225  55.464  1.00  0.00     0.001 A 
HETATM   12  C   UNL     1      28.627  44.187  54.764  1.00  0.00     0.002 A 
HETATM   13  C   UNL     1      28.327  44.004  53.414  1.00  0.00     0.030 A 
HETATM   14  H   UNL     1      24.205  47.039  51.821  1.00  0.00     0.131 HD
HETATM   15  H   UNL     1      27.825  43.750  51.024  1.00  0.00     0.169 HD
ENDROOT
BRANCH   1  16
HETATM   16  C   UNL     1      26.189  47.517  49.938  1.00  0.00     0.132 C 
BRANCH  16  17
HETATM   17  C   UNL     1      25.172  48.499  49.395  1.00  0.00     0.224 C 
HETATM   18  N   UNL     1      23.889  48.262  49.853  1.00  0.00    -0.327 N 
HETATM   19  H   UNL     1      23.785  47.745  50.723  1.00  0.00     0.169 HD
HETATM   20  O   UNL     1      25.509  49.380  48.612  1.00  0.00    -0.273 OA
BRANCH  18  21
HETATM   21  C   UNL     1      22.686  48.709  49.265  1.00  0.00     0.035 A 
HETATM   22  C   UNL     1      22.171  49.996  49.459  1.00  0.00     0.043 A 
HETATM   23  C   UNL     1      21.030  50.414  48.738  1.00  0.00    -0.006 A 
HETATM   24  C   UNL     1      20.417  49.522  47.853  1.00  0.00     0.044 A 
HETATM   25  C   UNL     1      20.303  51.635  48.679  1.00  0.00     0.031 A 
HETATM   26  N   UNL     1      19.359  50.196  47.277  1.00  0.00    -0.360 N 
HETATM   27  C   UNL     1      20.898  48.218  47.673  1.00  0.00     0.033 A 
HETATM   28  C   UNL     1      18.455  49.663  46.282  1.00  0.00     0.155 C 
HETATM   29  C   UNL     1      19.282  51.472  47.772  1.00  0.00     0.091 A 
HETATM   30  C   UNL     1      22.043  47.835  48.384  1.00  0.00     0.032 A 
ENDBRANCH  18  21
ENDBRANCH  16  17
ENDBRANCH   1  16
TORSDOF 3
ENDMDL
MODEL 6
REMARK VINA RESULT:      -9.2      4.538      6.687
REMARK  3 active torsions:
REMARK  status: ('A' for Active; 'I' for Inactive)
REMARK    1  A    between atoms: C_6  and  N_7 
REMARK       I    between atoms: N_7  and  C_8 
REMARK    2  A    between atoms: C_8  and  C_9 
REMARK    3  A    between atoms: C_9  and  C_10 
ROOT
HETATM    1  C   UNL     1      24.647  45.621  49.789  1.00  0.00     0.164 C 
HETATM    2  N   UNL     1      25.562  46.593  49.220  1.00  0.00    -0.245 NA
HETATM    3  C   UNL     1      25.414  47.926  49.467  1.00  0.00     0.234 C 
HETATM    4  O   UNL     1      26.327  48.513  50.043  1.00  0.00    -0.274 OA
HETATM    5  C   UNL     1      24.216  48.628  48.961  1.00  0.00     0.053 A 
HETATM    6  C   UNL     1      22.992  48.041  48.619  1.00  0.00     0.050 A 
HETATM    7  N   UNL     1      22.607  46.700  48.770  1.00  0.00    -0.325 N 
HETATM    8  C   UNL     1      23.227  45.596  49.251  1.00  0.00     0.240 C 
HETATM    9  O   UNL     1      22.566  44.553  49.315  1.00  0.00    -0.271 OA
HETATM   10  C   UNL     1      24.394  50.016  48.764  1.00  0.00     0.019 A 
HETATM   11  C   UNL     1      23.390  50.811  48.216  1.00  0.00     0.001 A 
HETATM   12  C   UNL     1      22.182  50.230  47.863  1.00  0.00     0.002 A 
HETATM   13  C   UNL     1      21.987  48.864  48.070  1.00  0.00     0.030 A 
HETATM   14  H   UNL     1      26.530  46.340  49.387  1.00  0.00     0.131 HD
HETATM   15  H   UNL     1      21.654  46.471  48.505  1.00  0.00     0.169 HD
ENDROOT
BRANCH   1  16
HETATM   16  C   UNL     1      24.701  45.531  51.313  1.00  0.00     0.132 C 
BRANCH  16  17
HETATM   17  C   UNL     1      26.042  45.146  51.900  1.00  0.00     0.224 C 
HETATM   18  N   UNL     1      25.989  44.891  53.257  1.00  0.00    -0.327 N 
HETATM   19  H   UNL     1      25.089  44.631  53.655  1.00  0.00     0.169 HD
HETATM   20  O   UNL     1      27.045  45.106  51.195  1.00  0.00    -0.273 OA
BRANCH  18  21
HETATM   21  C   UNL     1      27.073  44.899  54.162  1.00  0.00     0.035 A 
HETATM   22  C   UNL     1      28.103  43.953  54.132  1.00  0.00     0.043 A 
HETATM   23  C   UNL     1      29.220  44.099  54.986  1.00  0.00    -0.006 A 
HETATM   24  C   UNL     1      29.266  45.181  55.869  1.00  0.00     0.044 A 
HETATM   25  C   UNL     1      30.418  43.354  55.166  1.00  0.00     0.031 A 
HETATM   26  N   UNL     1      30.462  45.088  56.552  1.00  0.00    -0.360 N 
HETATM   27  C   UNL     1      28.226  46.119  55.940  1.00  0.00     0.033 A 
HETATM   28  C   UNL     1      30.939  46.013  57.556  1.00  0.00     0.155 C 
HETATM   29  C   UNL     1      31.163  43.987  56.134  1.00  0.00     0.091 A 
HETATM   30  C   UNL     1      27.140  45.963  55.067  1.00  0.00     0.032 A 
ENDBRANCH  18  21
ENDBRANCH  16  17
ENDBRANCH   1  16
TORSDOF 3
ENDMDL
MODEL 7
REMARK VINA RESULT:      -9.1      5.730      8.867
REMARK  3 active torsions:
REMARK  status: ('A' for Active; 'I' for Inactive)
REMARK    1  A    between atoms: C_6  and  N_7 
REMARK       I    between atoms: N_7  and  C_8 
REMARK    2  A    between atoms: C_8  and  C_9 
REMARK    3  A    between atoms: C_9  and  C_10 
ROOT
HETATM    1  C   UNL     1      26.050  44.588  51.026  1.00  0.00     0.164 C 
HETATM    2  N   UNL     1      25.781  44.582  52.452  1.00  0.00    -0.245 NA
HETATM    3  C   UNL     1      26.690  45.072  53.342  1.00  0.00     0.234 C 
HETATM    4  O   UNL     1      26.360  46.028  54.040  1.00  0.00    -0.274 OA
HETATM    5  C   UNL     1      27.993  44.391  53.497  1.00  0.00     0.053 A 
HETATM    6  C   UNL     1      28.607  43.552  52.560  1.00  0.00     0.050 A 
HETATM    7  N   UNL     1      28.181  43.256  51.256  1.00  0.00    -0.325 N 
HETATM    8  C   UNL     1      27.117  43.637  50.510  1.00  0.00     0.240 C 
HETATM    9  O   UNL     1      27.070  43.243  49.339  1.00  0.00    -0.271 OA
HETATM   10  C   UNL     1      28.608  44.590  54.753  1.00  0.00     0.019 A 
HETATM   11  C   UNL     1      29.800  43.953  55.092  1.00  0.00     0.001 A 
HETATM   12  C   UNL     1      30.404  43.111  54.173  1.00  0.00     0.002 A 
HETATM   13  C   UNL     1      29.816  42.921  52.921  1.00  0.00     0.030 A 
HETATM   14  H   UNL     1      24.874  44.983  52.664  1.00  0.00     0.131 HD
HETATM   15  H   UNL     1      28.788  42.657  50.707  1.00  0.00     0.169 HD
ENDROOT
BRANCH   1  16
HETATM   16  C   UNL     1      26.164  45.985  50.419  1.00  0.00     0.132 C 
BRANCH  16  17
HETATM   17  C   UNL     1      24.943  46.867  50.572  1.00  0.00     0.224 C 
HETATM   18  N   UNL     1      24.090  46.808  49.486  1.00  0.00    -0.327 N 
HETATM   19  H   UNL     1      24.136  45.983  48.892  1.00  0.00     0.169 HD
HETATM   20  O   UNL     1      24.792  47.560  51.572  1.00  0.00    -0.273 OA
BRANCH  18  21
HETATM   21  C   UNL     1      23.109  47.759  49.128  1.00  0.00     0.035 A 
HETATM   22  C   UNL     1      21.816  47.408  48.721  1.00  0.00     0.043 A 
HETATM   23  C   UNL     1      20.850  48.416  48.503  1.00  0.00    -0.006 A 
HETATM   24  C   UNL     1      21.209  49.755  48.675  1.00  0.00     0.044 A 
HETATM   25  C   UNL     1      19.477  48.390  48.133  1.00  0.00     0.031 A 
HETATM   26  N   UNL     1      20.079  50.506  48.423  1.00  0.00    -0.360 N 
HETATM   27  C   UNL     1      22.509  50.127  49.047  1.00  0.00     0.033 A 
HETATM   28  C   UNL     1      19.984  51.947  48.502  1.00  0.00     0.155 C 
HETATM   29  C   UNL     1      19.029  49.690  48.093  1.00  0.00     0.091 A 
HETATM   30  C   UNL     1      23.442  49.108  49.279  1.00  0.00     0.032 A 
ENDBRANCH  18  21
ENDBRANCH  16  17
ENDBRANCH   1  16
TORSDOF 3
ENDMDL
MODEL 8
REMARK VINA RESULT:      -8.9      2.212      8.940
REMARK  3 active torsions:
REMARK  status: ('A' for Active; 'I' for Inactive)
REMARK    1  A    between atoms: C_6  and  N_7 
REMARK       I    between atoms: N_7  and  C_8 
REMARK    2  A    between atoms: C_8  and  C_9 
REMARK    3  A    between atoms: C_9  and  C_10 
ROOT
HETATM    1  C   UNL     1      27.973  42.679  53.558  1.00  0.00     0.164 C 
HETATM    2  N   UNL     1      26.580  43.082  53.623  1.00  0.00    -0.245 NA
HETATM    3  C   UNL     1      26.182  44.310  53.186  1.00  0.00     0.234 C 
HETATM    4  O   UNL     1      25.380  44.363  52.257  1.00  0.00    -0.274 OA
HETATM    5  C   UNL     1      26.655  45.520  53.892  1.00  0.00     0.053 A 
HETATM    6  C   UNL     1      27.795  45.617  54.699  1.00  0.00     0.050 A 
HETATM    7  N   UNL     1      28.774  44.639  54.931  1.00  0.00    -0.325 N 
HETATM    8  C   UNL     1      28.945  43.365  54.502  1.00  0.00     0.240 C 
HETATM    9  O   UNL     1      29.981  42.783  54.843  1.00  0.00    -0.271 OA
HETATM   10  C   UNL     1      25.807  46.641  53.758  1.00  0.00     0.019 A 
HETATM   11  C   UNL     1      26.065  47.837  54.427  1.00  0.00     0.001 A 
HETATM   12  C   UNL     1      27.185  47.932  55.237  1.00  0.00     0.002 A 
HETATM   13  C   UNL     1      28.040  46.837  55.363  1.00  0.00     0.030 A 
HETATM   14  H   UNL     1      25.968  42.382  53.219  1.00  0.00     0.131 HD
HETATM   15  H   UNL     1      29.558  44.913  55.514  1.00  0.00     0.169 HD
ENDROOT
BRANCH   1  16
HETATM   16  C   UNL     1      28.520  42.552  52.138  1.00  0.00     0.132 C 
BRANCH  16  17
HETATM   17  C   UNL     1      27.865  41.494  51.276  1.00  0.00     0.224 C 
HETATM   18  N   UNL     1      28.775  40.705  50.598  1.00  0.00    -0.327 N 
HETATM   19  H   UNL     1      29.719  40.641  50.974  1.00  0.00     0.169 HD
HETATM   20  O   UNL     1      26.644  41.409  51.208  1.00  0.00    -0.273 OA
BRANCH  18  21
HETATM   21  C   UNL     1      28.526  39.923  49.449  1.00  0.00     0.035 A 
HETATM   22  C   UNL     1      28.250  40.474  48.193  1.00  0.00     0.043 A 
HETATM   23  C   UNL     1      28.138  39.632  47.063  1.00  0.00    -0.006 A 
HETATM   24  C   UNL     1      28.282  38.251  47.225  1.00  0.00     0.044 A 
HETATM   25  C   UNL     1      27.909  39.875  45.681  1.00  0.00     0.031 A 
HETATM   26  N   UNL     1      28.151  37.688  45.971  1.00  0.00    -0.360 N 
HETATM   27  C   UNL     1      28.523  37.678  48.481  1.00  0.00     0.033 A 
HETATM   28  C   UNL     1      28.250  36.278  45.661  1.00  0.00     0.155 C 
HETATM   29  C   UNL     1      27.924  38.661  45.034  1.00  0.00     0.091 A 
HETATM   30  C   UNL     1      28.652  38.536  49.581  1.00  0.00     0.032 A 
ENDBRANCH  18  21
ENDBRANCH  16  17
ENDBRANCH   1  16
TORSDOF 3
ENDMDL
MODEL 9
REMARK VINA RESULT:      -8.8      1.876      7.951
REMARK  3 active torsions:
REMARK  status: ('A' for Active; 'I' for Inactive)
REMARK    1  A    between atoms: C_6  and  N_7 
REMARK       I    between atoms: N_7  and  C_8 
REMARK    2  A    between atoms: C_8  and  C_9 
REMARK    3  A    between atoms: C_9  and  C_10 
ROOT
HETATM    1  C   UNL     1      26.566  44.940  52.339  1.00  0.00     0.164 C 
HETATM    2  N   UNL     1      27.838  44.363  51.944  1.00  0.00    -0.245 NA
HETATM    3  C   UNL     1      28.518  43.525  52.776  1.00  0.00     0.234 C 
HETATM    4  O   UNL     1      28.726  42.375  52.397  1.00  0.00    -0.274 OA
HETATM    5  C   UNL     1      29.052  44.045  54.053  1.00  0.00     0.053 A 
HETATM    6  C   UNL     1      28.603  45.180  54.739  1.00  0.00     0.050 A 
HETATM    7  N   UNL     1      27.508  46.000  54.426  1.00  0.00    -0.325 N 
HETATM    8  C   UNL     1      26.583  45.990  53.436  1.00  0.00     0.240 C 
HETATM    9  O   UNL     1      25.681  46.835  53.490  1.00  0.00    -0.271 OA
HETATM   10  C   UNL     1      30.160  43.328  54.556  1.00  0.00     0.019 A 
HETATM   11  C   UNL     1      30.832  43.736  55.707  1.00  0.00     0.001 A 
HETATM   12  C   UNL     1      30.400  44.866  56.380  1.00  0.00     0.002 A 
HETATM   13  C   UNL     1      29.295  45.573  55.904  1.00  0.00     0.030 A 
HETATM   14  H   UNL     1      27.786  43.935  51.027  1.00  0.00     0.131 HD
HETATM   15  H   UNL     1      27.310  46.756  55.074  1.00  0.00     0.169 HD
ENDROOT
BRANCH   1  16
HETATM   16  C   UNL     1      25.446  43.917  52.521  1.00  0.00     0.132 C 
BRANCH  16  17
HETATM   17  C   UNL     1      25.182  43.017  51.333  1.00  0.00     0.224 C 
HETATM   18  N   UNL     1      26.044  41.938  51.265  1.00  0.00    -0.327 N 
HETATM   19  H   UNL     1      26.497  41.640  52.126  1.00  0.00     0.169 HD
HETATM   20  O   UNL     1      24.293  43.284  50.531  1.00  0.00    -0.273 OA
BRANCH  18  21
HETATM   21  C   UNL     1      26.333  41.157  50.125  1.00  0.00     0.035 A 
HETATM   22  C   UNL     1      26.794  41.702  48.921  1.00  0.00     0.043 A 
HETATM   23  C   UNL     1      27.184  40.847  47.865  1.00  0.00    -0.006 A 
HETATM   24  C   UNL     1      27.082  39.464  48.033  1.00  0.00     0.044 A 
HETATM   25  C   UNL     1      27.717  41.077  46.567  1.00  0.00     0.031 A 
HETATM   26  N   UNL     1      27.548  38.885  46.870  1.00  0.00    -0.360 N 
HETATM   27  C   UNL     1      26.588  38.901  49.219  1.00  0.00     0.033 A 
HETATM   28  C   UNL     1      27.643  37.466  46.609  1.00  0.00     0.155 C 
HETATM   29  C   UNL     1      27.932  39.853  45.979  1.00  0.00     0.091 A 
HETATM   30  C   UNL     1      26.229  39.770  50.259  1.00  0.00     0.032 A 
ENDBRANCH  18  21
ENDBRANCH  16  17
ENDBRANCH   1  16
TORSDOF 3
ENDMDL
MODEL 10
REMARK VINA RESULT:      -8.8      5.953      8.272
REMARK  3 active torsions:
REMARK  status: ('A' for Active; 'I' for Inactive)
REMARK    1  A    between atoms: C_6  and  N_7 
REMARK       I    between atoms: N_7  and  C_8 
REMARK    2  A    between atoms: C_8  and  C_9 
REMARK    3  A    between atoms: C_9  and  C_10 
ROOT
HETATM    1  C   UNL     1      23.940  47.580  49.143  1.00  0.00     0.164 C 
HETATM    2  N   UNL     1      24.062  48.881  48.511  1.00  0.00    -0.245 NA
HETATM    3  C   UNL     1      23.290  49.931  48.910  1.00  0.00     0.234 C 
HETATM    4  O   UNL     1      23.853  50.926  49.360  1.00  0.00    -0.274 OA
HETATM    5  C   UNL     1      21.826  49.874  48.707  1.00  0.00     0.053 A 
HETATM    6  C   UNL     1      21.057  48.717  48.543  1.00  0.00     0.050 A 
HETATM    7  N   UNL     1      21.477  47.381  48.632  1.00  0.00    -0.325 N 
HETATM    8  C   UNL     1      22.670  46.789  48.879  1.00  0.00     0.240 C 
HETATM    9  O   UNL     1      22.689  45.556  48.963  1.00  0.00    -0.271 OA
HETATM   10  C   UNL     1      21.202  51.138  48.616  1.00  0.00     0.019 A 
HETATM   11  C   UNL     1      19.840  51.261  48.345  1.00  0.00     0.001 A 
HETATM   12  C   UNL     1      19.077  50.118  48.169  1.00  0.00     0.002 A 
HETATM   13  C   UNL     1      19.680  48.864  48.274  1.00  0.00     0.030 A 
HETATM   14  H   UNL     1      25.028  49.188  48.469  1.00  0.00     0.131 HD
HETATM   15  H   UNL     1      20.758  46.672  48.528  1.00  0.00     0.169 HD
ENDROOT
BRANCH   1  16
HETATM   16  C   UNL     1      24.350  47.560  50.615  1.00  0.00     0.132 C 
BRANCH  16  17
HETATM   17  C   UNL     1      25.579  46.738  50.940  1.00  0.00     0.224 C 
HETATM   18  N   UNL     1      25.578  46.247  52.233  1.00  0.00    -0.327 N 
HETATM   19  H   UNL     1      24.680  46.156  52.703  1.00  0.00     0.169 HD
HETATM   20  O   UNL     1      26.465  46.579  50.107  1.00  0.00    -0.273 OA
BRANCH  18  21
HETATM   21  C   UNL     1      26.697  45.802  52.969  1.00  0.00     0.035 A 
HETATM   22  C   UNL     1      27.188  46.472  54.095  1.00  0.00     0.043 A 
HETATM   23  C   UNL     1      28.232  45.900  54.857  1.00  0.00    -0.006 A 
HETATM   24  C   UNL     1      28.776  44.676  54.457  1.00  0.00     0.044 A 
HETATM   25  C   UNL     1      28.908  46.296  56.043  1.00  0.00     0.031 A 
HETATM   26  N   UNL     1      29.745  44.349  55.384  1.00  0.00    -0.360 N 
HETATM   27  C   UNL     1      28.322  44.008  53.311  1.00  0.00     0.033 A 
HETATM   28  C   UNL     1      30.555  43.151  55.376  1.00  0.00     0.155 C 
HETATM   29  C   UNL     1      29.832  45.323  56.345  1.00  0.00     0.091 A 
HETATM   30  C   UNL     1      27.271  44.586  52.586  1.00  0.00     0.032 A 
ENDBRANCH  18  21
ENDBRANCH  16  17
ENDBRANCH   1  16
TORSDOF 3
ENDMDL
