MODEL 1
REMARK VINA RESULT:      -7.4      0.000      0.000
REMARK  5 active torsions:
REMARK  status: ('A' for Active; 'I' for Inactive)
REMARK    1  A    between atoms: C_2  and  C_3 
REMARK    2  A    between atoms: C_2  and  C_20 
REMARK       I    between atoms: C_3  and  N_4 
REMARK    3  A    between atoms: N_4  and  C_5 
REMARK    4  A    between atoms: C_8  and  O_9 
REMARK    5  A    between atoms: O_9  and  C_10 
ROOT
HETATM    1  C   UNL     1      25.287  45.777  51.619  1.00  0.00     0.052 A 
HETATM    2  C   UNL     1      25.292  47.142  51.340  1.00  0.00     0.149 A 
HETATM    3  N   UNL     1      24.625  47.712  50.302  1.00  0.00    -0.235 NA
HETATM    4  C   UNL     1      23.914  46.887  49.506  1.00  0.00     0.169 A 
HETATM    5  C   UNL     1      23.837  45.518  49.701  1.00  0.00     0.060 A 
HETATM    6  C   UNL     1      24.542  44.958  50.767  1.00  0.00     0.035 A 
ENDROOT
BRANCH   1   7
HETATM    7  N   UNL     1      25.976  45.156  52.683  1.00  0.00    -0.325 N 
HETATM    8  C   UNL     1      27.128  44.391  52.589  1.00  0.00     0.231 C 
HETATM    9  O   UNL     1      27.746  44.203  51.547  1.00  0.00    -0.272 OA
HETATM   10  H   UNL     1      25.608  45.338  53.608  1.00  0.00     0.169 HD
BRANCH   8  11
HETATM   11  C   UNL     1      27.640  43.847  53.942  1.00  0.00     0.046 C 
HETATM   12  C   UNL     1      28.560  44.914  54.571  1.00  0.00     0.026 C 
HETATM   13  C   UNL     1      26.474  43.558  54.905  1.00  0.00     0.026 C 
BRANCH  11  14
HETATM   14  C   UNL     1      28.493  42.578  53.707  1.00  0.00     0.133 C 
HETATM   15 CL   UNL     1      30.239  42.897  53.500  1.00  0.00    -0.129 Cl
ENDBRANCH  11  14
ENDBRANCH   8  11
ENDBRANCH   1   7
BRANCH   4  16
HETATM   16  O   UNL     1      23.187  47.392  48.432  1.00  0.00    -0.289 OA
BRANCH  16  17
HETATM   17  C   UNL     1      22.722  48.677  48.556  1.00  0.00     0.116 A 
HETATM   18  C   UNL     1      21.425  48.884  49.016  1.00  0.00     0.150 A 
HETATM   19  F   UNL     1      20.660  47.843  49.381  1.00  0.00    -0.203 F 
HETATM   20  C   UNL     1      20.898  50.170  49.096  1.00  0.00     0.045 A 
HETATM   21  C   UNL     1      21.674  51.259  48.695  1.00  0.00     0.003 A 
HETATM   22  C   UNL     1      22.969  51.056  48.213  1.00  0.00     0.003 A 
HETATM   23  C   UNL     1      23.493  49.763  48.135  1.00  0.00     0.040 A 
ENDBRANCH  16  17
ENDBRANCH   4  16
TORSDOF 5
ENDMDL
MODEL 2
REMARK VINA RESULT:      -7.3      3.727      8.330
REMARK  5 active torsions:
REMARK  status: ('A' for Active; 'I' for Inactive)
REMARK    1  A    between atoms: C_2  and  C_3 
REMARK    2  A    between atoms: C_2  and  C_20 
REMARK       I    between atoms: C_3  and  N_4 
REMARK    3  A    between atoms: N_4  and  C_5 
REMARK    4  A    between atoms: C_8  and  O_9 
REMARK    5  A    between atoms: O_9  and  C_10 
ROOT
HETATM    1  C   UNL     1      25.177  46.878  50.305  1.00  0.00     0.052 A 
HETATM    2  C   UNL     1      25.567  45.695  49.682  1.00  0.00     0.149 A 
HETATM    3  N   UNL     1      25.890  44.553  50.344  1.00  0.00    -0.235 NA
HETATM    4  C   UNL     1      25.815  44.586  51.691  1.00  0.00     0.169 A 
HETATM    5  C   UNL     1      25.430  45.709  52.406  1.00  0.00     0.060 A 
HETATM    6  C   UNL     1      25.117  46.871  51.701  1.00  0.00     0.035 A 
ENDROOT
BRANCH   1   7
HETATM    7  N   UNL     1      24.845  48.081  49.644  1.00  0.00    -0.325 N 
HETATM    8  C   UNL     1      23.592  48.452  49.181  1.00  0.00     0.231 C 
HETATM    9  O   UNL     1      22.573  47.790  49.347  1.00  0.00    -0.272 OA
HETATM   10  H   UNL     1      25.597  48.750  49.550  1.00  0.00     0.169 HD
BRANCH   8  11
HETATM   11  C   UNL     1      23.554  49.837  48.496  1.00  0.00     0.046 C 
HETATM   12  C   UNL     1      23.235  50.895  49.572  1.00  0.00     0.026 C 
HETATM   13  C   UNL     1      24.908  50.175  47.845  1.00  0.00     0.026 C 
BRANCH  11  14
HETATM   14  C   UNL     1      22.412  49.874  47.453  1.00  0.00     0.133 C 
HETATM   15 CL   UNL     1      20.994  50.837  47.956  1.00  0.00    -0.129 Cl
ENDBRANCH  11  14
ENDBRANCH   8  11
ENDBRANCH   1   7
BRANCH   4  16
HETATM   16  O   UNL     1      26.109  43.454  52.445  1.00  0.00    -0.289 OA
BRANCH  16  17
HETATM   17  C   UNL     1      27.383  43.366  52.947  1.00  0.00     0.116 A 
HETATM   18  C   UNL     1      27.599  43.656  54.292  1.00  0.00     0.150 A 
HETATM   19  F   UNL     1      26.569  43.966  55.093  1.00  0.00    -0.203 F 
HETATM   20  C   UNL     1      28.886  43.638  54.822  1.00  0.00     0.045 A 
HETATM   21  C   UNL     1      29.970  43.341  53.993  1.00  0.00     0.003 A 
HETATM   22  C   UNL     1      29.761  43.070  52.639  1.00  0.00     0.003 A 
HETATM   23  C   UNL     1      28.468  43.090  52.111  1.00  0.00     0.040 A 
ENDBRANCH  16  17
ENDBRANCH   4  16
TORSDOF 5
ENDMDL
MODEL 3
REMARK VINA RESULT:      -7.2     18.948     20.991
REMARK  5 active torsions:
REMARK  status: ('A' for Active; 'I' for Inactive)
REMARK    1  A    between atoms: C_2  and  C_3 
REMARK    2  A    between atoms: C_2  and  C_20 
REMARK       I    between atoms: C_3  and  N_4 
REMARK    3  A    between atoms: N_4  and  C_5 
REMARK    4  A    between atoms: C_8  and  O_9 
REMARK    5  A    between atoms: O_9  and  C_10 
ROOT
HETATM    1  C   UNL     1      38.572  45.335  63.956  1.00  0.00     0.052 A 
HETATM    2  C   UNL     1      37.373  44.629  64.021  1.00  0.00     0.149 A 
HETATM    3  N   UNL     1      37.226  43.335  63.632  1.00  0.00    -0.235 NA
HETATM    4  C   UNL     1      38.326  42.710  63.162  1.00  0.00     0.169 A 
HETATM    5  C   UNL     1      39.566  43.320  63.064  1.00  0.00     0.060 A 
HETATM    6  C   UNL     1      39.684  44.653  63.457  1.00  0.00     0.035 A 
ENDROOT
BRANCH   1   7
HETATM    7  N   UNL     1      38.751  46.681  64.344  1.00  0.00    -0.325 N 
HETATM    8  C   UNL     1      38.797  47.169  65.640  1.00  0.00     0.231 C 
HETATM    9  O   UNL     1      38.748  46.466  66.643  1.00  0.00    -0.272 OA
HETATM   10  H   UNL     1      38.910  47.335  63.589  1.00  0.00     0.169 HD
BRANCH   8  11
HETATM   11  C   UNL     1      39.006  48.698  65.734  1.00  0.00     0.046 C 
HETATM   12  C   UNL     1      39.952  48.981  66.919  1.00  0.00     0.026 C 
HETATM   13  C   UNL     1      39.635  49.256  64.445  1.00  0.00     0.026 C 
BRANCH  11  14
HETATM   14  C   UNL     1      37.658  49.392  66.039  1.00  0.00     0.133 C 
HETATM   15 CL   UNL     1      37.756  51.175  66.125  1.00  0.00    -0.129 Cl
ENDBRANCH  11  14
ENDBRANCH   8  11
ENDBRANCH   1   7
BRANCH   4  16
HETATM   16  O   UNL     1      38.267  41.379  62.761  1.00  0.00    -0.289 OA
BRANCH  16  17
HETATM   17  C   UNL     1      39.022  40.488  63.481  1.00  0.00     0.116 A 
HETATM   18  C   UNL     1      39.700  39.477  62.805  1.00  0.00     0.150 A 
HETATM   19  F   UNL     1      39.655  39.409  61.465  1.00  0.00    -0.203 F 
HETATM   20  C   UNL     1      40.425  38.518  63.506  1.00  0.00     0.045 A 
HETATM   21  C   UNL     1      40.458  38.562  64.901  1.00  0.00     0.003 A 
HETATM   22  C   UNL     1      39.763  39.562  65.586  1.00  0.00     0.003 A 
HETATM   23  C   UNL     1      39.036  40.522  64.878  1.00  0.00     0.040 A 
ENDBRANCH  16  17
ENDBRANCH   4  16
TORSDOF 5
ENDMDL
MODEL 4
REMARK VINA RESULT:      -7.2      3.758      8.279
REMARK  5 active torsions:
REMARK  status: ('A' for Active; 'I' for Inactive)
REMARK    1  A    between atoms: C_2  and  C_3 
REMARK    2  A    between atoms: C_2  and  C_20 
REMARK       I    between atoms: C_3  and  N_4 
REMARK    3  A    between atoms: N_4  and  C_5 
REMARK    4  A    between atoms: C_8  and  O_9 
REMARK    5  A    between atoms: O_9  and  C_10 
ROOT
HETATM    1  C   UNL     1      24.528  45.395  50.174  1.00  0.00     0.052 A 
HETATM    2  C   UNL     1      24.073  44.651  51.260  1.00  0.00     0.149 A 
HETATM    3  N   UNL     1      24.828  43.745  51.936  1.00  0.00    -0.235 NA
HETATM    4  C   UNL     1      26.099  43.575  51.516  1.00  0.00     0.169 A 
HETATM    5  C   UNL     1      26.650  44.271  50.453  1.00  0.00     0.060 A 
HETATM    6  C   UNL     1      25.849  45.184  49.769  1.00  0.00     0.035 A 
ENDROOT
BRANCH   1   7
HETATM    7  N   UNL     1      23.765  46.335  49.448  1.00  0.00    -0.325 N 
HETATM    8  C   UNL     1      23.739  47.707  49.642  1.00  0.00     0.231 C 
HETATM    9  O   UNL     1      24.443  48.301  50.451  1.00  0.00    -0.272 OA
HETATM   10  H   UNL     1      23.225  45.959  48.680  1.00  0.00     0.169 HD
BRANCH   8  11
HETATM   11  C   UNL     1      22.796  48.465  48.681  1.00  0.00     0.046 C 
HETATM   12  C   UNL     1      23.627  49.526  47.930  1.00  0.00     0.026 C 
HETATM   13  C   UNL     1      22.158  47.510  47.656  1.00  0.00     0.026 C 
BRANCH  11  14
HETATM   14  C   UNL     1      21.712  49.213  49.493  1.00  0.00     0.133 C 
HETATM   15 CL   UNL     1      22.124  50.909  49.877  1.00  0.00    -0.129 Cl
ENDBRANCH  11  14
ENDBRANCH   8  11
ENDBRANCH   1   7
BRANCH   4  16
HETATM   16  O   UNL     1      26.946  42.682  52.166  1.00  0.00    -0.289 OA
BRANCH  16  17
HETATM   17  C   UNL     1      27.833  43.220  53.063  1.00  0.00     0.116 A 
HETATM   18  C   UNL     1      29.093  42.642  53.195  1.00  0.00     0.150 A 
HETATM   19  F   UNL     1      29.449  41.608  52.418  1.00  0.00    -0.203 F 
HETATM   20  C   UNL     1      29.997  43.122  54.139  1.00  0.00     0.045 A 
HETATM   21  C   UNL     1      29.629  44.181  54.971  1.00  0.00     0.003 A 
HETATM   22  C   UNL     1      28.359  44.751  54.857  1.00  0.00     0.003 A 
HETATM   23  C   UNL     1      27.455  44.266  53.909  1.00  0.00     0.040 A 
ENDBRANCH  16  17
ENDBRANCH   4  16
TORSDOF 5
ENDMDL
MODEL 5
REMARK VINA RESULT:      -7.0      3.790      8.161
REMARK  5 active torsions:
REMARK  status: ('A' for Active; 'I' for Inactive)
REMARK    1  A    between atoms: C_2  and  C_3 
REMARK    2  A    between atoms: C_2  and  C_20 
REMARK       I    between atoms: C_3  and  N_4 
REMARK    3  A    between atoms: N_4  and  C_5 
REMARK    4  A    between atoms: C_8  and  O_9 
REMARK    5  A    between atoms: O_9  and  C_10 
ROOT
HETATM    1  C   UNL     1      24.203  47.439  49.678  1.00  0.00     0.052 A 
HETATM    2  C   UNL     1      25.550  47.792  49.656  1.00  0.00     0.149 A 
HETATM    3  N   UNL     1      26.574  46.898  49.633  1.00  0.00    -0.235 NA
HETATM    4  C   UNL     1      26.242  45.590  49.624  1.00  0.00     0.169 A 
HETATM    5  C   UNL     1      24.934  45.135  49.636  1.00  0.00     0.060 A 
HETATM    6  C   UNL     1      23.904  46.075  49.674  1.00  0.00     0.035 A 
ENDROOT
BRANCH   1   7
HETATM    7  N   UNL     1      23.120  48.345  49.712  1.00  0.00    -0.325 N 
HETATM    8  C   UNL     1      22.371  48.780  48.630  1.00  0.00     0.231 C 
HETATM    9  O   UNL     1      22.519  48.374  47.483  1.00  0.00    -0.272 OA
HETATM   10  H   UNL     1      22.844  48.661  50.632  1.00  0.00     0.169 HD
BRANCH   8  11
HETATM   11  C   UNL     1      21.248  49.777  48.997  1.00  0.00     0.046 C 
HETATM   12  C   UNL     1      21.791  50.735  50.077  1.00  0.00     0.026 C 
HETATM   13  C   UNL     1      20.809  50.598  47.771  1.00  0.00     0.026 C 
BRANCH  11  14
HETATM   14  C   UNL     1      20.051  49.014  49.611  1.00  0.00     0.133 C 
HETATM   15 CL   UNL     1      18.914  48.343  48.407  1.00  0.00    -0.129 Cl
ENDBRANCH  11  14
ENDBRANCH   8  11
ENDBRANCH   1   7
BRANCH   4  16
HETATM   16  O   UNL     1      27.229  44.610  49.580  1.00  0.00    -0.289 OA
BRANCH  16  17
HETATM   17  C   UNL     1      27.387  43.847  50.709  1.00  0.00     0.116 A 
HETATM   18  C   UNL     1      27.293  42.462  50.606  1.00  0.00     0.150 A 
HETATM   19  F   UNL     1      27.103  41.882  49.411  1.00  0.00    -0.203 F 
HETATM   20  C   UNL     1      27.385  41.659  51.739  1.00  0.00     0.045 A 
HETATM   21  C   UNL     1      27.557  42.251  52.992  1.00  0.00     0.003 A 
HETATM   22  C   UNL     1      27.630  43.642  53.104  1.00  0.00     0.003 A 
HETATM   23  C   UNL     1      27.537  44.443  51.964  1.00  0.00     0.040 A 
ENDBRANCH  16  17
ENDBRANCH   4  16
TORSDOF 5
ENDMDL
MODEL 6
REMARK VINA RESULT:      -6.9     18.502     19.859
REMARK  5 active torsions:
REMARK  status: ('A' for Active; 'I' for Inactive)
REMARK    1  A    between atoms: C_2  and  C_3 
REMARK    2  A    between atoms: C_2  and  C_20 
REMARK       I    between atoms: C_3  and  N_4 
REMARK    3  A    between atoms: N_4  and  C_5 
REMARK    4  A    between atoms: C_8  and  O_9 
REMARK    5  A    between atoms: O_9  and  C_10 
ROOT
HETATM    1  C   UNL     1      37.703  43.540  64.405  1.00  0.00     0.052 A 
HETATM    2  C   UNL     1      37.286  44.343  63.346  1.00  0.00     0.149 A 
HETATM    3  N   UNL     1      36.839  45.619  63.485  1.00  0.00    -0.235 NA
HETATM    4  C   UNL     1      36.813  46.124  64.736  1.00  0.00     0.169 A 
HETATM    5  C   UNL     1      37.214  45.412  65.854  1.00  0.00     0.060 A 
HETATM    6  C   UNL     1      37.655  44.100  65.684  1.00  0.00     0.035 A 
ENDROOT
BRANCH   1   7
HETATM    7  N   UNL     1      38.163  42.210  64.292  1.00  0.00    -0.325 N 
HETATM    8  C   UNL     1      39.439  41.802  63.937  1.00  0.00     0.231 C 
HETATM    9  O   UNL     1      40.374  42.569  63.731  1.00  0.00    -0.272 OA
HETATM   10  H   UNL     1      37.495  41.494  64.546  1.00  0.00     0.169 HD
BRANCH   8  11
HETATM   11  C   UNL     1      39.628  40.269  63.902  1.00  0.00     0.046 C 
HETATM   12  C   UNL     1      38.519  39.629  64.762  1.00  0.00     0.026 C 
HETATM   13  C   UNL     1      39.525  39.726  62.465  1.00  0.00     0.026 C 
BRANCH  11  14
HETATM   14  C   UNL     1      40.986  39.894  64.540  1.00  0.00     0.133 C 
HETATM   15 CL   UNL     1      41.477  38.196  64.273  1.00  0.00    -0.129 Cl
ENDBRANCH  11  14
ENDBRANCH   8  11
ENDBRANCH   1   7
BRANCH   4  16
HETATM   16  O   UNL     1      36.389  47.430  64.963  1.00  0.00    -0.289 OA
BRANCH  16  17
HETATM   17  C   UNL     1      37.348  48.326  65.362  1.00  0.00     0.116 A 
HETATM   18  C   UNL     1      37.166  49.023  66.553  1.00  0.00     0.150 A 
HETATM   19  F   UNL     1      36.094  48.782  67.323  1.00  0.00    -0.203 F 
HETATM   20  C   UNL     1      38.087  49.985  66.959  1.00  0.00     0.045 A 
HETATM   21  C   UNL     1      39.194  50.263  66.154  1.00  0.00     0.003 A 
HETATM   22  C   UNL     1      39.370  49.582  64.947  1.00  0.00     0.003 A 
HETATM   23  C   UNL     1      38.443  48.618  64.544  1.00  0.00     0.040 A 
ENDBRANCH  16  17
ENDBRANCH   4  16
TORSDOF 5
ENDMDL
MODEL 7
REMARK VINA RESULT:      -6.9      4.037      8.297
REMARK  5 active torsions:
REMARK  status: ('A' for Active; 'I' for Inactive)
REMARK    1  A    between atoms: C_2  and  C_3 
REMARK    2  A    between atoms: C_2  and  C_20 
REMARK       I    between atoms: C_3  and  N_4 
REMARK    3  A    between atoms: N_4  and  C_5 
REMARK    4  A    between atoms: C_8  and  O_9 
REMARK    5  A    between atoms: O_9  and  C_10 
ROOT
HETATM    1  C   UNL     1      25.031  45.275  52.203  1.00  0.00     0.052 A 
HETATM    2  C   UNL     1      25.372  44.314  53.152  1.00  0.00     0.149 A 
HETATM    3  N   UNL     1      26.251  44.522  54.168  1.00  0.00    -0.235 NA
HETATM    4  C   UNL     1      26.812  45.747  54.248  1.00  0.00     0.169 A 
HETATM    5  C   UNL     1      26.534  46.773  53.360  1.00  0.00     0.060 A 
HETATM    6  C   UNL     1      25.639  46.527  52.319  1.00  0.00     0.035 A 
ENDROOT
BRANCH   1   7
HETATM    7  N   UNL     1      24.130  45.084  51.133  1.00  0.00    -0.325 N 
HETATM    8  C   UNL     1      24.425  45.154  49.780  1.00  0.00     0.231 C 
HETATM    9  O   UNL     1      25.551  45.335  49.329  1.00  0.00    -0.272 OA
HETATM   10  H   UNL     1      23.189  44.822  51.395  1.00  0.00     0.169 HD
BRANCH   8  11
HETATM   11  C   UNL     1      23.215  44.897  48.853  1.00  0.00     0.046 C 
HETATM   12  C   UNL     1      22.149  44.126  49.659  1.00  0.00     0.026 C 
HETATM   13  C   UNL     1      22.606  46.218  48.350  1.00  0.00     0.026 C 
BRANCH  11  14
HETATM   14  C   UNL     1      23.644  43.997  47.670  1.00  0.00     0.133 C 
HETATM   15 CL   UNL     1      24.295  42.406  48.159  1.00  0.00    -0.129 Cl
ENDBRANCH  11  14
ENDBRANCH   8  11
ENDBRANCH   1   7
BRANCH   4  16
HETATM   16  O   UNL     1      27.707  46.050  55.270  1.00  0.00    -0.289 OA
BRANCH  16  17
HETATM   17  C   UNL     1      28.771  45.198  55.426  1.00  0.00     0.116 A 
HETATM   18  C   UNL     1      29.649  45.403  56.487  1.00  0.00     0.150 A 
HETATM   19  F   UNL     1      29.425  46.386  57.372  1.00  0.00    -0.203 F 
HETATM   20  C   UNL     1      30.774  44.598  56.641  1.00  0.00     0.045 A 
HETATM   21  C   UNL     1      31.032  43.587  55.712  1.00  0.00     0.003 A 
HETATM   22  C   UNL     1      30.166  43.391  54.634  1.00  0.00     0.003 A 
HETATM   23  C   UNL     1      29.038  44.202  54.483  1.00  0.00     0.040 A 
ENDBRANCH  16  17
ENDBRANCH   4  16
TORSDOF 5
ENDMDL
MODEL 8
REMARK VINA RESULT:      -6.9      5.933      7.626
REMARK  5 active torsions:
REMARK  status: ('A' for Active; 'I' for Inactive)
REMARK    1  A    between atoms: C_2  and  C_3 
REMARK    2  A    between atoms: C_2  and  C_20 
REMARK       I    between atoms: C_3  and  N_4 
REMARK    3  A    between atoms: N_4  and  C_5 
REMARK    4  A    between atoms: C_8  and  O_9 
REMARK    5  A    between atoms: O_9  and  C_10 
ROOT
HETATM    1  C   UNL     1      28.038  41.401  51.575  1.00  0.00     0.052 A 
HETATM    2  C   UNL     1      28.469  41.178  52.881  1.00  0.00     0.149 A 
HETATM    3  N   UNL     1      28.083  41.924  53.951  1.00  0.00    -0.235 NA
HETATM    4  C   UNL     1      27.222  42.935  53.711  1.00  0.00     0.169 A 
HETATM    5  C   UNL     1      26.728  43.233  52.453  1.00  0.00     0.060 A 
HETATM    6  C   UNL     1      27.151  42.461  51.371  1.00  0.00     0.035 A 
ENDROOT
BRANCH   1   7
HETATM    7  N   UNL     1      28.429  40.650  50.446  1.00  0.00    -0.325 N 
HETATM    8  C   UNL     1      27.716  39.621  49.848  1.00  0.00     0.231 C 
HETATM    9  O   UNL     1      26.596  39.266  50.199  1.00  0.00    -0.272 OA
HETATM   10  H   UNL     1      29.295  40.935  50.010  1.00  0.00     0.169 HD
BRANCH   8  11
HETATM   11  C   UNL     1      28.416  38.995  48.622  1.00  0.00     0.046 C 
HETATM   12  C   UNL     1      29.764  38.406  49.087  1.00  0.00     0.026 C 
HETATM   13  C   UNL     1      27.563  37.871  48.006  1.00  0.00     0.026 C 
BRANCH  11  14
HETATM   14  C   UNL     1      28.725  40.093  47.577  1.00  0.00     0.133 C 
HETATM   15 CL   UNL     1      27.307  41.072  47.104  1.00  0.00    -0.129 Cl
ENDBRANCH  11  14
ENDBRANCH   8  11
ENDBRANCH   1   7
BRANCH   4  16
HETATM   16  O   UNL     1      26.761  43.733  54.754  1.00  0.00    -0.289 OA
BRANCH  16  17
HETATM   17  C   UNL     1      27.093  45.064  54.700  1.00  0.00     0.116 A 
HETATM   18  C   UNL     1      28.358  45.460  55.123  1.00  0.00     0.150 A 
HETATM   19  F   UNL     1      29.255  44.548  55.529  1.00  0.00    -0.203 F 
HETATM   20  C   UNL     1      28.709  46.807  55.143  1.00  0.00     0.045 A 
HETATM   21  C   UNL     1      27.776  47.769  54.748  1.00  0.00     0.003 A 
HETATM   22  C   UNL     1      26.498  47.378  54.342  1.00  0.00     0.003 A 
HETATM   23  C   UNL     1      26.151  46.025  54.325  1.00  0.00     0.040 A 
ENDBRANCH  16  17
ENDBRANCH   4  16
TORSDOF 5
ENDMDL
MODEL 9
REMARK VINA RESULT:      -6.7      3.181      5.039
REMARK  5 active torsions:
REMARK  status: ('A' for Active; 'I' for Inactive)
REMARK    1  A    between atoms: C_2  and  C_3 
REMARK    2  A    between atoms: C_2  and  C_20 
REMARK       I    between atoms: C_3  and  N_4 
REMARK    3  A    between atoms: N_4  and  C_5 
REMARK    4  A    between atoms: C_8  and  O_9 
REMARK    5  A    between atoms: O_9  and  C_10 
ROOT
HETATM    1  C   UNL     1      22.461  48.520  49.225  1.00  0.00     0.052 A 
HETATM    2  C   UNL     1      22.392  49.889  49.474  1.00  0.00     0.149 A 
HETATM    3  N   UNL     1      21.510  50.731  48.874  1.00  0.00    -0.235 NA
HETATM    4  C   UNL     1      20.651  50.186  47.988  1.00  0.00     0.169 A 
HETATM    5  C   UNL     1      20.632  48.836  47.676  1.00  0.00     0.060 A 
HETATM    6  C   UNL     1      21.557  47.997  48.296  1.00  0.00     0.035 A 
ENDROOT
BRANCH   1   7
HETATM    7  N   UNL     1      23.372  47.623  49.825  1.00  0.00    -0.325 N 
HETATM    8  C   UNL     1      24.750  47.762  49.889  1.00  0.00     0.231 C 
HETATM    9  O   UNL     1      25.363  48.740  49.476  1.00  0.00    -0.272 OA
HETATM   10  H   UNL     1      22.958  46.829  50.294  1.00  0.00     0.169 HD
BRANCH   8  11
HETATM   11  C   UNL     1      25.470  46.604  50.617  1.00  0.00     0.046 C 
HETATM   12  C   UNL     1      26.647  46.141  49.734  1.00  0.00     0.026 C 
HETATM   13  C   UNL     1      26.015  47.057  51.983  1.00  0.00     0.026 C 
BRANCH  11  14
HETATM   14  C   UNL     1      24.506  45.404  50.774  1.00  0.00     0.133 C 
HETATM   15 CL   UNL     1      24.993  44.235  52.034  1.00  0.00    -0.129 Cl
ENDBRANCH  11  14
ENDBRANCH   8  11
ENDBRANCH   1   7
BRANCH   4  16
HETATM   16  O   UNL     1      19.702  50.975  47.345  1.00  0.00    -0.289 OA
BRANCH  16  17
HETATM   17  C   UNL     1      18.575  51.286  48.062  1.00  0.00     0.116 A 
HETATM   18  C   UNL     1      17.418  50.540  47.858  1.00  0.00     0.150 A 
HETATM   19  F   UNL     1      17.423  49.499  47.010  1.00  0.00    -0.203 F 
HETATM   20  C   UNL     1      16.238  50.866  48.521  1.00  0.00     0.045 A 
HETATM   21  C   UNL     1      16.213  51.962  49.386  1.00  0.00     0.003 A 
HETATM   22  C   UNL     1      17.366  52.727  49.578  1.00  0.00     0.003 A 
HETATM   23  C   UNL     1      18.547  52.397  48.910  1.00  0.00     0.040 A 
ENDBRANCH  16  17
ENDBRANCH   4  16
TORSDOF 5
ENDMDL
MODEL 10
REMARK VINA RESULT:      -6.7     12.822     13.907
REMARK  5 active torsions:
REMARK  status: ('A' for Active; 'I' for Inactive)
REMARK    1  A    between atoms: C_2  and  C_3 
REMARK    2  A    between atoms: C_2  and  C_20 
REMARK       I    between atoms: C_3  and  N_4 
REMARK    3  A    between atoms: N_4  and  C_5 
REMARK    4  A    between atoms: C_8  and  O_9 
REMARK    5  A    between atoms: O_9  and  C_10 
ROOT
HETATM    1  C   UNL     1      34.572  51.618  43.410  1.00  0.00     0.052 A 
HETATM    2  C   UNL     1      34.237  51.006  42.204  1.00  0.00     0.149 A 
HETATM    3  N   UNL     1      32.965  50.711  41.824  1.00  0.00    -0.235 NA
HETATM    4  C   UNL     1      31.979  51.047  42.681  1.00  0.00     0.169 A 
HETATM    5  C   UNL     1      32.205  51.665  43.900  1.00  0.00     0.060 A 
HETATM    6  C   UNL     1      33.520  51.943  44.270  1.00  0.00     0.035 A 
ENDROOT
BRANCH   1   7
HETATM    7  N   UNL     1      35.882  51.927  43.835  1.00  0.00    -0.325 N 
HETATM    8  C   UNL     1      36.741  52.852  43.262  1.00  0.00     0.231 C 
HETATM    9  O   UNL     1      36.439  53.584  42.326  1.00  0.00    -0.272 OA
HETATM   10  H   UNL     1      36.194  51.453  44.672  1.00  0.00     0.169 HD
BRANCH   8  11
HETATM   11  C   UNL     1      38.115  52.959  43.962  1.00  0.00     0.046 C 
HETATM   12  C   UNL     1      38.830  51.599  43.827  1.00  0.00     0.026 C 
HETATM   13  C   UNL     1      38.986  54.051  43.316  1.00  0.00     0.026 C 
BRANCH  11  14
HETATM   14  C   UNL     1      37.914  53.231  45.472  1.00  0.00     0.133 C 
HETATM   15 CL   UNL     1      37.535  54.932  45.865  1.00  0.00    -0.129 Cl
ENDBRANCH  11  14
ENDBRANCH   8  11
ENDBRANCH   1   7
BRANCH   4  16
HETATM   16  O   UNL     1      30.648  50.798  42.360  1.00  0.00    -0.289 OA
BRANCH  16  17
HETATM   17  C   UNL     1      30.136  51.487  41.289  1.00  0.00     0.116 A 
HETATM   18  C   UNL     1      29.806  50.786  40.133  1.00  0.00     0.150 A 
HETATM   19  F   UNL     1      29.939  49.452  40.087  1.00  0.00    -0.203 F 
HETATM   20  C   UNL     1      29.344  51.459  39.005  1.00  0.00     0.045 A 
HETATM   21  C   UNL     1      29.226  52.850  39.030  1.00  0.00     0.003 A 
HETATM   22  C   UNL     1      29.576  53.560  40.181  1.00  0.00     0.003 A 
HETATM   23  C   UNL     1      30.040  52.881  41.311  1.00  0.00     0.040 A 
ENDBRANCH  16  17
ENDBRANCH   4  16
TORSDOF 5
ENDMDL
