MODEL 1
REMARK VINA RESULT:     -10.1      0.000      0.000
REMARK  5 active torsions:
REMARK  status: ('A' for Active; 'I' for Inactive)
REMARK    1  A    between atoms: C_2  and  C_3 
REMARK    2  A    between atoms: C_6  and  C_7 
REMARK    3  A    between atoms: C_11  and  C_12 
REMARK       I    between atoms: C_12  and  N_13 
REMARK    4  A    between atoms: N_13  and  N_14 
REMARK    5  A    between atoms: C_15  and  C_16 
ROOT
HETATM    1  C   UNL     1      25.913  46.227  50.003  1.00  0.00     0.289 C 
HETATM    2  N   UNL     1      25.891  45.458  51.159  1.00  0.00    -0.242 N 
HETATM    3  O   UNL     1      26.903  46.409  49.299  1.00  0.00    -0.264 OA
HETATM    4  H   UNL     1      24.991  45.207  51.552  1.00  0.00     0.192 HD
ENDROOT
BRANCH   1   5
HETATM    5  C   UNL     1      24.644  46.820  49.655  1.00  0.00     0.121 A 
HETATM    6  N   UNL     1      23.640  46.071  49.109  1.00  0.00    -0.272 N 
HETATM    7  N   UNL     1      22.534  46.766  48.811  1.00  0.00    -0.174 NA
HETATM    8  H   UNL     1      23.663  45.075  48.909  1.00  0.00     0.189 HD
HETATM    9  C   UNL     1      22.808  48.024  49.189  1.00  0.00     0.089 A 
HETATM   10  C   UNL     1      24.127  48.098  49.724  1.00  0.00     0.071 A 
BRANCH   9  11
HETATM   11  C   UNL     1      21.834  49.107  49.024  1.00  0.00    -0.006 A 
HETATM   12  C   UNL     1      20.468  48.897  49.256  1.00  0.00     0.014 A 
HETATM   13  C   UNL     1      19.548  49.941  49.099  1.00  0.00     0.008 A 
HETATM   14  C   UNL     1      19.975  51.213  48.705  1.00  0.00    -0.059 A 
HETATM   15  C   UNL     1      21.339  51.429  48.478  1.00  0.00     0.008 A 
HETATM   16  C   UNL     1      22.256  50.386  48.632  1.00  0.00     0.014 A 
BRANCH  14  17
HETATM   17  C   UNL     1      18.987  52.341  48.550  1.00  0.00     0.034 C 
HETATM   18  C   UNL     1      17.976  52.368  49.687  1.00  0.00     0.010 C 
ENDBRANCH  14  17
ENDBRANCH   9  11
ENDBRANCH   1   5
BRANCH   2  19
HETATM   19  N   UNL     1      26.930  44.739  51.701  1.00  0.00    -0.183 NA
HETATM   20  C   UNL     1      26.874  44.373  52.942  1.00  0.00     0.153 C 
BRANCH  20  21
HETATM   21  C   UNL     1      27.977  43.628  53.530  1.00  0.00     0.018 A 
HETATM   22  C   UNL     1      28.886  44.127  54.524  1.00  0.00     0.004 A 
HETATM   23  C   UNL     1      29.776  43.101  54.832  1.00  0.00     0.043 A 
HETATM   24  C   UNL     1      29.032  45.362  55.194  1.00  0.00     0.014 A 
HETATM   25  C   UNL     1      30.800  43.239  55.777  1.00  0.00     0.030 A 
HETATM   26  N   UNL     1      29.434  42.023  54.053  1.00  0.00    -0.358 N 
HETATM   27  C   UNL     1      30.921  44.470  56.427  1.00  0.00     0.002 A 
HETATM   28  C   UNL     1      30.053  45.519  56.141  1.00  0.00     0.001 A 
HETATM   29  H   UNL     1      29.918  41.135  54.069  1.00  0.00     0.166 HD
HETATM   30  C   UNL     1      28.353  42.318  53.260  1.00  0.00     0.018 A 
HETATM   31  C   UNL     1      27.793  41.307  52.324  1.00  0.00     0.069 C 
ENDBRANCH  20  21
ENDBRANCH   2  19
TORSDOF 5
ENDMDL
MODEL 2
REMARK VINA RESULT:      -9.9      1.842     11.084
REMARK  5 active torsions:
REMARK  status: ('A' for Active; 'I' for Inactive)
REMARK    1  A    between atoms: C_2  and  C_3 
REMARK    2  A    between atoms: C_6  and  C_7 
REMARK    3  A    between atoms: C_11  and  C_12 
REMARK       I    between atoms: C_12  and  N_13 
REMARK    4  A    between atoms: N_13  and  N_14 
REMARK    5  A    between atoms: C_15  and  C_16 
ROOT
HETATM    1  C   UNL     1      24.179  47.456  49.999  1.00  0.00     0.289 C 
HETATM    2  N   UNL     1      23.157  46.895  49.244  1.00  0.00    -0.242 N 
HETATM    3  O   UNL     1      24.486  48.645  49.993  1.00  0.00    -0.264 OA
HETATM    4  H   UNL     1      22.854  45.955  49.470  1.00  0.00     0.192 HD
ENDROOT
BRANCH   1   5
HETATM    5  C   UNL     1      24.886  46.518  50.839  1.00  0.00     0.121 A 
HETATM    6  N   UNL     1      24.295  45.360  51.259  1.00  0.00    -0.272 N 
HETATM    7  N   UNL     1      25.063  44.607  52.056  1.00  0.00    -0.174 NA
HETATM    8  H   UNL     1      23.357  45.039  51.034  1.00  0.00     0.189 HD
HETATM    9  C   UNL     1      26.218  45.284  52.158  1.00  0.00     0.089 A 
HETATM   10  C   UNL     1      26.144  46.492  51.407  1.00  0.00     0.071 A 
BRANCH   9  11
HETATM   11  C   UNL     1      27.336  44.781  52.962  1.00  0.00    -0.006 A 
HETATM   12  C   UNL     1      27.605  45.299  54.236  1.00  0.00     0.014 A 
HETATM   13  C   UNL     1      28.674  44.807  54.995  1.00  0.00     0.008 A 
HETATM   14  C   UNL     1      29.496  43.792  54.494  1.00  0.00    -0.059 A 
HETATM   15  C   UNL     1      29.228  43.268  53.224  1.00  0.00     0.008 A 
HETATM   16  C   UNL     1      28.163  43.762  52.466  1.00  0.00     0.014 A 
BRANCH  14  17
HETATM   17  C   UNL     1      30.639  43.253  55.316  1.00  0.00     0.034 C 
HETATM   18  C   UNL     1      30.999  44.185  56.464  1.00  0.00     0.010 C 
ENDBRANCH  14  17
ENDBRANCH   9  11
ENDBRANCH   1   5
BRANCH   2  19
HETATM   19  N   UNL     1      22.291  47.549  48.401  1.00  0.00    -0.183 NA
HETATM   20  C   UNL     1      21.105  47.859  48.820  1.00  0.00     0.153 C 
BRANCH  20  21
HETATM   21  C   UNL     1      20.173  48.534  47.928  1.00  0.00     0.018 A 
HETATM   22  C   UNL     1      19.736  49.897  48.054  1.00  0.00     0.004 A 
HETATM   23  C   UNL     1      18.867  50.158  46.997  1.00  0.00     0.043 A 
HETATM   24  C   UNL     1      20.001  50.936  48.972  1.00  0.00     0.014 A 
HETATM   25  C   UNL     1      18.255  51.403  46.804  1.00  0.00     0.030 A 
HETATM   26  N   UNL     1      18.768  49.003  46.261  1.00  0.00    -0.358 N 
HETATM   27  C   UNL     1      18.537  52.414  47.725  1.00  0.00     0.002 A 
HETATM   28  C   UNL     1      19.396  52.187  48.796  1.00  0.00     0.001 A 
HETATM   29  H   UNL     1      18.198  48.905  45.432  1.00  0.00     0.166 HD
HETATM   30  C   UNL     1      19.546  48.010  46.805  1.00  0.00     0.018 A 
HETATM   31  C   UNL     1      19.607  46.660  46.185  1.00  0.00     0.069 C 
ENDBRANCH  20  21
ENDBRANCH   2  19
TORSDOF 5
ENDMDL
MODEL 3
REMARK VINA RESULT:      -9.5      1.808      2.163
REMARK  5 active torsions:
REMARK  status: ('A' for Active; 'I' for Inactive)
REMARK    1  A    between atoms: C_2  and  C_3 
REMARK    2  A    between atoms: C_6  and  C_7 
REMARK    3  A    between atoms: C_11  and  C_12 
REMARK       I    between atoms: C_12  and  N_13 
REMARK    4  A    between atoms: N_13  and  N_14 
REMARK    5  A    between atoms: C_15  and  C_16 
ROOT
HETATM    1  C   UNL     1      26.178  48.051  49.213  1.00  0.00     0.289 C 
HETATM    2  N   UNL     1      25.862  46.917  49.951  1.00  0.00    -0.242 N 
HETATM    3  O   UNL     1      27.305  48.347  48.829  1.00  0.00    -0.264 OA
HETATM    4  H   UNL     1      24.886  46.661  50.044  1.00  0.00     0.192 HD
ENDROOT
BRANCH   1   5
HETATM    5  C   UNL     1      25.049  48.894  48.902  1.00  0.00     0.121 A 
HETATM    6  N   UNL     1      25.147  49.895  47.976  1.00  0.00    -0.272 N 
HETATM    7  N   UNL     1      24.026  50.611  47.818  1.00  0.00    -0.174 NA
HETATM    8  H   UNL     1      25.967  50.137  47.427  1.00  0.00     0.189 HD
HETATM    9  C   UNL     1      23.143  50.055  48.660  1.00  0.00     0.089 A 
HETATM   10  C   UNL     1      23.749  48.972  49.361  1.00  0.00     0.071 A 
BRANCH   9  11
HETATM   11  C   UNL     1      21.773  50.564  48.786  1.00  0.00    -0.006 A 
HETATM   12  C   UNL     1      21.247  50.934  50.032  1.00  0.00     0.014 A 
HETATM   13  C   UNL     1      19.940  51.423  50.137  1.00  0.00     0.008 A 
HETATM   14  C   UNL     1      19.132  51.548  49.002  1.00  0.00    -0.059 A 
HETATM   15  C   UNL     1      19.654  51.184  47.756  1.00  0.00     0.008 A 
HETATM   16  C   UNL     1      20.959  50.693  47.652  1.00  0.00     0.014 A 
BRANCH  14  17
HETATM   17  C   UNL     1      17.728  52.086  49.113  1.00  0.00     0.034 C 
HETATM   18  C   UNL     1      16.686  51.015  48.829  1.00  0.00     0.010 C 
ENDBRANCH  14  17
ENDBRANCH   9  11
ENDBRANCH   1   5
BRANCH   2  19
HETATM   19  N   UNL     1      26.717  45.917  50.346  1.00  0.00    -0.183 NA
HETATM   20  C   UNL     1      26.403  45.170  51.356  1.00  0.00     0.153 C 
BRANCH  20  21
HETATM   21  C   UNL     1      27.310  44.120  51.794  1.00  0.00     0.018 A 
HETATM   22  C   UNL     1      28.102  44.146  52.993  1.00  0.00     0.004 A 
HETATM   23  C   UNL     1      28.814  42.950  53.052  1.00  0.00     0.043 A 
HETATM   24  C   UNL     1      28.277  45.080  54.037  1.00  0.00     0.014 A 
HETATM   25  C   UNL     1      29.686  42.635  54.102  1.00  0.00     0.030 A 
HETATM   26  N   UNL     1      28.481  42.227  51.934  1.00  0.00    -0.358 N 
HETATM   27  C   UNL     1      29.839  43.575  55.123  1.00  0.00     0.002 A 
HETATM   28  C   UNL     1      29.147  44.782  55.094  1.00  0.00     0.001 A 
HETATM   29  H   UNL     1      28.855  41.313  51.717  1.00  0.00     0.166 HD
HETATM   30  C   UNL     1      27.578  42.913  51.160  1.00  0.00     0.018 A 
HETATM   31  C   UNL     1      27.062  42.334  49.891  1.00  0.00     0.069 C 
ENDBRANCH  20  21
ENDBRANCH   2  19
TORSDOF 5
ENDMDL
MODEL 4
REMARK VINA RESULT:      -9.5      1.912      3.018
REMARK  5 active torsions:
REMARK  status: ('A' for Active; 'I' for Inactive)
REMARK    1  A    between atoms: C_2  and  C_3 
REMARK    2  A    between atoms: C_6  and  C_7 
REMARK    3  A    between atoms: C_11  and  C_12 
REMARK       I    between atoms: C_12  and  N_13 
REMARK    4  A    between atoms: N_13  and  N_14 
REMARK    5  A    between atoms: C_15  and  C_16 
ROOT
HETATM    1  C   UNL     1      25.866  48.169  49.529  1.00  0.00     0.289 C 
HETATM    2  N   UNL     1      25.624  47.560  50.754  1.00  0.00    -0.242 N 
HETATM    3  O   UNL     1      26.920  48.094  48.903  1.00  0.00    -0.264 OA
HETATM    4  H   UNL     1      24.668  47.515  51.086  1.00  0.00     0.192 HD
ENDROOT
BRANCH   1   5
HETATM    5  C   UNL     1      24.752  48.922  49.005  1.00  0.00     0.121 A 
HETATM    6  N   UNL     1      24.887  49.706  47.894  1.00  0.00    -0.272 N 
HETATM    7  N   UNL     1      23.775  50.367  47.547  1.00  0.00    -0.174 NA
HETATM    8  H   UNL     1      25.728  49.833  47.338  1.00  0.00     0.189 HD
HETATM    9  C   UNL     1      22.858  49.994  48.453  1.00  0.00     0.089 A 
HETATM   10  C   UNL     1      23.435  49.086  49.388  1.00  0.00     0.071 A 
BRANCH   9  11
HETATM   11  C   UNL     1      21.486  50.510  48.418  1.00  0.00    -0.006 A 
HETATM   12  C   UNL     1      20.664  50.309  47.300  1.00  0.00     0.014 A 
HETATM   13  C   UNL     1      19.354  50.803  47.281  1.00  0.00     0.008 A 
HETATM   14  C   UNL     1      18.842  51.508  48.375  1.00  0.00    -0.059 A 
HETATM   15  C   UNL     1      19.657  51.706  49.495  1.00  0.00     0.008 A 
HETATM   16  C   UNL     1      20.966  51.216  49.512  1.00  0.00     0.014 A 
BRANCH  14  17
HETATM   17  C   UNL     1      17.427  52.028  48.360  1.00  0.00     0.034 C 
HETATM   18  C   UNL     1      17.028  52.624  49.702  1.00  0.00     0.010 C 
ENDBRANCH  14  17
ENDBRANCH   9  11
ENDBRANCH   1   5
BRANCH   2  19
HETATM   19  N   UNL     1      26.476  46.747  51.461  1.00  0.00    -0.183 NA
HETATM   20  C   UNL     1      26.105  46.281  52.612  1.00  0.00     0.153 C 
BRANCH  20  21
HETATM   21  C   UNL     1      27.007  45.435  53.378  1.00  0.00     0.018 A 
HETATM   22  C   UNL     1      27.337  44.071  53.070  1.00  0.00     0.004 A 
HETATM   23  C   UNL     1      28.242  43.630  54.032  1.00  0.00     0.043 A 
HETATM   24  C   UNL     1      26.948  43.169  52.055  1.00  0.00     0.014 A 
HETATM   25  C   UNL     1      28.785  42.339  54.032  1.00  0.00     0.030 A 
HETATM   26  N   UNL     1      28.450  44.674  54.899  1.00  0.00    -0.358 N 
HETATM   27  C   UNL     1      28.385  41.468  53.016  1.00  0.00     0.002 A 
HETATM   28  C   UNL     1      27.479  41.873  52.041  1.00  0.00     0.001 A 
HETATM   29  H   UNL     1      29.064  44.633  55.701  1.00  0.00     0.166 HD
HETATM   30  C   UNL     1      27.715  45.772  54.525  1.00  0.00     0.018 A 
HETATM   31  C   UNL     1      27.771  47.034  55.310  1.00  0.00     0.069 C 
ENDBRANCH  20  21
ENDBRANCH   2  19
TORSDOF 5
ENDMDL
MODEL 5
REMARK VINA RESULT:      -9.3      2.018     10.769
REMARK  5 active torsions:
REMARK  status: ('A' for Active; 'I' for Inactive)
REMARK    1  A    between atoms: C_2  and  C_3 
REMARK    2  A    between atoms: C_6  and  C_7 
REMARK    3  A    between atoms: C_11  and  C_12 
REMARK       I    between atoms: C_12  and  N_13 
REMARK    4  A    between atoms: N_13  and  N_14 
REMARK    5  A    between atoms: C_15  and  C_16 
ROOT
HETATM    1  C   UNL     1      23.866  44.061  50.765  1.00  0.00     0.289 C 
HETATM    2  N   UNL     1      23.791  45.367  50.297  1.00  0.00    -0.242 N 
HETATM    3  O   UNL     1      22.988  43.214  50.630  1.00  0.00    -0.264 OA
HETATM    4  H   UNL     1      24.639  45.921  50.281  1.00  0.00     0.192 HD
ENDROOT
BRANCH   1   5
HETATM    5  C   UNL     1      25.099  43.741  51.444  1.00  0.00     0.121 A 
HETATM    6  N   UNL     1      25.738  42.553  51.226  1.00  0.00    -0.272 N 
HETATM    7  N   UNL     1      26.853  42.385  51.950  1.00  0.00    -0.174 NA
HETATM    8  H   UNL     1      25.447  41.812  50.595  1.00  0.00     0.189 HD
HETATM    9  C   UNL     1      26.968  43.514  52.667  1.00  0.00     0.089 A 
HETATM   10  C   UNL     1      25.883  44.391  52.376  1.00  0.00     0.071 A 
BRANCH   9  11
HETATM   11  C   UNL     1      28.078  43.723  53.601  1.00  0.00    -0.006 A 
HETATM   12  C   UNL     1      28.098  44.822  54.472  1.00  0.00     0.014 A 
HETATM   13  C   UNL     1      29.163  45.007  55.362  1.00  0.00     0.008 A 
HETATM   14  C   UNL     1      30.228  44.101  55.398  1.00  0.00    -0.059 A 
HETATM   15  C   UNL     1      30.209  43.000  54.534  1.00  0.00     0.008 A 
HETATM   16  C   UNL     1      29.148  42.818  53.643  1.00  0.00     0.014 A 
BRANCH  14  17
HETATM   17  C   UNL     1      31.367  44.293  56.366  1.00  0.00     0.034 C 
HETATM   18  C   UNL     1      31.552  43.083  57.270  1.00  0.00     0.010 C 
ENDBRANCH  14  17
ENDBRANCH   9  11
ENDBRANCH   1   5
BRANCH   2  19
HETATM   19  N   UNL     1      22.767  45.934  49.577  1.00  0.00    -0.183 NA
HETATM   20  C   UNL     1      23.005  46.972  48.838  1.00  0.00     0.153 C 
BRANCH  20  21
HETATM   21  C   UNL     1      21.925  47.592  48.086  1.00  0.00     0.018 A 
HETATM   22  C   UNL     1      21.394  48.906  48.316  1.00  0.00     0.004 A 
HETATM   23  C   UNL     1      20.390  49.124  47.375  1.00  0.00     0.043 A 
HETATM   24  C   UNL     1      21.677  49.935  49.241  1.00  0.00     0.014 A 
HETATM   25  C   UNL     1      19.659  50.317  47.304  1.00  0.00     0.030 A 
HETATM   26  N   UNL     1      20.303  47.989  46.608  1.00  0.00    -0.358 N 
HETATM   27  C   UNL     1      19.961  51.319  48.228  1.00  0.00     0.002 A 
HETATM   28  C   UNL     1      20.954  51.134  49.186  1.00  0.00     0.001 A 
HETATM   29  H   UNL     1      19.651  47.869  45.844  1.00  0.00     0.166 HD
HETATM   30  C   UNL     1      21.217  47.051  47.019  1.00  0.00     0.018 A 
HETATM   31  C   UNL     1      21.317  45.731  46.341  1.00  0.00     0.069 C 
ENDBRANCH  20  21
ENDBRANCH   2  19
TORSDOF 5
ENDMDL
MODEL 6
REMARK VINA RESULT:      -9.1      6.362      9.714
REMARK  5 active torsions:
REMARK  status: ('A' for Active; 'I' for Inactive)
REMARK    1  A    between atoms: C_2  and  C_3 
REMARK    2  A    between atoms: C_6  and  C_7 
REMARK    3  A    between atoms: C_11  and  C_12 
REMARK       I    between atoms: C_12  and  N_13 
REMARK    4  A    between atoms: N_13  and  N_14 
REMARK    5  A    between atoms: C_15  and  C_16 
ROOT
HETATM    1  C   UNL     1      27.785  41.578  51.651  1.00  0.00     0.289 C 
HETATM    2  N   UNL     1      28.697  41.602  52.699  1.00  0.00    -0.242 N 
HETATM    3  O   UNL     1      26.798  42.303  51.562  1.00  0.00    -0.264 OA
HETATM    4  H   UNL     1      29.576  41.113  52.581  1.00  0.00     0.192 HD
ENDROOT
BRANCH   1   5
HETATM    5  C   UNL     1      28.085  40.614  50.620  1.00  0.00     0.121 A 
HETATM    6  N   UNL     1      28.827  39.499  50.888  1.00  0.00    -0.272 N 
HETATM    7  N   UNL     1      29.048  38.714  49.826  1.00  0.00    -0.174 NA
HETATM    8  H   UNL     1      29.217  39.230  51.788  1.00  0.00     0.189 HD
HETATM    9  C   UNL     1      28.414  39.325  48.812  1.00  0.00     0.089 A 
HETATM   10  C   UNL     1      27.797  40.524  49.272  1.00  0.00     0.071 A 
BRANCH   9  11
HETATM   11  C   UNL     1      28.421  38.770  47.455  1.00  0.00    -0.006 A 
HETATM   12  C   UNL     1      28.903  37.479  47.200  1.00  0.00     0.014 A 
HETATM   13  C   UNL     1      28.899  36.961  45.900  1.00  0.00     0.008 A 
HETATM   14  C   UNL     1      28.417  37.722  44.830  1.00  0.00    -0.059 A 
HETATM   15  C   UNL     1      27.930  39.009  45.081  1.00  0.00     0.008 A 
HETATM   16  C   UNL     1      27.937  39.528  46.379  1.00  0.00     0.014 A 
BRANCH  14  17
HETATM   17  C   UNL     1      28.401  37.158  43.432  1.00  0.00     0.034 C 
HETATM   18  C   UNL     1      29.803  37.043  42.851  1.00  0.00     0.010 C 
ENDBRANCH  14  17
ENDBRANCH   9  11
ENDBRANCH   1   5
BRANCH   2  19
HETATM   19  N   UNL     1      28.694  42.444  53.785  1.00  0.00    -0.183 NA
HETATM   20  C   UNL     1      29.099  43.667  53.646  1.00  0.00     0.153 C 
BRANCH  20  21
HETATM   21  C   UNL     1      29.118  44.561  54.794  1.00  0.00     0.018 A 
HETATM   22  C   UNL     1      30.019  44.469  55.909  1.00  0.00     0.004 A 
HETATM   23  C   UNL     1      29.720  45.518  56.777  1.00  0.00     0.043 A 
HETATM   24  C   UNL     1      31.065  43.589  56.261  1.00  0.00     0.014 A 
HETATM   25  C   UNL     1      30.416  45.738  57.973  1.00  0.00     0.030 A 
HETATM   26  N   UNL     1      28.676  46.215  56.223  1.00  0.00    -0.358 N 
HETATM   27  C   UNL     1      31.447  44.854  58.295  1.00  0.00     0.002 A 
HETATM   28  C   UNL     1      31.769  43.792  57.455  1.00  0.00     0.001 A 
HETATM   29  H   UNL     1      28.251  47.031  56.643  1.00  0.00     0.166 HD
HETATM   30  C   UNL     1      28.295  45.656  55.028  1.00  0.00     0.018 A 
HETATM   31  C   UNL     1      27.179  46.234  54.233  1.00  0.00     0.069 C 
ENDBRANCH  20  21
ENDBRANCH   2  19
TORSDOF 5
ENDMDL
MODEL 7
REMARK VINA RESULT:      -9.1      2.449     11.283
REMARK  5 active torsions:
REMARK  status: ('A' for Active; 'I' for Inactive)
REMARK    1  A    between atoms: C_2  and  C_3 
REMARK    2  A    between atoms: C_6  and  C_7 
REMARK    3  A    between atoms: C_11  and  C_12 
REMARK       I    between atoms: C_12  and  N_13 
REMARK    4  A    between atoms: N_13  and  N_14 
REMARK    5  A    between atoms: C_15  and  C_16 
ROOT
HETATM    1  C   UNL     1      22.744  47.819  48.836  1.00  0.00     0.289 C 
HETATM    2  N   UNL     1      21.703  48.336  49.597  1.00  0.00    -0.242 N 
HETATM    3  O   UNL     1      22.731  47.703  47.614  1.00  0.00    -0.264 OA
HETATM    4  H   UNL     1      21.888  48.575  50.564  1.00  0.00     0.192 HD
ENDROOT
BRANCH   1   5
HETATM    5  C   UNL     1      23.900  47.416  49.600  1.00  0.00     0.121 A 
HETATM    6  N   UNL     1      24.976  48.246  49.747  1.00  0.00    -0.272 N 
HETATM    7  N   UNL     1      25.984  47.723  50.456  1.00  0.00    -0.174 NA
HETATM    8  H   UNL     1      25.075  49.185  49.370  1.00  0.00     0.189 HD
HETATM    9  C   UNL     1      25.555  46.501  50.810  1.00  0.00     0.089 A 
HETATM   10  C   UNL     1      24.249  46.271  50.289  1.00  0.00     0.071 A 
BRANCH   9  11
HETATM   11  C   UNL     1      26.387  45.595  51.608  1.00  0.00    -0.006 A 
HETATM   12  C   UNL     1      27.155  44.591  51.002  1.00  0.00     0.014 A 
HETATM   13  C   UNL     1      27.948  43.735  51.776  1.00  0.00     0.008 A 
HETATM   14  C   UNL     1      27.986  43.863  53.168  1.00  0.00    -0.059 A 
HETATM   15  C   UNL     1      27.226  44.868  53.777  1.00  0.00     0.008 A 
HETATM   16  C   UNL     1      26.432  45.720  53.004  1.00  0.00     0.014 A 
BRANCH  14  17
HETATM   17  C   UNL     1      28.851  42.950  54.000  1.00  0.00     0.034 C 
HETATM   18  C   UNL     1      29.946  43.716  54.729  1.00  0.00     0.010 C 
ENDBRANCH  14  17
ENDBRANCH   9  11
ENDBRANCH   1   5
BRANCH   2  19
HETATM   19  N   UNL     1      20.510  48.841  49.139  1.00  0.00    -0.183 NA
HETATM   20  C   UNL     1      19.398  48.397  49.634  1.00  0.00     0.153 C 
BRANCH  20  21
HETATM   21  C   UNL     1      18.128  48.912  49.144  1.00  0.00     0.018 A 
HETATM   22  C   UNL     1      17.680  50.272  49.252  1.00  0.00     0.004 A 
HETATM   23  C   UNL     1      16.429  50.352  48.644  1.00  0.00     0.043 A 
HETATM   24  C   UNL     1      18.227  51.448  49.811  1.00  0.00     0.014 A 
HETATM   25  C   UNL     1      15.698  51.543  48.559  1.00  0.00     0.030 A 
HETATM   26  N   UNL     1      16.119  49.093  48.193  1.00  0.00    -0.358 N 
HETATM   27  C   UNL     1      16.263  52.692  49.118  1.00  0.00     0.002 A 
HETATM   28  C   UNL     1      17.509  52.648  49.737  1.00  0.00     0.001 A 
HETATM   29  H   UNL     1      15.261  48.857  47.711  1.00  0.00     0.166 HD
HETATM   30  C   UNL     1      17.128  48.208  48.484  1.00  0.00     0.018 A 
HETATM   31  C   UNL     1      17.026  46.776  48.095  1.00  0.00     0.069 C 
ENDBRANCH  20  21
ENDBRANCH   2  19
TORSDOF 5
ENDMDL
MODEL 8
REMARK VINA RESULT:      -9.1      1.853     10.840
REMARK  5 active torsions:
REMARK  status: ('A' for Active; 'I' for Inactive)
REMARK    1  A    between atoms: C_2  and  C_3 
REMARK    2  A    between atoms: C_6  and  C_7 
REMARK    3  A    between atoms: C_11  and  C_12 
REMARK       I    between atoms: C_12  and  N_13 
REMARK    4  A    between atoms: N_13  and  N_14 
REMARK    5  A    between atoms: C_15  and  C_16 
ROOT
HETATM    1  C   UNL     1      24.493  45.000  48.985  1.00  0.00     0.289 C 
HETATM    2  N   UNL     1      24.100  46.279  49.360  1.00  0.00    -0.242 N 
HETATM    3  O   UNL     1      23.971  44.337  48.094  1.00  0.00    -0.264 OA
HETATM    4  H   UNL     1      24.716  46.814  49.960  1.00  0.00     0.192 HD
ENDROOT
BRANCH   1   5
HETATM    5  C   UNL     1      25.610  44.476  49.733  1.00  0.00     0.121 A 
HETATM    6  N   UNL     1      26.395  43.478  49.228  1.00  0.00    -0.272 N 
HETATM    7  N   UNL     1      27.373  43.075  50.049  1.00  0.00    -0.174 NA
HETATM    8  H   UNL     1      26.298  43.028  48.322  1.00  0.00     0.189 HD
HETATM    9  C   UNL     1      27.243  43.847  51.140  1.00  0.00     0.089 A 
HETATM   10  C   UNL     1      26.145  44.740  50.979  1.00  0.00     0.071 A 
BRANCH   9  11
HETATM   11  C   UNL     1      28.142  43.711  52.291  1.00  0.00    -0.006 A 
HETATM   12  C   UNL     1      27.907  44.412  53.482  1.00  0.00     0.014 A 
HETATM   13  C   UNL     1      28.771  44.269  54.574  1.00  0.00     0.008 A 
HETATM   14  C   UNL     1      29.885  43.427  54.498  1.00  0.00    -0.059 A 
HETATM   15  C   UNL     1      30.119  42.721  53.312  1.00  0.00     0.008 A 
HETATM   16  C   UNL     1      29.259  42.867  52.220  1.00  0.00     0.014 A 
BRANCH  14  17
HETATM   17  C   UNL     1      30.807  43.263  55.679  1.00  0.00     0.034 C 
HETATM   18  C   UNL     1      30.821  44.503  56.562  1.00  0.00     0.010 C 
ENDBRANCH  14  17
ENDBRANCH   9  11
ENDBRANCH   1   5
BRANCH   2  19
HETATM   19  N   UNL     1      23.107  47.043  48.795  1.00  0.00    -0.183 NA
HETATM   20  C   UNL     1      22.814  48.193  49.312  1.00  0.00     0.153 C 
BRANCH  20  21
HETATM   21  C   UNL     1      21.752  49.002  48.733  1.00  0.00     0.018 A 
HETATM   22  C   UNL     1      20.366  48.632  48.660  1.00  0.00     0.004 A 
HETATM   23  C   UNL     1      19.682  49.683  48.054  1.00  0.00     0.043 A 
HETATM   24  C   UNL     1      19.627  47.495  49.056  1.00  0.00     0.014 A 
HETATM   25  C   UNL     1      18.300  49.664  47.830  1.00  0.00     0.030 A 
HETATM   26  N   UNL     1      20.610  50.651  47.760  1.00  0.00    -0.358 N 
HETATM   27  C   UNL     1      17.593  48.529  48.234  1.00  0.00     0.002 A 
HETATM   28  C   UNL     1      18.244  47.457  48.837  1.00  0.00     0.001 A 
HETATM   29  H   UNL     1      20.390  51.530  47.310  1.00  0.00     0.166 HD
HETATM   30  C   UNL     1      21.865  50.262  48.158  1.00  0.00     0.018 A 
HETATM   31  C   UNL     1      23.043  51.144  47.947  1.00  0.00     0.069 C 
ENDBRANCH  20  21
ENDBRANCH   2  19
TORSDOF 5
ENDMDL
MODEL 9
REMARK VINA RESULT:      -8.8      2.003      2.778
REMARK  5 active torsions:
REMARK  status: ('A' for Active; 'I' for Inactive)
REMARK    1  A    between atoms: C_2  and  C_3 
REMARK    2  A    between atoms: C_6  and  C_7 
REMARK    3  A    between atoms: C_11  and  C_12 
REMARK       I    between atoms: C_12  and  N_13 
REMARK    4  A    between atoms: N_13  and  N_14 
REMARK    5  A    between atoms: C_15  and  C_16 
ROOT
HETATM    1  C   UNL     1      24.051  48.141  49.695  1.00  0.00     0.289 C 
HETATM    2  N   UNL     1      24.115  46.914  50.343  1.00  0.00    -0.242 N 
HETATM    3  O   UNL     1      24.994  48.915  49.560  1.00  0.00    -0.264 OA
HETATM    4  H   UNL     1      23.343  46.268  50.225  1.00  0.00     0.192 HD
ENDROOT
BRANCH   1   5
HETATM    5  C   UNL     1      22.752  48.465  49.156  1.00  0.00     0.121 A 
HETATM    6  N   UNL     1      21.739  47.547  49.150  1.00  0.00    -0.272 N 
HETATM    7  N   UNL     1      20.603  47.982  48.590  1.00  0.00    -0.174 NA
HETATM    8  H   UNL     1      21.776  46.598  49.512  1.00  0.00     0.189 HD
HETATM    9  C   UNL     1      20.866  49.246  48.222  1.00  0.00     0.089 A 
HETATM   10  C   UNL     1      22.208  49.585  48.560  1.00  0.00     0.071 A 
BRANCH   9  11
HETATM   11  C   UNL     1      19.858  50.080  47.559  1.00  0.00    -0.006 A 
HETATM   12  C   UNL     1      19.294  49.700  46.333  1.00  0.00     0.014 A 
HETATM   13  C   UNL     1      18.329  50.504  45.713  1.00  0.00     0.008 A 
HETATM   14  C   UNL     1      17.913  51.702  46.303  1.00  0.00    -0.059 A 
HETATM   15  C   UNL     1      18.470  52.081  47.530  1.00  0.00     0.008 A 
HETATM   16  C   UNL     1      19.435  51.280  48.147  1.00  0.00     0.014 A 
BRANCH  14  17
HETATM   17  C   UNL     1      16.865  52.560  45.642  1.00  0.00     0.034 C 
HETATM   18  C   UNL     1      15.547  52.531  46.404  1.00  0.00     0.010 C 
ENDBRANCH  14  17
ENDBRANCH   9  11
ENDBRANCH   1   5
BRANCH   2  19
HETATM   19  N   UNL     1      25.223  46.328  50.905  1.00  0.00    -0.183 NA
HETATM   20  C   UNL     1      25.075  45.484  51.877  1.00  0.00     0.153 C 
BRANCH  20  21
HETATM   21  C   UNL     1      26.243  44.871  52.492  1.00  0.00     0.018 A 
HETATM   22  C   UNL     1      27.054  45.464  53.518  1.00  0.00     0.004 A 
HETATM   23  C   UNL     1      28.055  44.550  53.843  1.00  0.00     0.043 A 
HETATM   24  C   UNL     1      27.029  46.698  54.204  1.00  0.00     0.014 A 
HETATM   25  C   UNL     1      29.026  44.799  54.821  1.00  0.00     0.030 A 
HETATM   26  N   UNL     1      27.870  43.449  53.043  1.00  0.00    -0.358 N 
HETATM   27  C   UNL     1      28.976  46.026  55.486  1.00  0.00     0.002 A 
HETATM   28  C   UNL     1      27.994  46.965  55.184  1.00  0.00     0.001 A 
HETATM   29  H   UNL     1      28.458  42.627  53.065  1.00  0.00     0.166 HD
HETATM   30  C   UNL     1      26.785  43.621  52.219  1.00  0.00     0.018 A 
HETATM   31  C   UNL     1      26.380  42.562  51.256  1.00  0.00     0.069 C 
ENDBRANCH  20  21
ENDBRANCH   2  19
TORSDOF 5
ENDMDL
MODEL 10
REMARK VINA RESULT:      -8.6      5.681     10.526
REMARK  5 active torsions:
REMARK  status: ('A' for Active; 'I' for Inactive)
REMARK    1  A    between atoms: C_2  and  C_3 
REMARK    2  A    between atoms: C_6  and  C_7 
REMARK    3  A    between atoms: C_11  and  C_12 
REMARK       I    between atoms: C_12  and  N_13 
REMARK    4  A    between atoms: N_13  and  N_14 
REMARK    5  A    between atoms: C_15  and  C_16 
ROOT
HETATM    1  C   UNL     1      26.432  40.507  50.745  1.00  0.00     0.289 C 
HETATM    2  N   UNL     1      27.343  40.671  51.780  1.00  0.00    -0.242 N 
HETATM    3  O   UNL     1      25.498  41.267  50.504  1.00  0.00    -0.264 OA
HETATM    4  H   UNL     1      28.186  40.108  51.771  1.00  0.00     0.192 HD
ENDROOT
BRANCH   1   5
HETATM    5  C   UNL     1      26.662  39.342  49.925  1.00  0.00     0.121 A 
HETATM    6  N   UNL     1      26.197  38.112  50.296  1.00  0.00    -0.272 N 
HETATM    7  N   UNL     1      26.516  37.123  49.450  1.00  0.00    -0.174 NA
HETATM    8  H   UNL     1      25.660  37.891  51.130  1.00  0.00     0.189 HD
HETATM    9  C   UNL     1      27.207  37.723  48.468  1.00  0.00     0.089 A 
HETATM   10  C   UNL     1      27.321  39.119  48.732  1.00  0.00     0.071 A 
BRANCH   9  11
HETATM   11  C   UNL     1      27.742  36.967  47.332  1.00  0.00    -0.006 A 
HETATM   12  C   UNL     1      27.103  35.812  46.861  1.00  0.00     0.014 A 
HETATM   13  C   UNL     1      27.622  35.103  45.772  1.00  0.00     0.008 A 
HETATM   14  C   UNL     1      28.792  35.531  45.134  1.00  0.00    -0.059 A 
HETATM   15  C   UNL     1      29.430  36.687  45.597  1.00  0.00     0.008 A 
HETATM   16  C   UNL     1      28.912  37.393  46.687  1.00  0.00     0.014 A 
BRANCH  14  17
HETATM   17  C   UNL     1      29.343  34.775  43.953  1.00  0.00     0.034 C 
HETATM   18  C   UNL     1      30.679  35.341  43.492  1.00  0.00     0.010 C 
ENDBRANCH  14  17
ENDBRANCH   9  11
ENDBRANCH   1   5
BRANCH   2  19
HETATM   19  N   UNL     1      27.401  41.706  52.682  1.00  0.00    -0.183 NA
HETATM   20  C   UNL     1      28.181  42.714  52.448  1.00  0.00     0.153 C 
BRANCH  20  21
HETATM   21  C   UNL     1      28.263  43.807  53.406  1.00  0.00     0.018 A 
HETATM   22  C   UNL     1      29.219  43.911  54.474  1.00  0.00     0.004 A 
HETATM   23  C   UNL     1      28.971  45.108  55.143  1.00  0.00     0.043 A 
HETATM   24  C   UNL     1      30.275  43.095  54.934  1.00  0.00     0.014 A 
HETATM   25  C   UNL     1      29.727  45.536  56.241  1.00  0.00     0.030 A 
HETATM   26  N   UNL     1      27.905  45.706  54.518  1.00  0.00    -0.358 N 
HETATM   27  C   UNL     1      30.768  44.712  56.673  1.00  0.00     0.002 A 
HETATM   28  C   UNL     1      31.040  43.507  56.032  1.00  0.00     0.001 A 
HETATM   29  H   UNL     1      27.507  46.592  54.798  1.00  0.00     0.166 HD
HETATM   30  C   UNL     1      27.461  44.939  53.469  1.00  0.00     0.018 A 
HETATM   31  C   UNL     1      26.310  45.376  52.634  1.00  0.00     0.069 C 
ENDBRANCH  20  21
ENDBRANCH   2  19
TORSDOF 5
ENDMDL
