MODEL 1
REMARK VINA RESULT:      -8.9      0.000      0.000
REMARK  3 active torsions:
REMARK  status: ('A' for Active; 'I' for Inactive)
REMARK    1  A    between atoms: C_4  and  N_5 
REMARK       I    between atoms: N_5  and  C_6 
REMARK    2  A    between atoms: C_6  and  C_7 
REMARK    3  A    between atoms: C_7  and  C_8 
ROOT
HETATM    1  C   UNL     1      26.791  42.761  51.100  1.00  0.00     0.286 C 
HETATM    2  N   UNL     1      25.526  43.188  51.880  1.00  0.00    -0.056 N 
HETATM    3  H   UNL     1      24.815  42.477  51.649  1.00  0.00     0.278 HD
HETATM    4  H   UNL     1      25.682  43.086  52.892  1.00  0.00     0.278 HD
HETATM    5  C   UNL     1      24.933  44.545  51.546  1.00  0.00     0.209 C 
HETATM    6  C   UNL     1      24.911  44.777  50.007  1.00  0.00     0.115 C 
HETATM    7  N   UNL     1      26.089  44.286  49.295  1.00  0.00    -0.353 N 
HETATM    8  C   UNL     1      26.635  43.062  49.603  1.00  0.00     0.249 C 
HETATM    9  O   UNL     1      27.020  42.320  48.711  1.00  0.00    -0.271 OA
HETATM   10  C   UNL     1      25.594  45.637  52.395  1.00  0.00     0.035 C 
HETATM   11  C   UNL     1      25.266  47.047  51.919  1.00  0.00     0.002 C 
HETATM   12  C   UNL     1      25.521  47.203  50.426  1.00  0.00     0.002 C 
HETATM   13  C   UNL     1      24.643  46.237  49.636  1.00  0.00     0.027 C 
HETATM   14  H   UNL     1      26.063  44.400  48.281  1.00  0.00     0.163 HD
ENDROOT
BRANCH   1  15
HETATM   15  C   UNL     1      28.016  43.486  51.652  1.00  0.00     0.146 C 
BRANCH  15  16
HETATM   16  C   UNL     1      28.090  43.346  53.156  1.00  0.00     0.224 C 
HETATM   17  N   UNL     1      28.668  44.460  53.734  1.00  0.00    -0.327 N 
HETATM   18  H   UNL     1      28.710  45.312  53.190  1.00  0.00     0.169 HD
HETATM   19  O   UNL     1      27.663  42.349  53.717  1.00  0.00    -0.273 OA
BRANCH  17  20
HETATM   20  C   UNL     1      29.257  44.548  55.010  1.00  0.00     0.035 A 
HETATM   21  C   UNL     1      30.379  43.814  55.397  1.00  0.00     0.036 A 
HETATM   22  C   UNL     1      30.976  44.035  56.650  1.00  0.00    -0.059 A 
HETATM   23  C   UNL     1      32.188  43.258  57.069  1.00  0.00     0.048 C 
HETATM   24  C   UNL     1      30.414  44.977  57.522  1.00  0.00     0.013 A 
HETATM   25  C   UNL     1      29.291  45.720  57.148  1.00  0.00    -0.059 A 
HETATM   26  C   UNL     1      28.715  45.492  55.892  1.00  0.00     0.036 A 
HETATM   27  C   UNL     1      28.695  46.717  58.099  1.00  0.00     0.048 C 
ENDBRANCH  17  20
ENDBRANCH  15  16
ENDBRANCH   1  15
TORSDOF 3
ENDMDL
MODEL 2
REMARK VINA RESULT:      -8.5      2.787      7.842
REMARK  3 active torsions:
REMARK  status: ('A' for Active; 'I' for Inactive)
REMARK    1  A    between atoms: C_4  and  N_5 
REMARK       I    between atoms: N_5  and  C_6 
REMARK    2  A    between atoms: C_6  and  C_7 
REMARK    3  A    between atoms: C_7  and  C_8 
ROOT
HETATM    1  C   UNL     1      26.447  45.331  54.068  1.00  0.00     0.286 C 
HETATM    2  N   UNL     1      26.346  43.846  54.487  1.00  0.00    -0.056 N 
HETATM    3  H   UNL     1      26.058  43.865  55.477  1.00  0.00     0.278 HD
HETATM    4  H   UNL     1      25.566  43.391  53.993  1.00  0.00     0.278 HD
HETATM    5  C   UNL     1      27.614  43.016  54.400  1.00  0.00     0.209 C 
HETATM    6  C   UNL     1      28.835  43.810  54.948  1.00  0.00     0.115 C 
HETATM    7  N   UNL     1      28.852  45.229  54.598  1.00  0.00    -0.353 N 
HETATM    8  C   UNL     1      27.703  45.981  54.665  1.00  0.00     0.249 C 
HETATM    9  O   UNL     1      27.737  47.116  55.117  1.00  0.00    -0.271 OA
HETATM   10  C   UNL     1      27.760  42.414  52.998  1.00  0.00     0.035 C 
HETATM   11  C   UNL     1      29.138  41.813  52.744  1.00  0.00     0.002 C 
HETATM   12  C   UNL     1      30.245  42.796  53.100  1.00  0.00     0.002 C 
HETATM   13  C   UNL     1      30.171  43.162  54.579  1.00  0.00     0.027 C 
HETATM   14  H   UNL     1      29.630  45.764  54.987  1.00  0.00     0.163 HD
ENDROOT
BRANCH   1  15
HETATM   15  C   UNL     1      26.476  45.445  52.546  1.00  0.00     0.146 C 
BRANCH  15  16
HETATM   16  C   UNL     1      25.639  46.615  52.078  1.00  0.00     0.224 C 
HETATM   17  N   UNL     1      25.271  46.470  50.754  1.00  0.00    -0.327 N 
HETATM   18  H   UNL     1      25.329  45.548  50.341  1.00  0.00     0.169 HD
HETATM   19  O   UNL     1      25.356  47.529  52.836  1.00  0.00    -0.273 OA
BRANCH  17  20
HETATM   20  C   UNL     1      24.849  47.483  49.872  1.00  0.00     0.035 A 
HETATM   21  C   UNL     1      23.518  47.678  49.499  1.00  0.00     0.036 A 
HETATM   22  C   UNL     1      23.158  48.776  48.700  1.00  0.00    -0.059 A 
HETATM   23  C   UNL     1      21.729  48.999  48.304  1.00  0.00     0.048 C 
HETATM   24  C   UNL     1      24.152  49.657  48.254  1.00  0.00     0.013 A 
HETATM   25  C   UNL     1      25.489  49.474  48.619  1.00  0.00    -0.059 A 
HETATM   26  C   UNL     1      25.827  48.379  49.423  1.00  0.00     0.036 A 
HETATM   27  C   UNL     1      26.542  50.421  48.123  1.00  0.00     0.048 C 
ENDBRANCH  17  20
ENDBRANCH  15  16
ENDBRANCH   1  15
TORSDOF 3
ENDMDL
MODEL 3
REMARK VINA RESULT:      -8.2      2.647      7.155
REMARK  3 active torsions:
REMARK  status: ('A' for Active; 'I' for Inactive)
REMARK    1  A    between atoms: C_4  and  N_5 
REMARK       I    between atoms: N_5  and  C_6 
REMARK    2  A    between atoms: C_6  and  C_7 
REMARK    3  A    between atoms: C_7  and  C_8 
ROOT
HETATM    1  C   UNL     1      25.806  43.714  50.606  1.00  0.00     0.286 C 
HETATM    2  N   UNL     1      27.291  44.141  50.656  1.00  0.00    -0.056 N 
HETATM    3  H   UNL     1      27.674  43.895  49.731  1.00  0.00     0.278 HD
HETATM    4  H   UNL     1      27.364  45.166  50.708  1.00  0.00     0.278 HD
HETATM    5  C   UNL     1      28.168  43.471  51.700  1.00  0.00     0.209 C 
HETATM    6  C   UNL     1      27.882  41.942  51.765  1.00  0.00     0.115 C 
HETATM    7  N   UNL     1      26.474  41.574  51.632  1.00  0.00    -0.353 N 
HETATM    8  C   UNL     1      25.675  42.187  50.696  1.00  0.00     0.249 C 
HETATM    9  O   UNL     1      24.876  41.529  50.045  1.00  0.00    -0.271 OA
HETATM   10  C   UNL     1      28.098  44.239  53.024  1.00  0.00     0.035 C 
HETATM   11  C   UNL     1      28.713  43.477  54.192  1.00  0.00     0.002 C 
HETATM   12  C   UNL     1      28.160  42.061  54.283  1.00  0.00     0.002 C 
HETATM   13  C   UNL     1      28.481  41.285  53.010  1.00  0.00     0.027 C 
HETATM   14  H   UNL     1      26.284  40.572  51.635  1.00  0.00     0.163 HD
ENDROOT
BRANCH   1  15
HETATM   15  C   UNL     1      25.034  44.371  51.748  1.00  0.00     0.146 C 
BRANCH  15  16
HETATM   16  C   UNL     1      24.969  45.870  51.559  1.00  0.00     0.224 C 
HETATM   17  N   UNL     1      24.558  46.197  50.281  1.00  0.00    -0.327 N 
HETATM   18  H   UNL     1      24.093  45.484  49.733  1.00  0.00     0.169 HD
HETATM   19  O   UNL     1      25.248  46.631  52.472  1.00  0.00    -0.273 OA
BRANCH  17  20
HETATM   20  C   UNL     1      24.745  47.422  49.613  1.00  0.00     0.035 A 
HETATM   21  C   UNL     1      23.700  48.189  49.096  1.00  0.00     0.036 A 
HETATM   22  C   UNL     1      23.955  49.453  48.538  1.00  0.00    -0.059 A 
HETATM   23  C   UNL     1      22.836  50.287  47.990  1.00  0.00     0.048 C 
HETATM   24  C   UNL     1      25.272  49.924  48.477  1.00  0.00     0.013 A 
HETATM   25  C   UNL     1      26.329  49.168  48.991  1.00  0.00    -0.059 A 
HETATM   26  C   UNL     1      26.055  47.914  49.551  1.00  0.00     0.036 A 
HETATM   27  C   UNL     1      27.737  49.684  48.907  1.00  0.00     0.048 C 
ENDBRANCH  17  20
ENDBRANCH  15  16
ENDBRANCH   1  15
TORSDOF 3
ENDMDL
MODEL 4
REMARK VINA RESULT:      -8.2      4.217      5.787
REMARK  3 active torsions:
REMARK  status: ('A' for Active; 'I' for Inactive)
REMARK    1  A    between atoms: C_4  and  N_5 
REMARK       I    between atoms: N_5  and  C_6 
REMARK    2  A    between atoms: C_6  and  C_7 
REMARK    3  A    between atoms: C_7  and  C_8 
ROOT
HETATM    1  C   UNL     1      28.453  38.807  50.394  1.00  0.00     0.286 C 
HETATM    2  N   UNL     1      27.060  38.308  49.945  1.00  0.00    -0.056 N 
HETATM    3  H   UNL     1      26.924  37.411  50.435  1.00  0.00     0.278 HD
HETATM    4  H   UNL     1      26.325  38.926  50.316  1.00  0.00     0.278 HD
HETATM    5  C   UNL     1      26.864  38.047  48.462  1.00  0.00     0.209 C 
HETATM    6  C   UNL     1      28.094  37.304  47.864  1.00  0.00     0.115 C 
HETATM    7  N   UNL     1      29.389  37.749  48.374  1.00  0.00    -0.353 N 
HETATM    8  C   UNL     1      29.565  37.997  49.715  1.00  0.00     0.249 C 
HETATM    9  O   UNL     1      30.591  37.638  50.275  1.00  0.00    -0.271 OA
HETATM   10  C   UNL     1      26.425  39.331  47.749  1.00  0.00     0.035 C 
HETATM   11  C   UNL     1      26.489  39.225  46.230  1.00  0.00     0.002 C 
HETATM   12  C   UNL     1      27.843  38.708  45.766  1.00  0.00     0.002 C 
HETATM   13  C   UNL     1      28.100  37.316  46.334  1.00  0.00     0.027 C 
HETATM   14  H   UNL     1      30.197  37.239  48.014  1.00  0.00     0.163 HD
ENDROOT
BRANCH   1  15
HETATM   15  C   UNL     1      28.610  40.289  50.062  1.00  0.00     0.146 C 
BRANCH  15  16
HETATM   16  C   UNL     1      28.063  41.151  51.178  1.00  0.00     0.224 C 
HETATM   17  N   UNL     1      28.949  42.156  51.515  1.00  0.00    -0.327 N 
HETATM   18  H   UNL     1      29.676  42.392  50.852  1.00  0.00     0.169 HD
HETATM   19  O   UNL     1      26.964  40.930  51.662  1.00  0.00    -0.273 OA
BRANCH  17  20
HETATM   20  C   UNL     1      28.989  42.889  52.716  1.00  0.00     0.035 A 
HETATM   21  C   UNL     1      29.931  42.673  53.723  1.00  0.00     0.036 A 
HETATM   22  C   UNL     1      29.976  43.517  54.846  1.00  0.00    -0.059 A 
HETATM   23  C   UNL     1      30.992  43.298  55.927  1.00  0.00     0.048 C 
HETATM   24  C   UNL     1      29.045  44.557  54.962  1.00  0.00     0.013 A 
HETATM   25  C   UNL     1      28.097  44.786  53.961  1.00  0.00    -0.059 A 
HETATM   26  C   UNL     1      28.073  43.941  52.845  1.00  0.00     0.036 A 
HETATM   27  C   UNL     1      27.100  45.899  54.107  1.00  0.00     0.048 C 
ENDBRANCH  17  20
ENDBRANCH  15  16
ENDBRANCH   1  15
TORSDOF 3
ENDMDL
MODEL 5
REMARK VINA RESULT:      -8.2      2.698      4.355
REMARK  3 active torsions:
REMARK  status: ('A' for Active; 'I' for Inactive)
REMARK    1  A    between atoms: C_4  and  N_5 
REMARK       I    between atoms: N_5  and  C_6 
REMARK    2  A    between atoms: C_6  and  C_7 
REMARK    3  A    between atoms: C_7  and  C_8 
ROOT
HETATM    1  C   UNL     1      26.878  40.829  51.471  1.00  0.00     0.286 C 
HETATM    2  N   UNL     1      26.014  39.827  50.671  1.00  0.00    -0.056 N 
HETATM    3  H   UNL     1      26.040  38.953  51.217  1.00  0.00     0.278 HD
HETATM    4  H   UNL     1      25.028  40.119  50.685  1.00  0.00     0.278 HD
HETATM    5  C   UNL     1      26.471  39.492  49.262  1.00  0.00     0.209 C 
HETATM    6  C   UNL     1      28.011  39.273  49.216  1.00  0.00     0.115 C 
HETATM    7  N   UNL     1      28.787  40.189  50.050  1.00  0.00    -0.353 N 
HETATM    8  C   UNL     1      28.370  40.502  51.322  1.00  0.00     0.249 C 
HETATM    9  O   UNL     1      29.181  40.572  52.234  1.00  0.00    -0.271 OA
HETATM   10  C   UNL     1      25.891  40.500  48.262  1.00  0.00     0.035 C 
HETATM   11  C   UNL     1      26.529  40.408  46.881  1.00  0.00     0.002 C 
HETATM   12  C   UNL     1      28.049  40.447  46.968  1.00  0.00     0.002 C 
HETATM   13  C   UNL     1      28.561  39.268  47.788  1.00  0.00     0.027 C 
HETATM   14  H   UNL     1      29.794  40.025  50.054  1.00  0.00     0.163 HD
ENDROOT
BRANCH   1  15
HETATM   15  C   UNL     1      26.606  42.253  50.992  1.00  0.00     0.146 C 
BRANCH  15  16
HETATM   16  C   UNL     1      26.715  43.235  52.138  1.00  0.00     0.224 C 
HETATM   17  N   UNL     1      28.036  43.494  52.452  1.00  0.00    -0.327 N 
HETATM   18  H   UNL     1      28.743  43.265  51.764  1.00  0.00     0.169 HD
HETATM   19  O   UNL     1      25.717  43.705  52.661  1.00  0.00    -0.273 OA
BRANCH  17  20
HETATM   20  C   UNL     1      28.538  44.017  53.658  1.00  0.00     0.035 A 
HETATM   21  C   UNL     1      29.602  43.453  54.363  1.00  0.00     0.036 A 
HETATM   22  C   UNL     1      30.119  44.092  55.503  1.00  0.00    -0.059 A 
HETATM   23  C   UNL     1      31.269  43.498  56.259  1.00  0.00     0.048 C 
HETATM   24  C   UNL     1      29.534  45.286  55.945  1.00  0.00     0.013 A 
HETATM   25  C   UNL     1      28.468  45.863  55.249  1.00  0.00    -0.059 A 
HETATM   26  C   UNL     1      27.973  45.216  54.111  1.00  0.00     0.036 A 
HETATM   27  C   UNL     1      27.847  47.138  55.744  1.00  0.00     0.048 C 
ENDBRANCH  17  20
ENDBRANCH  15  16
ENDBRANCH   1  15
TORSDOF 3
ENDMDL
MODEL 6
REMARK VINA RESULT:      -8.1      2.909      4.997
REMARK  3 active torsions:
REMARK  status: ('A' for Active; 'I' for Inactive)
REMARK    1  A    between atoms: C_4  and  N_5 
REMARK       I    between atoms: N_5  and  C_6 
REMARK    2  A    between atoms: C_6  and  C_7 
REMARK    3  A    between atoms: C_7  and  C_8 
ROOT
HETATM    1  C   UNL     1      25.955  42.124  49.361  1.00  0.00     0.286 C 
HETATM    2  N   UNL     1      27.234  41.864  48.531  1.00  0.00    -0.056 N 
HETATM    3  H   UNL     1      27.041  42.271  47.603  1.00  0.00     0.278 HD
HETATM    4  H   UNL     1      28.017  42.417  48.905  1.00  0.00     0.278 HD
HETATM    5  C   UNL     1      27.635  40.415  48.314  1.00  0.00     0.209 C 
HETATM    6  C   UNL     1      26.394  39.543  47.968  1.00  0.00     0.115 C 
HETATM    7  N   UNL     1      25.182  39.874  48.716  1.00  0.00    -0.353 N 
HETATM    8  C   UNL     1      24.823  41.185  48.923  1.00  0.00     0.249 C 
HETATM    9  O   UNL     1      23.653  41.524  48.821  1.00  0.00    -0.271 OA
HETATM   10  C   UNL     1      28.514  39.928  49.472  1.00  0.00     0.035 C 
HETATM   11  C   UNL     1      28.716  38.418  49.477  1.00  0.00     0.002 C 
HETATM   12  C   UNL     1      27.387  37.681  49.374  1.00  0.00     0.002 C 
HETATM   13  C   UNL     1      26.681  38.044  48.071  1.00  0.00     0.027 C 
HETATM   14  H   UNL     1      24.355  39.331  48.465  1.00  0.00     0.163 HD
ENDROOT
BRANCH   1  15
HETATM   15  C   UNL     1      26.247  41.931  50.847  1.00  0.00     0.146 C 
BRANCH  15  16
HETATM   16  C   UNL     1      27.234  42.966  51.339  1.00  0.00     0.224 C 
HETATM   17  N   UNL     1      27.673  42.671  52.616  1.00  0.00    -0.327 N 
HETATM   18  H   UNL     1      27.545  41.727  52.958  1.00  0.00     0.169 HD
HETATM   19  O   UNL     1      27.560  43.909  50.636  1.00  0.00    -0.273 OA
BRANCH  17  20
HETATM   20  C   UNL     1      28.260  43.556  53.540  1.00  0.00     0.035 A 
HETATM   21  C   UNL     1      27.755  44.826  53.823  1.00  0.00     0.036 A 
HETATM   22  C   UNL     1      28.332  45.610  54.836  1.00  0.00    -0.059 A 
HETATM   23  C   UNL     1      27.789  46.972  55.154  1.00  0.00     0.048 C 
HETATM   24  C   UNL     1      29.439  45.119  55.539  1.00  0.00     0.013 A 
HETATM   25  C   UNL     1      29.956  43.849  55.267  1.00  0.00    -0.059 A 
HETATM   26  C   UNL     1      29.363  43.078  54.260  1.00  0.00     0.036 A 
HETATM   27  C   UNL     1      31.150  43.342  56.023  1.00  0.00     0.048 C 
ENDBRANCH  17  20
ENDBRANCH  15  16
ENDBRANCH   1  15
TORSDOF 3
ENDMDL
MODEL 7
REMARK VINA RESULT:      -8.0      6.136      9.128
REMARK  3 active torsions:
REMARK  status: ('A' for Active; 'I' for Inactive)
REMARK    1  A    between atoms: C_4  and  N_5 
REMARK       I    between atoms: N_5  and  C_6 
REMARK    2  A    between atoms: C_6  and  C_7 
REMARK    3  A    between atoms: C_7  and  C_8 
ROOT
HETATM    1  C   UNL     1      19.637  47.866  49.169  1.00  0.00     0.286 C 
HETATM    2  N   UNL     1      19.953  48.981  50.193  1.00  0.00    -0.056 N 
HETATM    3  H   UNL     1      19.629  48.614  51.100  1.00  0.00     0.278 HD
HETATM    4  H   UNL     1      20.972  49.087  50.299  1.00  0.00     0.278 HD
HETATM    5  C   UNL     1      19.277  50.325  49.982  1.00  0.00     0.209 C 
HETATM    6  C   UNL     1      17.781  50.138  49.599  1.00  0.00     0.115 C 
HETATM    7  N   UNL     1      17.513  49.023  48.694  1.00  0.00    -0.353 N 
HETATM    8  C   UNL     1      18.132  47.809  48.875  1.00  0.00     0.249 C 
HETATM    9  O   UNL     1      17.501  46.771  48.735  1.00  0.00    -0.271 OA
HETATM   10  C   UNL     1      20.120  51.203  49.050  1.00  0.00     0.035 C 
HETATM   11  C   UNL     1      19.379  52.442  48.561  1.00  0.00     0.002 C 
HETATM   12  C   UNL     1      18.015  52.081  47.986  1.00  0.00     0.002 C 
HETATM   13  C   UNL     1      17.149  51.421  49.054  1.00  0.00     0.027 C 
HETATM   14  H   UNL     1      16.529  48.871  48.470  1.00  0.00     0.163 HD
ENDROOT
BRANCH   1  15
HETATM   15  C   UNL     1      20.411  48.108  47.876  1.00  0.00     0.146 C 
BRANCH  15  16
HETATM   16  C   UNL     1      21.803  47.521  47.965  1.00  0.00     0.224 C 
HETATM   17  N   UNL     1      22.452  47.946  49.108  1.00  0.00    -0.327 N 
HETATM   18  H   UNL     1      21.893  48.328  49.861  1.00  0.00     0.169 HD
HETATM   19  O   UNL     1      22.224  46.767  47.103  1.00  0.00    -0.273 OA
BRANCH  17  20
HETATM   20  C   UNL     1      23.839  47.947  49.349  1.00  0.00     0.035 A 
HETATM   21  C   UNL     1      24.717  48.889  48.810  1.00  0.00     0.036 A 
HETATM   22  C   UNL     1      26.072  48.891  49.182  1.00  0.00    -0.059 A 
HETATM   23  C   UNL     1      27.020  49.907  48.616  1.00  0.00     0.048 C 
HETATM   24  C   UNL     1      26.542  47.919  50.074  1.00  0.00     0.013 A 
HETATM   25  C   UNL     1      25.675  46.970  50.622  1.00  0.00    -0.059 A 
HETATM   26  C   UNL     1      24.326  46.988  50.247  1.00  0.00     0.036 A 
HETATM   27  C   UNL     1      26.198  45.928  51.568  1.00  0.00     0.048 C 
ENDBRANCH  17  20
ENDBRANCH  15  16
ENDBRANCH   1  15
TORSDOF 3
ENDMDL
MODEL 8
REMARK VINA RESULT:      -8.0      2.769      8.050
REMARK  3 active torsions:
REMARK  status: ('A' for Active; 'I' for Inactive)
REMARK    1  A    between atoms: C_4  and  N_5 
REMARK       I    between atoms: N_5  and  C_6 
REMARK    2  A    between atoms: C_6  and  C_7 
REMARK    3  A    between atoms: C_7  and  C_8 
ROOT
HETATM    1  C   UNL     1      25.381  45.278  52.589  1.00  0.00     0.286 C 
HETATM    2  N   UNL     1      25.375  44.032  53.504  1.00  0.00    -0.056 N 
HETATM    3  H   UNL     1      24.609  44.195  54.176  1.00  0.00     0.278 HD
HETATM    4  H   UNL     1      25.085  43.201  52.971  1.00  0.00     0.278 HD
HETATM    5  C   UNL     1      26.632  43.761  54.311  1.00  0.00     0.209 C 
HETATM    6  C   UNL     1      27.187  45.075  54.931  1.00  0.00     0.115 C 
HETATM    7  N   UNL     1      27.101  46.249  54.064  1.00  0.00    -0.353 N 
HETATM    8  C   UNL     1      25.968  46.491  53.324  1.00  0.00     0.249 C 
HETATM    9  O   UNL     1      25.528  47.628  53.229  1.00  0.00    -0.271 OA
HETATM   10  C   UNL     1      27.617  42.919  53.491  1.00  0.00     0.035 C 
HETATM   11  C   UNL     1      29.007  42.850  54.112  1.00  0.00     0.002 C 
HETATM   12  C   UNL     1      29.533  44.238  54.452  1.00  0.00     0.002 C 
HETATM   13  C   UNL     1      28.614  44.918  55.462  1.00  0.00     0.027 C 
HETATM   14  H   UNL     1      27.428  47.122  54.479  1.00  0.00     0.163 HD
ENDROOT
BRANCH   1  15
HETATM   15  C   UNL     1      26.189  44.994  51.325  1.00  0.00     0.146 C 
BRANCH  15  16
HETATM   16  C   UNL     1      25.861  45.997  50.241  1.00  0.00     0.224 C 
HETATM   17  N   UNL     1      24.622  46.573  50.451  1.00  0.00    -0.327 N 
HETATM   18  H   UNL     1      24.216  46.508  51.376  1.00  0.00     0.169 HD
HETATM   19  O   UNL     1      26.646  46.224  49.334  1.00  0.00    -0.273 OA
BRANCH  17  20
HETATM   20  C   UNL     1      23.815  47.227  49.500  1.00  0.00     0.035 A 
HETATM   21  C   UNL     1      22.884  46.572  48.694  1.00  0.00     0.036 A 
HETATM   22  C   UNL     1      22.038  47.305  47.845  1.00  0.00    -0.059 A 
HETATM   23  C   UNL     1      21.027  46.609  46.984  1.00  0.00     0.048 C 
HETATM   24  C   UNL     1      22.159  48.700  47.792  1.00  0.00     0.013 A 
HETATM   25  C   UNL     1      23.087  49.370  48.594  1.00  0.00    -0.059 A 
HETATM   26  C   UNL     1      23.915  48.623  49.440  1.00  0.00     0.036 A 
HETATM   27  C   UNL     1      23.211  50.865  48.516  1.00  0.00     0.048 C 
ENDBRANCH  17  20
ENDBRANCH  15  16
ENDBRANCH   1  15
TORSDOF 3
ENDMDL
MODEL 9
REMARK VINA RESULT:      -7.8      2.554      8.050
REMARK  3 active torsions:
REMARK  status: ('A' for Active; 'I' for Inactive)
REMARK    1  A    between atoms: C_4  and  N_5 
REMARK       I    between atoms: N_5  and  C_6 
REMARK    2  A    between atoms: C_6  and  C_7 
REMARK    3  A    between atoms: C_7  and  C_8 
ROOT
HETATM    1  C   UNL     1      26.306  45.225  53.704  1.00  0.00     0.286 C 
HETATM    2  N   UNL     1      26.150  43.723  54.036  1.00  0.00    -0.056 N 
HETATM    3  H   UNL     1      25.736  43.698  54.981  1.00  0.00     0.278 HD
HETATM    4  H   UNL     1      25.440  43.297  53.425  1.00  0.00     0.278 HD
HETATM    5  C   UNL     1      27.418  42.889  54.076  1.00  0.00     0.209 C 
HETATM    6  C   UNL     1      28.558  43.649  54.815  1.00  0.00     0.115 C 
HETATM    7  N   UNL     1      28.621  45.082  54.537  1.00  0.00    -0.353 N 
HETATM    8  C   UNL     1      27.473  45.838  54.489  1.00  0.00     0.249 C 
HETATM    9  O   UNL     1      27.450  46.951  54.994  1.00  0.00    -0.271 OA
HETATM   10  C   UNL     1      27.744  42.352  52.678  1.00  0.00     0.035 C 
HETATM   11  C   UNL     1      29.143  41.754  52.577  1.00  0.00     0.002 C 
HETATM   12  C   UNL     1      30.196  42.711  53.120  1.00  0.00     0.002 C 
HETATM   13  C   UNL     1      29.930  43.010  54.592  1.00  0.00     0.027 C 
HETATM   14  H   UNL     1      29.342  45.593  55.048  1.00  0.00     0.163 HD
ENDROOT
BRANCH   1  15
HETATM   15  C   UNL     1      26.532  45.409  52.206  1.00  0.00     0.146 C 
BRANCH  15  16
HETATM   16  C   UNL     1      25.214  45.456  51.465  1.00  0.00     0.224 C 
HETATM   17  N   UNL     1      25.289  46.286  50.362  1.00  0.00    -0.327 N 
HETATM   18  H   UNL     1      26.206  46.527  50.008  1.00  0.00     0.169 HD
HETATM   19  O   UNL     1      24.254  44.807  51.847  1.00  0.00    -0.273 OA
BRANCH  17  20
HETATM   20  C   UNL     1      24.217  46.886  49.673  1.00  0.00     0.035 A 
HETATM   21  C   UNL     1      23.970  48.259  49.673  1.00  0.00     0.036 A 
HETATM   22  C   UNL     1      22.946  48.796  48.875  1.00  0.00    -0.059 A 
HETATM   23  C   UNL     1      22.680  50.272  48.861  1.00  0.00     0.048 C 
HETATM   24  C   UNL     1      22.154  47.937  48.102  1.00  0.00     0.013 A 
HETATM   25  C   UNL     1      22.391  46.559  48.091  1.00  0.00    -0.059 A 
HETATM   26  C   UNL     1      23.421  46.043  48.887  1.00  0.00     0.036 A 
HETATM   27  C   UNL     1      21.526  45.651  47.266  1.00  0.00     0.048 C 
ENDBRANCH  17  20
ENDBRANCH  15  16
ENDBRANCH   1  15
TORSDOF 3
ENDMDL
MODEL 10
REMARK VINA RESULT:      -7.5      2.989      8.306
REMARK  3 active torsions:
REMARK  status: ('A' for Active; 'I' for Inactive)
REMARK    1  A    between atoms: C_4  and  N_5 
REMARK       I    between atoms: N_5  and  C_6 
REMARK    2  A    between atoms: C_6  and  C_7 
REMARK    3  A    between atoms: C_7  and  C_8 
ROOT
HETATM    1  C   UNL     1      25.550  45.432  52.664  1.00  0.00     0.286 C 
HETATM    2  N   UNL     1      25.541  43.892  52.800  1.00  0.00    -0.056 N 
HETATM    3  H   UNL     1      24.813  43.688  53.501  1.00  0.00     0.278 HD
HETATM    4  H   UNL     1      25.200  43.461  51.930  1.00  0.00     0.278 HD
HETATM    5  C   UNL     1      26.824  43.233  53.277  1.00  0.00     0.209 C 
HETATM    6  C   UNL     1      27.451  44.031  54.457  1.00  0.00     0.115 C 
HETATM    7  N   UNL     1      27.367  45.485  54.329  1.00  0.00    -0.353 N 
HETATM    8  C   UNL     1      26.211  46.083  53.887  1.00  0.00     0.249 C 
HETATM    9  O   UNL     1      25.807  47.107  54.420  1.00  0.00    -0.271 OA
HETATM   10  C   UNL     1      27.742  42.933  52.086  1.00  0.00     0.035 C 
HETATM   11  C   UNL     1      29.155  42.543  52.502  1.00  0.00     0.002 C 
HETATM   12  C   UNL     1      29.743  43.549  53.482  1.00  0.00     0.002 C 
HETATM   13  C   UNL     1      28.894  43.612  54.748  1.00  0.00     0.027 C 
HETATM   14  H   UNL     1      27.742  46.013  55.118  1.00  0.00     0.163 HD
ENDROOT
BRANCH   1  15
HETATM   15  C   UNL     1      26.291  45.841  51.393  1.00  0.00     0.146 C 
BRANCH  15  16
HETATM   16  C   UNL     1      25.666  47.076  50.781  1.00  0.00     0.224 C 
HETATM   17  N   UNL     1      24.329  46.872  50.499  1.00  0.00    -0.327 N 
HETATM   18  H   UNL     1      23.856  46.103  50.957  1.00  0.00     0.169 HD
HETATM   19  O   UNL     1      26.322  48.089  50.601  1.00  0.00    -0.273 OA
BRANCH  17  20
HETATM   20  C   UNL     1      23.528  47.602  49.600  1.00  0.00     0.035 A 
HETATM   21  C   UNL     1      23.553  48.994  49.495  1.00  0.00     0.036 A 
HETATM   22  C   UNL     1      22.805  49.645  48.500  1.00  0.00    -0.059 A 
HETATM   23  C   UNL     1      22.835  51.139  48.374  1.00  0.00     0.048 C 
HETATM   24  C   UNL     1      22.007  48.887  47.634  1.00  0.00     0.013 A 
HETATM   25  C   UNL     1      21.971  47.492  47.727  1.00  0.00    -0.059 A 
HETATM   26  C   UNL     1      22.730  46.861  48.719  1.00  0.00     0.036 A 
HETATM   27  C   UNL     1      21.102  46.697  46.797  1.00  0.00     0.048 C 
ENDBRANCH  17  20
ENDBRANCH  15  16
ENDBRANCH   1  15
TORSDOF 3
ENDMDL
