MODEL 1
REMARK VINA RESULT:      -8.8      0.000      0.000
REMARK  5 active torsions:
REMARK  status: ('A' for Active; 'I' for Inactive)
REMARK    1  A    between atoms: C_3  and  O_4 
REMARK    2  A    between atoms: O_4  and  C_5 
REMARK    3  A    between atoms: C_10  and  N_11 
REMARK       I    between atoms: N_11  and  C_12 
REMARK       I    between atoms: C_12  and  N_13 
REMARK    4  A    between atoms: N_13  and  C_14 
REMARK    5  A    between atoms: C_14  and  C_15 
ROOT
HETATM    1  N   UNL     1      25.680  43.868  52.829  1.00  0.00    -0.309 N 
HETATM    2  C   UNL     1      24.898  44.498  51.922  1.00  0.00     0.321 C 
HETATM    3  N   UNL     1      25.238  45.733  51.481  1.00  0.00    -0.337 N 
HETATM    4  O   UNL     1      23.901  43.906  51.506  1.00  0.00    -0.247 OA
HETATM    5  H   UNL     1      25.344  42.922  52.953  1.00  0.00     0.170 HD
HETATM    6  H   UNL     1      26.223  45.945  51.431  1.00  0.00     0.164 HD
ENDROOT
BRANCH   1   7
HETATM    7  C   UNL     1      26.775  44.230  53.631  1.00  0.00     0.037 A 
HETATM    8  C   UNL     1      26.776  45.209  54.621  1.00  0.00     0.032 A 
HETATM    9  C   UNL     1      27.944  45.479  55.355  1.00  0.00     0.039 A 
HETATM   10  C   UNL     1      29.118  44.757  55.127  1.00  0.00     0.075 A 
HETATM   11  C   UNL     1      29.118  43.744  54.158  1.00  0.00    -0.026 A 
HETATM   12  C   UNL     1      30.354  42.929  53.890  1.00  0.00     0.051 C 
HETATM   13  C   UNL     1      27.951  43.496  53.420  1.00  0.00     0.039 A 
BRANCH  10  14
HETATM   14  O   UNL     1      30.314  44.960  55.757  1.00  0.00    -0.346 OA
BRANCH  14  15
HETATM   15  C   UNL     1      30.491  44.546  57.113  1.00  0.00     0.121 C 
HETATM   16  C   UNL     1      31.762  43.712  57.246  1.00  0.00     0.040 C 
HETATM   17  C   UNL     1      30.623  45.824  57.939  1.00  0.00     0.040 C 
ENDBRANCH  14  15
ENDBRANCH  10  14
ENDBRANCH   1   7
BRANCH   3  18
HETATM   18  C   UNL     1      24.441  46.329  50.427  1.00  0.00     0.183 C 
BRANCH  18  19
HETATM   19  C   UNL     1      25.088  47.527  49.770  1.00  0.00     0.053 A 
HETATM   20  N   UNL     1      26.446  47.592  49.718  1.00  0.00    -0.264 NA
HETATM   21  C   UNL     1      26.993  48.667  49.107  1.00  0.00     0.118 A 
HETATM   22  C   UNL     1      26.258  49.681  48.523  1.00  0.00     0.043 A 
HETATM   23  C   UNL     1      24.877  49.580  48.570  1.00  0.00     0.037 A 
HETATM   24 CL   UNL     1      23.902  50.801  47.850  1.00  0.00    -0.084 Cl
HETATM   25  C   UNL     1      24.273  48.496  49.194  1.00  0.00     0.052 A 
ENDBRANCH  18  19
ENDBRANCH   3  18
TORSDOF 5
ENDMDL
MODEL 2
REMARK VINA RESULT:      -8.6      1.234      1.487
REMARK  5 active torsions:
REMARK  status: ('A' for Active; 'I' for Inactive)
REMARK    1  A    between atoms: C_3  and  O_4 
REMARK    2  A    between atoms: O_4  and  C_5 
REMARK    3  A    between atoms: C_10  and  N_11 
REMARK       I    between atoms: N_11  and  C_12 
REMARK       I    between atoms: C_12  and  N_13 
REMARK    4  A    between atoms: N_13  and  C_14 
REMARK    5  A    between atoms: C_14  and  C_15 
ROOT
HETATM    1  N   UNL     1      25.828  43.389  52.759  1.00  0.00    -0.309 N 
HETATM    2  C   UNL     1      24.975  43.902  51.843  1.00  0.00     0.321 C 
HETATM    3  N   UNL     1      25.138  45.174  51.408  1.00  0.00    -0.337 N 
HETATM    4  O   UNL     1      24.078  43.174  51.415  1.00  0.00    -0.247 OA
HETATM    5  H   UNL     1      25.630  42.403  52.878  1.00  0.00     0.170 HD
HETATM    6  H   UNL     1      26.083  45.525  51.370  1.00  0.00     0.164 HD
ENDROOT
BRANCH   1   7
HETATM    7  C   UNL     1      26.849  43.902  53.575  1.00  0.00     0.037 A 
HETATM    8  C   UNL     1      26.719  44.938  54.494  1.00  0.00     0.032 A 
HETATM    9  C   UNL     1      27.826  45.363  55.251  1.00  0.00     0.039 A 
HETATM   10  C   UNL     1      29.069  44.740  55.117  1.00  0.00     0.075 A 
HETATM   11  C   UNL     1      29.202  43.670  54.222  1.00  0.00    -0.026 A 
HETATM   12  C   UNL     1      30.517  42.957  54.056  1.00  0.00     0.051 C 
HETATM   13  C   UNL     1      28.095  43.267  53.459  1.00  0.00     0.039 A 
BRANCH  10  14
HETATM   14  O   UNL     1      30.213  45.093  55.776  1.00  0.00    -0.346 OA
BRANCH  14  15
HETATM   15  C   UNL     1      30.394  44.731  57.147  1.00  0.00     0.121 C 
HETATM   16  C   UNL     1      31.655  43.886  57.305  1.00  0.00     0.040 C 
HETATM   17  C   UNL     1      30.548  46.040  57.920  1.00  0.00     0.040 C 
ENDBRANCH  14  15
ENDBRANCH  10  14
ENDBRANCH   1   7
BRANCH   3  18
HETATM   18  C   UNL     1      24.277  45.652  50.345  1.00  0.00     0.183 C 
BRANCH  18  19
HETATM   19  C   UNL     1      24.680  46.997  49.786  1.00  0.00     0.053 A 
HETATM   20  N   UNL     1      23.708  47.853  49.370  1.00  0.00    -0.264 NA
HETATM   21  C   UNL     1      24.101  49.056  48.893  1.00  0.00     0.118 A 
HETATM   22  C   UNL     1      25.419  49.465  48.822  1.00  0.00     0.043 A 
HETATM   23  C   UNL     1      26.389  48.584  49.272  1.00  0.00     0.037 A 
HETATM   24 CL   UNL     1      28.048  49.036  49.224  1.00  0.00    -0.084 Cl
HETATM   25  C   UNL     1      26.030  47.336  49.763  1.00  0.00     0.052 A 
ENDBRANCH  18  19
ENDBRANCH   3  18
TORSDOF 5
ENDMDL
MODEL 3
REMARK VINA RESULT:      -8.2      3.758      8.280
REMARK  5 active torsions:
REMARK  status: ('A' for Active; 'I' for Inactive)
REMARK    1  A    between atoms: C_3  and  O_4 
REMARK    2  A    between atoms: O_4  and  C_5 
REMARK    3  A    between atoms: C_10  and  N_11 
REMARK       I    between atoms: N_11  and  C_12 
REMARK       I    between atoms: C_12  and  N_13 
REMARK    4  A    between atoms: N_13  and  C_14 
REMARK    5  A    between atoms: C_14  and  C_15 
ROOT
HETATM    1  N   UNL     1      26.863  43.746  50.272  1.00  0.00    -0.309 N 
HETATM    2  C   UNL     1      27.583  43.125  51.234  1.00  0.00     0.321 C 
HETATM    3  N   UNL     1      27.654  43.663  52.475  1.00  0.00    -0.337 N 
HETATM    4  O   UNL     1      28.140  42.065  50.948  1.00  0.00    -0.247 OA
HETATM    5  H   UNL     1      26.825  43.151  49.454  1.00  0.00     0.170 HD
HETATM    6  H   UNL     1      26.848  44.177  52.796  1.00  0.00     0.164 HD
ENDROOT
BRANCH   1   7
HETATM    7  C   UNL     1      26.224  44.990  50.143  1.00  0.00     0.037 A 
HETATM    8  C   UNL     1      24.881  45.251  50.399  1.00  0.00     0.032 A 
HETATM    9  C   UNL     1      24.361  46.545  50.228  1.00  0.00     0.039 A 
HETATM   10  C   UNL     1      25.182  47.601  49.824  1.00  0.00     0.075 A 
HETATM   11  C   UNL     1      26.544  47.359  49.600  1.00  0.00    -0.026 A 
HETATM   12  C   UNL     1      27.470  48.468  49.180  1.00  0.00     0.051 C 
HETATM   13  C   UNL     1      27.047  46.058  49.757  1.00  0.00     0.039 A 
BRANCH  10  14
HETATM   14  O   UNL     1      24.774  48.886  49.596  1.00  0.00    -0.346 OA
BRANCH  14  15
HETATM   15  C   UNL     1      23.772  49.159  48.614  1.00  0.00     0.121 C 
HETATM   16  C   UNL     1      22.465  49.557  49.294  1.00  0.00     0.040 C 
HETATM   17  C   UNL     1      24.296  50.323  47.777  1.00  0.00     0.040 C 
ENDBRANCH  14  15
ENDBRANCH  10  14
ENDBRANCH   1   7
BRANCH   3  18
HETATM   18  C   UNL     1      28.338  42.913  53.510  1.00  0.00     0.183 C 
BRANCH  18  19
HETATM   19  C   UNL     1      29.076  43.777  54.508  1.00  0.00     0.053 A 
HETATM   20  N   UNL     1      28.634  45.044  54.730  1.00  0.00    -0.264 NA
HETATM   21  C   UNL     1      29.304  45.785  55.643  1.00  0.00     0.118 A 
HETATM   22  C   UNL     1      30.387  45.323  56.367  1.00  0.00     0.043 A 
HETATM   23  C   UNL     1      30.803  44.021  56.138  1.00  0.00     0.037 A 
HETATM   24 CL   UNL     1      32.137  43.380  57.015  1.00  0.00    -0.084 Cl
HETATM   25  C   UNL     1      30.149  43.229  55.204  1.00  0.00     0.052 A 
ENDBRANCH  18  19
ENDBRANCH   3  18
TORSDOF 5
ENDMDL
MODEL 4
REMARK VINA RESULT:      -8.0      4.578      5.994
REMARK  5 active torsions:
REMARK  status: ('A' for Active; 'I' for Inactive)
REMARK    1  A    between atoms: C_3  and  O_4 
REMARK    2  A    between atoms: O_4  and  C_5 
REMARK    3  A    between atoms: C_10  and  N_11 
REMARK       I    between atoms: N_11  and  C_12 
REMARK       I    between atoms: C_12  and  N_13 
REMARK    4  A    between atoms: N_13  and  C_14 
REMARK    5  A    between atoms: C_14  and  C_15 
ROOT
HETATM    1  N   UNL     1      26.311  43.135  52.789  1.00  0.00    -0.309 N 
HETATM    2  C   UNL     1      26.099  42.869  51.479  1.00  0.00     0.321 C 
HETATM    3  N   UNL     1      27.152  42.683  50.649  1.00  0.00    -0.337 N 
HETATM    4  O   UNL     1      24.934  42.782  51.088  1.00  0.00    -0.247 OA
HETATM    5  H   UNL     1      25.424  43.127  53.275  1.00  0.00     0.170 HD
HETATM    6  H   UNL     1      27.981  42.272  51.050  1.00  0.00     0.164 HD
ENDROOT
BRANCH   1   7
HETATM    7  C   UNL     1      27.430  43.449  53.579  1.00  0.00     0.037 A 
HETATM    8  C   UNL     1      28.471  42.584  53.903  1.00  0.00     0.032 A 
HETATM    9  C   UNL     1      29.536  43.022  54.709  1.00  0.00     0.039 A 
HETATM   10  C   UNL     1      29.587  44.336  55.181  1.00  0.00     0.075 A 
HETATM   11  C   UNL     1      28.563  45.227  54.829  1.00  0.00    -0.026 A 
HETATM   12  C   UNL     1      28.583  46.656  55.299  1.00  0.00     0.051 C 
HETATM   13  C   UNL     1      27.496  44.772  54.039  1.00  0.00     0.039 A 
BRANCH  10  14
HETATM   14  O   UNL     1      30.554  44.855  55.995  1.00  0.00    -0.346 OA
BRANCH  14  15
HETATM   15  C   UNL     1      30.752  44.322  57.307  1.00  0.00     0.121 C 
HETATM   16  C   UNL     1      32.075  43.564  57.372  1.00  0.00     0.040 C 
HETATM   17  C   UNL     1      30.793  45.519  58.255  1.00  0.00     0.040 C 
ENDBRANCH  14  15
ENDBRANCH  10  14
ENDBRANCH   1   7
BRANCH   3  18
HETATM   18  C   UNL     1      26.886  42.288  49.281  1.00  0.00     0.183 C 
BRANCH  18  19
HETATM   19  C   UNL     1      27.525  40.976  48.885  1.00  0.00     0.053 A 
HETATM   20  N   UNL     1      27.411  40.553  47.597  1.00  0.00    -0.264 NA
HETATM   21  C   UNL     1      28.010  39.385  47.271  1.00  0.00     0.118 A 
HETATM   22  C   UNL     1      28.738  38.617  48.159  1.00  0.00     0.043 A 
HETATM   23  C   UNL     1      28.859  39.081  49.459  1.00  0.00     0.037 A 
HETATM   24 CL   UNL     1      29.764  38.179  50.612  1.00  0.00    -0.084 Cl
HETATM   25  C   UNL     1      28.253  40.271  49.838  1.00  0.00     0.052 A 
ENDBRANCH  18  19
ENDBRANCH   3  18
TORSDOF 5
ENDMDL
MODEL 5
REMARK VINA RESULT:      -7.8      4.862     10.234
REMARK  5 active torsions:
REMARK  status: ('A' for Active; 'I' for Inactive)
REMARK    1  A    between atoms: C_3  and  O_4 
REMARK    2  A    between atoms: O_4  and  C_5 
REMARK    3  A    between atoms: C_10  and  N_11 
REMARK       I    between atoms: N_11  and  C_12 
REMARK       I    between atoms: C_12  and  N_13 
REMARK    4  A    between atoms: N_13  and  C_14 
REMARK    5  A    between atoms: C_14  and  C_15 
ROOT
HETATM    1  N   UNL     1      23.588  50.176  47.575  1.00  0.00    -0.309 N 
HETATM    2  C   UNL     1      24.827  49.872  48.025  1.00  0.00     0.321 C 
HETATM    3  N   UNL     1      24.982  48.951  49.005  1.00  0.00    -0.337 N 
HETATM    4  O   UNL     1      25.788  50.437  47.501  1.00  0.00    -0.247 OA
HETATM    5  H   UNL     1      23.669  50.786  46.773  1.00  0.00     0.170 HD
HETATM    6  H   UNL     1      24.310  48.199  49.035  1.00  0.00     0.164 HD
ENDROOT
BRANCH   1   7
HETATM    7  C   UNL     1      22.275  49.883  47.981  1.00  0.00     0.037 A 
HETATM    8  C   UNL     1      21.744  48.612  48.180  1.00  0.00     0.032 A 
HETATM    9  C   UNL     1      20.408  48.453  48.585  1.00  0.00     0.039 A 
HETATM   10  C   UNL     1      19.592  49.563  48.821  1.00  0.00     0.075 A 
HETATM   11  C   UNL     1      20.127  50.848  48.660  1.00  0.00    -0.026 A 
HETATM   12  C   UNL     1      19.292  52.073  48.920  1.00  0.00     0.051 C 
HETATM   13  C   UNL     1      21.458  50.993  48.239  1.00  0.00     0.039 A 
BRANCH  10  14
HETATM   14  O   UNL     1      18.275  49.522  49.184  1.00  0.00    -0.346 OA
BRANCH  14  15
HETATM   15  C   UNL     1      17.305  48.944  48.307  1.00  0.00     0.121 C 
HETATM   16  C   UNL     1      16.803  47.621  48.878  1.00  0.00     0.040 C 
HETATM   17  C   UNL     1      16.153  49.943  48.223  1.00  0.00     0.040 C 
ENDBRANCH  14  15
ENDBRANCH  10  14
ENDBRANCH   1   7
BRANCH   3  18
HETATM   18  C   UNL     1      26.328  48.568  49.381  1.00  0.00     0.183 C 
BRANCH  18  19
HETATM   19  C   UNL     1      26.413  47.234  50.089  1.00  0.00     0.053 A 
HETATM   20  N   UNL     1      26.918  46.166  49.416  1.00  0.00    -0.264 NA
HETATM   21  C   UNL     1      26.998  44.992  50.083  1.00  0.00     0.118 A 
HETATM   22  C   UNL     1      26.616  44.825  51.401  1.00  0.00     0.043 A 
HETATM   23  C   UNL     1      26.125  45.935  52.071  1.00  0.00     0.037 A 
HETATM   24 CL   UNL     1      25.645  45.799  53.717  1.00  0.00    -0.084 Cl
HETATM   25  C   UNL     1      26.019  47.157  51.421  1.00  0.00     0.052 A 
ENDBRANCH  18  19
ENDBRANCH   3  18
TORSDOF 5
ENDMDL
MODEL 6
REMARK VINA RESULT:      -7.7      4.969      7.973
REMARK  5 active torsions:
REMARK  status: ('A' for Active; 'I' for Inactive)
REMARK    1  A    between atoms: C_3  and  O_4 
REMARK    2  A    between atoms: O_4  and  C_5 
REMARK    3  A    between atoms: C_10  and  N_11 
REMARK       I    between atoms: N_11  and  C_12 
REMARK       I    between atoms: C_12  and  N_13 
REMARK    4  A    between atoms: N_13  and  C_14 
REMARK    5  A    between atoms: C_14  and  C_15 
ROOT
HETATM    1  N   UNL     1      26.396  43.471  53.184  1.00  0.00    -0.309 N 
HETATM    2  C   UNL     1      26.790  44.477  53.999  1.00  0.00     0.321 C 
HETATM    3  N   UNL     1      28.091  44.851  54.028  1.00  0.00    -0.337 N 
HETATM    4  O   UNL     1      25.931  45.040  54.679  1.00  0.00    -0.247 OA
HETATM    5  H   UNL     1      25.386  43.407  53.204  1.00  0.00     0.170 HD
HETATM    6  H   UNL     1      28.613  44.754  53.170  1.00  0.00     0.164 HD
ENDROOT
BRANCH   1   7
HETATM    7  C   UNL     1      27.047  42.513  52.389  1.00  0.00     0.037 A 
HETATM    8  C   UNL     1      27.963  41.565  52.835  1.00  0.00     0.032 A 
HETATM    9  C   UNL     1      28.549  40.660  51.933  1.00  0.00     0.039 A 
HETATM   10  C   UNL     1      28.207  40.674  50.578  1.00  0.00     0.075 A 
HETATM   11  C   UNL     1      27.257  41.600  50.124  1.00  0.00    -0.026 A 
HETATM   12  C   UNL     1      26.845  41.641  48.678  1.00  0.00     0.051 C 
HETATM   13  C   UNL     1      26.693  42.509  51.032  1.00  0.00     0.039 A 
BRANCH  10  14
HETATM   14  O   UNL     1      28.738  39.865  49.613  1.00  0.00    -0.346 OA
BRANCH  14  15
HETATM   15  C   UNL     1      28.928  38.471  49.867  1.00  0.00     0.121 C 
HETATM   16  C   UNL     1      27.751  37.672  49.314  1.00  0.00     0.040 C 
HETATM   17  C   UNL     1      30.211  38.073  49.141  1.00  0.00     0.040 C 
ENDBRANCH  14  15
ENDBRANCH  10  14
ENDBRANCH   1   7
BRANCH   3  18
HETATM   18  C   UNL     1      28.455  46.005  54.825  1.00  0.00     0.183 C 
BRANCH  18  19
HETATM   19  C   UNL     1      29.265  45.669  56.057  1.00  0.00     0.053 A 
HETATM   20  N   UNL     1      28.962  46.286  57.230  1.00  0.00    -0.264 NA
HETATM   21  C   UNL     1      29.693  45.949  58.318  1.00  0.00     0.118 A 
HETATM   22  C   UNL     1      30.706  45.010  58.306  1.00  0.00     0.043 A 
HETATM   23  C   UNL     1      30.981  44.379  57.103  1.00  0.00     0.037 A 
HETATM   24 CL   UNL     1      32.221  43.189  57.022  1.00  0.00    -0.084 Cl
HETATM   25  C   UNL     1      30.260  44.700  55.961  1.00  0.00     0.052 A 
ENDBRANCH  18  19
ENDBRANCH   3  18
TORSDOF 5
ENDMDL
MODEL 7
REMARK VINA RESULT:      -7.6      3.310      5.288
REMARK  5 active torsions:
REMARK  status: ('A' for Active; 'I' for Inactive)
REMARK    1  A    between atoms: C_3  and  O_4 
REMARK    2  A    between atoms: O_4  and  C_5 
REMARK    3  A    between atoms: C_10  and  N_11 
REMARK       I    between atoms: N_11  and  C_12 
REMARK       I    between atoms: C_12  and  N_13 
REMARK    4  A    between atoms: N_13  and  C_14 
REMARK    5  A    between atoms: C_14  and  C_15 
ROOT
HETATM    1  N   UNL     1      26.731  48.469  49.275  1.00  0.00    -0.309 N 
HETATM    2  C   UNL     1      25.941  49.304  48.562  1.00  0.00     0.321 C 
HETATM    3  N   UNL     1      24.608  49.338  48.800  1.00  0.00    -0.337 N 
HETATM    4  O   UNL     1      26.475  50.030  47.723  1.00  0.00    -0.247 OA
HETATM    5  H   UNL     1      27.699  48.659  49.050  1.00  0.00     0.170 HD
HETATM    6  H   UNL     1      24.309  49.155  49.746  1.00  0.00     0.164 HD
ENDROOT
BRANCH   1   7
HETATM    7  C   UNL     1      26.517  47.418  50.182  1.00  0.00     0.037 A 
HETATM    8  C   UNL     1      26.026  47.543  51.479  1.00  0.00     0.032 A 
HETATM    9  C   UNL     1      25.861  46.407  52.291  1.00  0.00     0.039 A 
HETATM   10  C   UNL     1      26.161  45.130  51.809  1.00  0.00     0.075 A 
HETATM   11  C   UNL     1      26.620  44.989  50.493  1.00  0.00    -0.026 A 
HETATM   12  C   UNL     1      26.939  43.632  49.925  1.00  0.00     0.051 C 
HETATM   13  C   UNL     1      26.797  46.132  49.698  1.00  0.00     0.039 A 
BRANCH  10  14
HETATM   14  O   UNL     1      26.069  43.968  52.522  1.00  0.00    -0.346 OA
BRANCH  14  15
HETATM   15  C   UNL     1      26.760  43.830  53.766  1.00  0.00     0.121 C 
HETATM   16  C   UNL     1      25.760  43.685  54.909  1.00  0.00     0.040 C 
HETATM   17  C   UNL     1      27.602  42.561  53.651  1.00  0.00     0.040 C 
ENDBRANCH  14  15
ENDBRANCH  10  14
ENDBRANCH   1   7
BRANCH   3  18
HETATM   18  C   UNL     1      23.811  50.324  48.098  1.00  0.00     0.183 C 
BRANCH  18  19
HETATM   19  C   UNL     1      22.501  50.653  48.779  1.00  0.00     0.053 A 
HETATM   20  N   UNL     1      22.458  50.684  50.138  1.00  0.00    -0.264 NA
HETATM   21  C   UNL     1      21.277  51.000  50.716  1.00  0.00     0.118 A 
HETATM   22  C   UNL     1      20.130  51.307  50.009  1.00  0.00     0.043 A 
HETATM   23  C   UNL     1      20.205  51.290  48.626  1.00  0.00     0.037 A 
HETATM   24 CL   UNL     1      18.817  51.676  47.686  1.00  0.00    -0.084 Cl
HETATM   25  C   UNL     1      21.397  50.964  47.992  1.00  0.00     0.052 A 
ENDBRANCH  18  19
ENDBRANCH   3  18
TORSDOF 5
ENDMDL
MODEL 8
REMARK VINA RESULT:      -7.4      4.064      5.246
REMARK  5 active torsions:
REMARK  status: ('A' for Active; 'I' for Inactive)
REMARK    1  A    between atoms: C_3  and  O_4 
REMARK    2  A    between atoms: O_4  and  C_5 
REMARK    3  A    between atoms: C_10  and  N_11 
REMARK       I    between atoms: N_11  and  C_12 
REMARK       I    between atoms: C_12  and  N_13 
REMARK    4  A    between atoms: N_13  and  C_14 
REMARK    5  A    between atoms: C_14  and  C_15 
ROOT
HETATM    1  N   UNL     1      25.775  43.679  52.981  1.00  0.00    -0.309 N 
HETATM    2  C   UNL     1      25.607  43.360  51.677  1.00  0.00     0.321 C 
HETATM    3  N   UNL     1      26.684  43.256  50.864  1.00  0.00    -0.337 N 
HETATM    4  O   UNL     1      24.461  43.151  51.276  1.00  0.00    -0.247 OA
HETATM    5  H   UNL     1      24.887  43.597  53.458  1.00  0.00     0.170 HD
HETATM    6  H   UNL     1      27.544  42.937  51.284  1.00  0.00     0.164 HD
ENDROOT
BRANCH   1   7
HETATM    7  C   UNL     1      26.848  44.119  53.774  1.00  0.00     0.037 A 
HETATM    8  C   UNL     1      26.819  45.183  54.672  1.00  0.00     0.032 A 
HETATM    9  C   UNL     1      27.967  45.527  55.407  1.00  0.00     0.039 A 
HETATM   10  C   UNL     1      29.151  44.796  55.273  1.00  0.00     0.075 A 
HETATM   11  C   UNL     1      29.181  43.700  54.400  1.00  0.00    -0.026 A 
HETATM   12  C   UNL     1      30.427  42.874  54.235  1.00  0.00     0.051 C 
HETATM   13  C   UNL     1      28.033  43.378  53.659  1.00  0.00     0.039 A 
BRANCH  10  14
HETATM   14  O   UNL     1      30.330  45.064  55.911  1.00  0.00    -0.346 OA
BRANCH  14  15
HETATM   15  C   UNL     1      30.503  44.702  57.283  1.00  0.00     0.121 C 
HETATM   16  C   UNL     1      31.767  43.863  57.449  1.00  0.00     0.040 C 
HETATM   17  C   UNL     1      30.644  46.010  58.058  1.00  0.00     0.040 C 
ENDBRANCH  14  15
ENDBRANCH  10  14
ENDBRANCH   1   7
BRANCH   3  18
HETATM   18  C   UNL     1      26.476  42.803  49.503  1.00  0.00     0.183 C 
BRANCH  18  19
HETATM   19  C   UNL     1      27.250  41.554  49.147  1.00  0.00     0.053 A 
HETATM   20  N   UNL     1      27.856  40.851  50.142  1.00  0.00    -0.264 NA
HETATM   21  C   UNL     1      28.524  39.729  49.792  1.00  0.00     0.118 A 
HETATM   22  C   UNL     1      28.609  39.252  48.498  1.00  0.00     0.043 A 
HETATM   23  C   UNL     1      27.964  39.973  47.506  1.00  0.00     0.037 A 
HETATM   24 CL   UNL     1      28.018  39.427  45.875  1.00  0.00    -0.084 Cl
HETATM   25  C   UNL     1      27.273  41.136  47.820  1.00  0.00     0.052 A 
ENDBRANCH  18  19
ENDBRANCH   3  18
TORSDOF 5
ENDMDL
MODEL 9
REMARK VINA RESULT:      -7.3      3.983      6.206
REMARK  5 active torsions:
REMARK  status: ('A' for Active; 'I' for Inactive)
REMARK    1  A    between atoms: C_3  and  O_4 
REMARK    2  A    between atoms: O_4  and  C_5 
REMARK    3  A    between atoms: C_10  and  N_11 
REMARK       I    between atoms: N_11  and  C_12 
REMARK       I    between atoms: C_12  and  N_13 
REMARK    4  A    between atoms: N_13  and  C_14 
REMARK    5  A    between atoms: C_14  and  C_15 
ROOT
HETATM    1  N   UNL     1      24.586  48.210  48.885  1.00  0.00    -0.309 N 
HETATM    2  C   UNL     1      23.709  49.209  48.635  1.00  0.00     0.321 C 
HETATM    3  N   UNL     1      22.870  49.630  49.610  1.00  0.00    -0.337 N 
HETATM    4  O   UNL     1      23.722  49.724  47.515  1.00  0.00    -0.247 OA
HETATM    5  H   UNL     1      25.206  48.109  48.092  1.00  0.00     0.170 HD
HETATM    6  H   UNL     1      23.208  49.573  50.559  1.00  0.00     0.164 HD
ENDROOT
BRANCH   1   7
HETATM    7  C   UNL     1      24.792  47.297  49.932  1.00  0.00     0.037 A 
HETATM    8  C   UNL     1      25.495  47.543  51.108  1.00  0.00     0.032 A 
HETATM    9  C   UNL     1      25.632  46.538  52.080  1.00  0.00     0.039 A 
HETATM   10  C   UNL     1      25.047  45.282  51.902  1.00  0.00     0.075 A 
HETATM   11  C   UNL     1      24.305  45.034  50.739  1.00  0.00    -0.026 A 
HETATM   12  C   UNL     1      23.643  43.702  50.512  1.00  0.00     0.051 C 
HETATM   13  C   UNL     1      24.190  46.040  49.768  1.00  0.00     0.039 A 
BRANCH  10  14
HETATM   14  O   UNL     1      25.146  44.226  52.765  1.00  0.00    -0.346 OA
BRANCH  14  15
HETATM   15  C   UNL     1      26.368  43.982  53.465  1.00  0.00     0.121 C 
HETATM   16  C   UNL     1      26.074  43.517  54.889  1.00  0.00     0.040 C 
HETATM   17  C   UNL     1      27.088  42.875  52.698  1.00  0.00     0.040 C 
ENDBRANCH  14  15
ENDBRANCH  10  14
ENDBRANCH   1   7
BRANCH   3  18
HETATM   18  C   UNL     1      22.024  50.776  49.341  1.00  0.00     0.183 C 
BRANCH  18  19
HETATM   19  C   UNL     1      20.549  50.510  49.536  1.00  0.00     0.053 A 
HETATM   20  N   UNL     1      20.130  49.227  49.705  1.00  0.00    -0.264 NA
HETATM   21  C   UNL     1      18.807  49.025  49.897  1.00  0.00     0.118 A 
HETATM   22  C   UNL     1      17.870  50.039  49.946  1.00  0.00     0.043 A 
HETATM   23  C   UNL     1      18.325  51.339  49.793  1.00  0.00     0.037 A 
HETATM   24 CL   UNL     1      17.213  52.651  49.859  1.00  0.00    -0.084 Cl
HETATM   25  C   UNL     1      19.674  51.591  49.588  1.00  0.00     0.052 A 
ENDBRANCH  18  19
ENDBRANCH   3  18
TORSDOF 5
ENDMDL
MODEL 10
REMARK VINA RESULT:      -6.9     16.416     19.293
REMARK  5 active torsions:
REMARK  status: ('A' for Active; 'I' for Inactive)
REMARK    1  A    between atoms: C_3  and  O_4 
REMARK    2  A    between atoms: O_4  and  C_5 
REMARK    3  A    between atoms: C_10  and  N_11 
REMARK       I    between atoms: N_11  and  C_12 
REMARK       I    between atoms: C_12  and  N_13 
REMARK    4  A    between atoms: N_13  and  C_14 
REMARK    5  A    between atoms: C_14  and  C_15 
ROOT
HETATM    1  N   UNL     1      38.958  41.115  62.379  1.00  0.00    -0.309 N 
HETATM    2  C   UNL     1      39.490  39.965  62.855  1.00  0.00     0.321 C 
HETATM    3  N   UNL     1      39.686  39.814  64.186  1.00  0.00    -0.337 N 
HETATM    4  O   UNL     1      39.760  39.075  62.048  1.00  0.00    -0.247 OA
HETATM    5  H   UNL     1      38.776  41.008  61.389  1.00  0.00     0.170 HD
HETATM    6  H   UNL     1      39.036  40.281  64.799  1.00  0.00     0.164 HD
ENDROOT
BRANCH   1   7
HETATM    7  C   UNL     1      38.658  42.378  62.915  1.00  0.00     0.037 A 
HETATM    8  C   UNL     1      37.393  42.836  63.272  1.00  0.00     0.032 A 
HETATM    9  C   UNL     1      37.226  44.129  63.797  1.00  0.00     0.039 A 
HETATM   10  C   UNL     1      38.323  44.971  63.998  1.00  0.00     0.075 A 
HETATM   11  C   UNL     1      39.606  44.506  63.678  1.00  0.00    -0.026 A 
HETATM   12  C   UNL     1      40.819  45.370  63.892  1.00  0.00     0.051 C 
HETATM   13  C   UNL     1      39.758  43.220  63.137  1.00  0.00     0.039 A 
BRANCH  10  14
HETATM   14  O   UNL     1      38.269  46.252  64.469  1.00  0.00    -0.346 OA
BRANCH  14  15
HETATM   15  C   UNL     1      37.015  46.832  64.834  1.00  0.00     0.121 C 
HETATM   16  C   UNL     1      36.920  46.966  66.352  1.00  0.00     0.040 C 
HETATM   17  C   UNL     1      36.977  48.216  64.190  1.00  0.00     0.040 C 
ENDBRANCH  14  15
ENDBRANCH  10  14
ENDBRANCH   1   7
BRANCH   3  18
HETATM   18  C   UNL     1      40.150  38.529  64.669  1.00  0.00     0.183 C 
BRANCH  18  19
HETATM   19  C   UNL     1      41.655  38.417  64.768  1.00  0.00     0.053 A 
HETATM   20  N   UNL     1      42.249  37.243  64.425  1.00  0.00    -0.264 NA
HETATM   21  C   UNL     1      43.598  37.182  64.506  1.00  0.00     0.118 A 
HETATM   22  C   UNL     1      44.397  38.239  64.897  1.00  0.00     0.043 A 
HETATM   23  C   UNL     1      43.768  39.431  65.220  1.00  0.00     0.037 A 
HETATM   24 CL   UNL     1      44.705  40.792  65.701  1.00  0.00    -0.084 Cl
HETATM   25  C   UNL     1      42.385  39.536  65.158  1.00  0.00     0.052 A 
ENDBRANCH  18  19
ENDBRANCH   3  18
TORSDOF 5
ENDMDL
