MODEL 1
REMARK VINA RESULT:      -8.9      0.000      0.000
REMARK  8 active torsions:
REMARK  status: ('A' for Active; 'I' for Inactive)
REMARK    1  A    between atoms: C_7  and  C_8 
REMARK    2  A    between atoms: C_10  and  O_11 
REMARK    3  A    between atoms: C_13  and  O_14 
REMARK    4  A    between atoms: O_14  and  C_15 
REMARK    5  A    between atoms: C_15  and  C_16 
REMARK       I    between atoms: C_16  and  N_17 
REMARK    6  A    between atoms: C_21  and  C_22 
REMARK       I    between atoms: C_22  and  N_23 
REMARK    7  A    between atoms: N_23  and  C_24 
REMARK    8  A    between atoms: C_24  and  C_25 
ROOT
HETATM    1  C   UNL     1      24.887  47.219  50.749  1.00  0.00     0.069 C 
HETATM    2  C   UNL     1      24.597  45.804  50.343  1.00  0.00     0.024 C 
HETATM    3  N   UNL     1      24.013  45.659  49.103  1.00  0.00    -0.312 N 
HETATM    4  C   UNL     1      23.482  44.503  48.614  1.00  0.00     0.321 C 
HETATM    5  O   UNL     1      22.935  44.456  47.518  1.00  0.00    -0.247 OA
HETATM    6  N   UNL     1      23.566  43.414  49.417  1.00  0.00    -0.330 N 
HETATM    7  C   UNL     1      24.391  43.331  50.609  1.00  0.00     0.160 C 
HETATM    8  C   UNL     1      24.799  44.698  51.085  1.00  0.00     0.059 C 
HETATM    9  H   UNL     1      23.856  46.468  48.516  1.00  0.00     0.170 HD
HETATM   10  H   UNL     1      23.190  42.562  49.026  1.00  0.00     0.165 HD
ENDROOT
BRANCH   7  11
HETATM   11  C   UNL     1      25.579  42.417  50.333  1.00  0.00    -0.028 A 
HETATM   12  C   UNL     1      26.256  42.451  49.100  1.00  0.00     0.049 A 
HETATM   13  C   UNL     1      27.324  41.584  48.816  1.00  0.00     0.102 A 
HETATM   14  C   UNL     1      27.749  40.686  49.809  1.00  0.00     0.102 A 
HETATM   15  C   UNL     1      27.078  40.652  51.040  1.00  0.00     0.040 A 
HETATM   16  C   UNL     1      26.007  41.508  51.305  1.00  0.00     0.012 A 
BRANCH  13  17
HETATM   17  O   UNL     1      27.973  41.583  47.612  1.00  0.00    -0.353 OA
HETATM   18  C   UNL     1      27.500  40.695  46.604  1.00  0.00     0.210 C 
ENDBRANCH  13  17
BRANCH  14  19
HETATM   19  O   UNL     1      28.756  39.757  49.739  1.00  0.00    -0.339 OA
BRANCH  19  20
HETATM   20  C   UNL     1      28.408  38.377  49.810  1.00  0.00     0.278 C 
BRANCH  20  21
HETATM   21  C   UNL     1      29.508  37.600  50.533  1.00  0.00     0.239 C 
HETATM   22  N   UNL     1      29.104  36.471  51.186  1.00  0.00    -0.368 N 
HETATM   23  H   UNL     1      28.116  36.314  51.351  1.00  0.00     0.159 HD
HETATM   24  H   UNL     1      29.787  35.964  51.730  1.00  0.00     0.159 HD
HETATM   25  O   UNL     1      30.693  37.917  50.500  1.00  0.00    -0.271 OA
ENDBRANCH  20  21
ENDBRANCH  19  20
ENDBRANCH  14  19
ENDBRANCH   7  11
BRANCH   8  26
HETATM   26  C   UNL     1      25.346  44.730  52.465  1.00  0.00     0.252 C 
HETATM   27  N   UNL     1      26.581  45.313  52.586  1.00  0.00    -0.353 N 
HETATM   28  H   UNL     1      27.131  45.485  51.755  1.00  0.00     0.163 HD
HETATM   29  O   UNL     1      24.735  44.207  53.389  1.00  0.00    -0.268 OA
BRANCH  27  30
HETATM   30  C   UNL     1      27.255  45.338  53.866  1.00  0.00     0.161 C 
BRANCH  30  31
HETATM   31  C   UNL     1      28.481  44.458  53.930  1.00  0.00    -0.041 A 
HETATM   32  C   UNL     1      29.325  44.415  55.050  1.00  0.00     0.009 A 
HETATM   33  C   UNL     1      30.417  43.544  55.089  1.00  0.00     0.001 A 
HETATM   34  C   UNL     1      30.666  42.686  54.022  1.00  0.00     0.000 A 
HETATM   35  C   UNL     1      29.825  42.698  52.912  1.00  0.00     0.001 A 
HETATM   36  C   UNL     1      28.739  43.576  52.868  1.00  0.00     0.009 A 
ENDBRANCH  30  31
ENDBRANCH  27  30
ENDBRANCH   8  26
TORSDOF 8
ENDMDL
MODEL 2
REMARK VINA RESULT:      -8.6      2.334      6.330
REMARK  8 active torsions:
REMARK  status: ('A' for Active; 'I' for Inactive)
REMARK    1  A    between atoms: C_7  and  C_8 
REMARK    2  A    between atoms: C_10  and  O_11 
REMARK    3  A    between atoms: C_13  and  O_14 
REMARK    4  A    between atoms: O_14  and  C_15 
REMARK    5  A    between atoms: C_15  and  C_16 
REMARK       I    between atoms: C_16  and  N_17 
REMARK    6  A    between atoms: C_21  and  C_22 
REMARK       I    between atoms: C_22  and  N_23 
REMARK    7  A    between atoms: N_23  and  C_24 
REMARK    8  A    between atoms: C_24  and  C_25 
ROOT
HETATM    1  C   UNL     1      28.149  40.828  53.746  1.00  0.00     0.069 C 
HETATM    2  C   UNL     1      27.820  41.347  52.376  1.00  0.00     0.024 C 
HETATM    3  N   UNL     1      27.942  40.428  51.357  1.00  0.00    -0.312 N 
HETATM    4  C   UNL     1      27.893  40.718  50.026  1.00  0.00     0.321 C 
HETATM    5  O   UNL     1      28.056  39.856  49.171  1.00  0.00    -0.247 OA
HETATM    6  N   UNL     1      27.681  42.017  49.700  1.00  0.00    -0.330 N 
HETATM    7  C   UNL     1      27.252  43.042  50.634  1.00  0.00     0.160 C 
HETATM    8  C   UNL     1      27.478  42.610  52.057  1.00  0.00     0.059 C 
HETATM    9  H   UNL     1      28.187  39.468  51.564  1.00  0.00     0.170 HD
HETATM   10  H   UNL     1      27.622  42.206  48.710  1.00  0.00     0.165 HD
ENDROOT
BRANCH   7  11
HETATM   11  C   UNL     1      25.800  43.405  50.346  1.00  0.00    -0.028 A 
HETATM   12  C   UNL     1      25.435  44.710  49.964  1.00  0.00     0.049 A 
HETATM   13  C   UNL     1      24.096  45.069  49.739  1.00  0.00     0.102 A 
HETATM   14  C   UNL     1      23.101  44.086  49.861  1.00  0.00     0.102 A 
HETATM   15  C   UNL     1      23.463  42.785  50.239  1.00  0.00     0.040 A 
HETATM   16  C   UNL     1      24.795  42.443  50.476  1.00  0.00     0.012 A 
BRANCH  13  17
HETATM   17  O   UNL     1      23.722  46.340  49.397  1.00  0.00    -0.353 OA
HETATM   18  C   UNL     1      24.315  47.421  50.109  1.00  0.00     0.210 C 
ENDBRANCH  13  17
BRANCH  14  19
HETATM   19  O   UNL     1      21.747  44.223  49.695  1.00  0.00    -0.339 OA
BRANCH  19  20
HETATM   20  C   UNL     1      21.263  44.662  48.429  1.00  0.00     0.278 C 
BRANCH  20  21
HETATM   21  C   UNL     1      19.834  45.185  48.570  1.00  0.00     0.239 C 
HETATM   22  N   UNL     1      19.698  46.360  49.254  1.00  0.00    -0.368 N 
HETATM   23  H   UNL     1      20.473  46.711  49.804  1.00  0.00     0.159 HD
HETATM   24  H   UNL     1      18.766  46.707  49.426  1.00  0.00     0.159 HD
HETATM   25  O   UNL     1      18.860  44.634  48.067  1.00  0.00    -0.271 OA
ENDBRANCH  20  21
ENDBRANCH  19  20
ENDBRANCH  14  19
ENDBRANCH   7  11
BRANCH   8  26
HETATM   26  C   UNL     1      27.391  43.708  53.053  1.00  0.00     0.252 C 
HETATM   27  N   UNL     1      28.597  44.189  53.494  1.00  0.00    -0.353 N 
HETATM   28  H   UNL     1      29.439  43.662  53.304  1.00  0.00     0.163 HD
HETATM   29  O   UNL     1      26.303  44.085  53.471  1.00  0.00    -0.268 OA
BRANCH  27  30
HETATM   30  C   UNL     1      28.647  45.207  54.521  1.00  0.00     0.161 C 
BRANCH  30  31
HETATM   31  C   UNL     1      29.620  44.904  55.635  1.00  0.00    -0.041 A 
HETATM   32  C   UNL     1      29.684  45.665  56.812  1.00  0.00     0.009 A 
HETATM   33  C   UNL     1      30.561  45.316  57.843  1.00  0.00     0.001 A 
HETATM   34  C   UNL     1      31.367  44.188  57.723  1.00  0.00     0.000 A 
HETATM   35  C   UNL     1      31.300  43.407  56.572  1.00  0.00     0.001 A 
HETATM   36  C   UNL     1      30.431  43.761  55.537  1.00  0.00     0.009 A 
ENDBRANCH  30  31
ENDBRANCH  27  30
ENDBRANCH   8  26
TORSDOF 8
ENDMDL
MODEL 3
REMARK VINA RESULT:      -8.3      2.408      6.252
REMARK  8 active torsions:
REMARK  status: ('A' for Active; 'I' for Inactive)
REMARK    1  A    between atoms: C_7  and  C_8 
REMARK    2  A    between atoms: C_10  and  O_11 
REMARK    3  A    between atoms: C_13  and  O_14 
REMARK    4  A    between atoms: O_14  and  C_15 
REMARK    5  A    between atoms: C_15  and  C_16 
REMARK       I    between atoms: C_16  and  N_17 
REMARK    6  A    between atoms: C_21  and  C_22 
REMARK       I    between atoms: C_22  and  N_23 
REMARK    7  A    between atoms: N_23  and  C_24 
REMARK    8  A    between atoms: C_24  and  C_25 
ROOT
HETATM    1  C   UNL     1      28.284  40.654  53.415  1.00  0.00     0.069 C 
HETATM    2  C   UNL     1      27.857  41.202  52.084  1.00  0.00     0.024 C 
HETATM    3  N   UNL     1      28.015  40.342  51.019  1.00  0.00    -0.312 N 
HETATM    4  C   UNL     1      27.887  40.685  49.706  1.00  0.00     0.321 C 
HETATM    5  O   UNL     1      28.088  39.878  48.806  1.00  0.00    -0.247 OA
HETATM    6  N   UNL     1      27.553  41.973  49.449  1.00  0.00    -0.330 N 
HETATM    7  C   UNL     1      27.076  42.915  50.446  1.00  0.00     0.160 C 
HETATM    8  C   UNL     1      27.397  42.443  51.838  1.00  0.00     0.059 C 
HETATM    9  H   UNL     1      28.349  39.399  51.171  1.00  0.00     0.170 HD
HETATM   10  H   UNL     1      27.438  42.200  48.472  1.00  0.00     0.165 HD
ENDROOT
BRANCH   7  11
HETATM   11  C   UNL     1      25.588  43.164  50.229  1.00  0.00    -0.028 A 
HETATM   12  C   UNL     1      24.744  42.155  49.726  1.00  0.00     0.049 A 
HETATM   13  C   UNL     1      23.381  42.384  49.480  1.00  0.00     0.102 A 
HETATM   14  C   UNL     1      22.840  43.645  49.783  1.00  0.00     0.102 A 
HETATM   15  C   UNL     1      23.678  44.649  50.287  1.00  0.00     0.040 A 
HETATM   16  C   UNL     1      25.036  44.416  50.512  1.00  0.00     0.012 A 
BRANCH  13  17
HETATM   17  O   UNL     1      22.554  41.424  48.963  1.00  0.00    -0.353 OA
HETATM   18  C   UNL     1      22.605  41.191  47.559  1.00  0.00     0.210 C 
ENDBRANCH  13  17
BRANCH  14  19
HETATM   19  O   UNL     1      21.550  44.077  49.615  1.00  0.00    -0.339 OA
BRANCH  19  20
HETATM   20  C   UNL     1      21.297  45.084  48.639  1.00  0.00     0.278 C 
BRANCH  20  21
HETATM   21  C   UNL     1      19.796  45.360  48.553  1.00  0.00     0.239 C 
HETATM   22  N   UNL     1      19.397  46.603  48.957  1.00  0.00    -0.368 N 
HETATM   23  H   UNL     1      20.039  47.188  49.480  1.00  0.00     0.159 HD
HETATM   24  H   UNL     1      18.408  46.803  48.977  1.00  0.00     0.159 HD
HETATM   25  O   UNL     1      18.986  44.555  48.103  1.00  0.00    -0.271 OA
ENDBRANCH  20  21
ENDBRANCH  19  20
ENDBRANCH  14  19
ENDBRANCH   7  11
BRANCH   8  26
HETATM   26  C   UNL     1      27.257  43.485  52.886  1.00  0.00     0.252 C 
HETATM   27  N   UNL     1      28.410  44.161  53.190  1.00  0.00    -0.353 N 
HETATM   28  H   UNL     1      29.297  43.796  52.870  1.00  0.00     0.163 HD
HETATM   29  O   UNL     1      26.187  43.653  53.459  1.00  0.00    -0.268 OA
BRANCH  27  30
HETATM   30  C   UNL     1      28.423  45.147  54.249  1.00  0.00     0.161 C 
BRANCH  30  31
HETATM   31  C   UNL     1      29.369  44.819  55.379  1.00  0.00    -0.041 A 
HETATM   32  C   UNL     1      30.265  43.740  55.328  1.00  0.00     0.009 A 
HETATM   33  C   UNL     1      31.163  43.506  56.373  1.00  0.00     0.001 A 
HETATM   34  C   UNL     1      31.195  44.360  57.471  1.00  0.00     0.000 A 
HETATM   35  C   UNL     1      30.330  45.449  57.528  1.00  0.00     0.001 A 
HETATM   36  C   UNL     1      29.425  45.678  56.488  1.00  0.00     0.009 A 
ENDBRANCH  30  31
ENDBRANCH  27  30
ENDBRANCH   8  26
TORSDOF 8
ENDMDL
MODEL 4
REMARK VINA RESULT:      -8.2      2.589      6.597
REMARK  8 active torsions:
REMARK  status: ('A' for Active; 'I' for Inactive)
REMARK    1  A    between atoms: C_7  and  C_8 
REMARK    2  A    between atoms: C_10  and  O_11 
REMARK    3  A    between atoms: C_13  and  O_14 
REMARK    4  A    between atoms: O_14  and  C_15 
REMARK    5  A    between atoms: C_15  and  C_16 
REMARK       I    between atoms: C_16  and  N_17 
REMARK    6  A    between atoms: C_21  and  C_22 
REMARK       I    between atoms: C_22  and  N_23 
REMARK    7  A    between atoms: N_23  and  C_24 
REMARK    8  A    between atoms: C_24  and  C_25 
ROOT
HETATM    1  C   UNL     1      28.121  40.755  53.874  1.00  0.00     0.069 C 
HETATM    2  C   UNL     1      27.744  41.195  52.489  1.00  0.00     0.024 C 
HETATM    3  N   UNL     1      27.061  40.260  51.743  1.00  0.00    -0.312 N 
HETATM    4  C   UNL     1      26.796  40.358  50.409  1.00  0.00     0.321 C 
HETATM    5  O   UNL     1      26.223  39.464  49.797  1.00  0.00    -0.247 OA
HETATM    6  N   UNL     1      27.225  41.485  49.791  1.00  0.00    -0.330 N 
HETATM    7  C   UNL     1      27.695  42.674  50.479  1.00  0.00     0.160 C 
HETATM    8  C   UNL     1      28.052  42.371  51.908  1.00  0.00     0.059 C 
HETATM    9  H   UNL     1      26.804  39.370  52.152  1.00  0.00     0.170 HD
HETATM   10  H   UNL     1      26.996  41.550  48.810  1.00  0.00     0.165 HD
ENDROOT
BRANCH   7  11
HETATM   11  C   UNL     1      26.649  43.775  50.348  1.00  0.00    -0.028 A 
HETATM   12  C   UNL     1      25.287  43.523  50.598  1.00  0.00     0.049 A 
HETATM   13  C   UNL     1      24.308  44.516  50.437  1.00  0.00     0.102 A 
HETATM   14  C   UNL     1      24.708  45.807  50.055  1.00  0.00     0.102 A 
HETATM   15  C   UNL     1      26.065  46.061  49.809  1.00  0.00     0.040 A 
HETATM   16  C   UNL     1      27.028  45.062  49.955  1.00  0.00     0.012 A 
BRANCH  13  17
HETATM   17  O   UNL     1      22.976  44.279  50.646  1.00  0.00    -0.353 OA
HETATM   18  C   UNL     1      22.155  44.058  49.504  1.00  0.00     0.210 C 
ENDBRANCH  13  17
BRANCH  14  19
HETATM   19  O   UNL     1      23.922  46.910  49.837  1.00  0.00    -0.339 OA
BRANCH  19  20
HETATM   20  C   UNL     1      24.556  48.124  49.444  1.00  0.00     0.278 C 
BRANCH  20  21
HETATM   21  C   UNL     1      23.528  49.072  48.828  1.00  0.00     0.239 C 
HETATM   22  N   UNL     1      22.554  49.521  49.674  1.00  0.00    -0.368 N 
HETATM   23  H   UNL     1      22.420  49.065  50.569  1.00  0.00     0.159 HD
HETATM   24  H   UNL     1      21.818  50.097  49.292  1.00  0.00     0.159 HD
HETATM   25  O   UNL     1      23.581  49.463  47.666  1.00  0.00    -0.271 OA
ENDBRANCH  20  21
ENDBRANCH  19  20
ENDBRANCH  14  19
ENDBRANCH   7  11
BRANCH   8  26
HETATM   26  C   UNL     1      28.851  43.427  52.579  1.00  0.00     0.252 C 
HETATM   27  N   UNL     1      28.222  44.057  53.621  1.00  0.00    -0.353 N 
HETATM   28  H   UNL     1      27.224  43.940  53.740  1.00  0.00     0.163 HD
HETATM   29  O   UNL     1      29.963  43.727  52.161  1.00  0.00    -0.268 OA
BRANCH  27  30
HETATM   30  C   UNL     1      28.865  45.157  54.307  1.00  0.00     0.161 C 
BRANCH  30  31
HETATM   31  C   UNL     1      29.692  44.735  55.498  1.00  0.00    -0.041 A 
HETATM   32  C   UNL     1      30.489  43.580  55.495  1.00  0.00     0.009 A 
HETATM   33  C   UNL     1      31.283  43.257  56.599  1.00  0.00     0.001 A 
HETATM   34  C   UNL     1      31.311  44.095  57.710  1.00  0.00     0.000 A 
HETATM   35  C   UNL     1      30.545  45.257  57.720  1.00  0.00     0.001 A 
HETATM   36  C   UNL     1      29.743  45.576  56.621  1.00  0.00     0.009 A 
ENDBRANCH  30  31
ENDBRANCH  27  30
ENDBRANCH   8  26
TORSDOF 8
ENDMDL
MODEL 5
REMARK VINA RESULT:      -8.1      1.626      2.626
REMARK  8 active torsions:
REMARK  status: ('A' for Active; 'I' for Inactive)
REMARK    1  A    between atoms: C_7  and  C_8 
REMARK    2  A    between atoms: C_10  and  O_11 
REMARK    3  A    between atoms: C_13  and  O_14 
REMARK    4  A    between atoms: O_14  and  C_15 
REMARK    5  A    between atoms: C_15  and  C_16 
REMARK       I    between atoms: C_16  and  N_17 
REMARK    6  A    between atoms: C_21  and  C_22 
REMARK       I    between atoms: C_22  and  N_23 
REMARK    7  A    between atoms: N_23  and  C_24 
REMARK    8  A    between atoms: C_24  and  C_25 
ROOT
HETATM    1  C   UNL     1      24.039  47.945  49.169  1.00  0.00     0.069 C 
HETATM    2  C   UNL     1      23.845  46.514  49.578  1.00  0.00     0.024 C 
HETATM    3  N   UNL     1      22.806  45.861  48.951  1.00  0.00    -0.312 N 
HETATM    4  C   UNL     1      22.319  44.637  49.303  1.00  0.00     0.321 C 
HETATM    5  O   UNL     1      21.360  44.135  48.729  1.00  0.00    -0.247 OA
HETATM    6  N   UNL     1      22.936  44.019  50.339  1.00  0.00    -0.330 N 
HETATM    7  C   UNL     1      24.205  44.434  50.910  1.00  0.00     0.160 C 
HETATM    8  C   UNL     1      24.541  45.846  50.518  1.00  0.00     0.059 C 
HETATM    9  H   UNL     1      22.268  46.330  48.233  1.00  0.00     0.170 HD
HETATM   10  H   UNL     1      22.577  43.103  50.567  1.00  0.00     0.165 HD
ENDROOT
BRANCH   7  11
HETATM   11  C   UNL     1      25.283  43.433  50.514  1.00  0.00    -0.028 A 
HETATM   12  C   UNL     1      26.110  42.828  51.479  1.00  0.00     0.049 A 
HETATM   13  C   UNL     1      27.136  41.938  51.123  1.00  0.00     0.102 A 
HETATM   14  C   UNL     1      27.314  41.615  49.768  1.00  0.00     0.102 A 
HETATM   15  C   UNL     1      26.490  42.215  48.805  1.00  0.00     0.040 A 
HETATM   16  C   UNL     1      25.483  43.111  49.168  1.00  0.00     0.012 A 
BRANCH  13  17
HETATM   17  O   UNL     1      27.968  41.365  52.047  1.00  0.00    -0.353 OA
HETATM   18  C   UNL     1      29.077  42.131  52.506  1.00  0.00     0.210 C 
ENDBRANCH  13  17
BRANCH  14  19
HETATM   19  O   UNL     1      28.251  40.784  49.209  1.00  0.00    -0.339 OA
BRANCH  19  20
HETATM   20  C   UNL     1      28.026  39.378  49.265  1.00  0.00     0.278 C 
BRANCH  20  21
HETATM   21  C   UNL     1      29.252  38.678  49.848  1.00  0.00     0.239 C 
HETATM   22  N   UNL     1      29.446  38.841  51.190  1.00  0.00    -0.368 N 
HETATM   23  H   UNL     1      28.932  39.560  51.686  1.00  0.00     0.159 HD
HETATM   24  H   UNL     1      30.280  38.449  51.603  1.00  0.00     0.159 HD
HETATM   25  O   UNL     1      30.001  37.964  49.187  1.00  0.00    -0.271 OA
ENDBRANCH  20  21
ENDBRANCH  19  20
ENDBRANCH  14  19
ENDBRANCH   7  11
BRANCH   8  26
HETATM   26  C   UNL     1      25.629  46.463  51.318  1.00  0.00     0.252 C 
HETATM   27  N   UNL     1      25.299  46.759  52.616  1.00  0.00    -0.353 N 
HETATM   28  H   UNL     1      24.327  46.752  52.893  1.00  0.00     0.163 HD
HETATM   29  O   UNL     1      26.708  46.730  50.802  1.00  0.00    -0.268 OA
BRANCH  27  30
HETATM   30  C   UNL     1      26.248  47.433  53.476  1.00  0.00     0.161 C 
BRANCH  30  31
HETATM   31  C   UNL     1      27.169  46.497  54.222  1.00  0.00    -0.041 A 
HETATM   32  C   UNL     1      27.057  45.101  54.142  1.00  0.00     0.009 A 
HETATM   33  C   UNL     1      27.966  44.271  54.804  1.00  0.00     0.001 A 
HETATM   34  C   UNL     1      29.013  44.824  55.534  1.00  0.00     0.000 A 
HETATM   35  C   UNL     1      29.154  46.207  55.605  1.00  0.00     0.001 A 
HETATM   36  C   UNL     1      28.240  47.037  54.952  1.00  0.00     0.009 A 
ENDBRANCH  30  31
ENDBRANCH  27  30
ENDBRANCH   8  26
TORSDOF 8
ENDMDL
MODEL 6
REMARK VINA RESULT:      -7.6      2.221      3.451
REMARK  8 active torsions:
REMARK  status: ('A' for Active; 'I' for Inactive)
REMARK    1  A    between atoms: C_7  and  C_8 
REMARK    2  A    between atoms: C_10  and  O_11 
REMARK    3  A    between atoms: C_13  and  O_14 
REMARK    4  A    between atoms: O_14  and  C_15 
REMARK    5  A    between atoms: C_15  and  C_16 
REMARK       I    between atoms: C_16  and  N_17 
REMARK    6  A    between atoms: C_21  and  C_22 
REMARK       I    between atoms: C_22  and  N_23 
REMARK    7  A    between atoms: N_23  and  C_24 
REMARK    8  A    between atoms: C_24  and  C_25 
ROOT
HETATM    1  C   UNL     1      26.832  45.840  52.018  1.00  0.00     0.069 C 
HETATM    2  C   UNL     1      26.343  44.469  51.651  1.00  0.00     0.024 C 
HETATM    3  N   UNL     1      25.028  44.406  51.247  1.00  0.00    -0.312 N 
HETATM    4  C   UNL     1      24.316  43.258  51.061  1.00  0.00     0.321 C 
HETATM    5  O   UNL     1      23.132  43.276  50.744  1.00  0.00    -0.247 OA
HETATM    6  N   UNL     1      24.981  42.096  51.272  1.00  0.00    -0.330 N 
HETATM    7  C   UNL     1      26.422  41.985  51.418  1.00  0.00     0.160 C 
HETATM    8  C   UNL     1      27.041  43.320  51.732  1.00  0.00     0.059 C 
HETATM    9  H   UNL     1      24.478  45.252  51.165  1.00  0.00     0.170 HD
HETATM   10  H   UNL     1      24.444  41.257  51.105  1.00  0.00     0.165 HD
ENDROOT
BRANCH   7  11
HETATM   11  C   UNL     1      27.003  41.339  50.166  1.00  0.00    -0.028 A 
HETATM   12  C   UNL     1      27.988  40.336  50.251  1.00  0.00     0.049 A 
HETATM   13  C   UNL     1      28.564  39.765  49.105  1.00  0.00     0.102 A 
HETATM   14  C   UNL     1      28.113  40.180  47.841  1.00  0.00     0.102 A 
HETATM   15  C   UNL     1      27.131  41.176  47.754  1.00  0.00     0.040 A 
HETATM   16  C   UNL     1      26.577  41.750  48.900  1.00  0.00     0.012 A 
BRANCH  13  17
HETATM   17  O   UNL     1      29.543  38.811  49.170  1.00  0.00    -0.353 OA
HETATM   18  C   UNL     1      29.393  37.770  50.129  1.00  0.00     0.210 C 
ENDBRANCH  13  17
BRANCH  14  19
HETATM   19  O   UNL     1      28.542  39.761  46.607  1.00  0.00    -0.339 OA
BRANCH  19  20
HETATM   20  C   UNL     1      27.707  38.874  45.867  1.00  0.00     0.278 C 
BRANCH  20  21
HETATM   21  C   UNL     1      27.673  37.505  46.545  1.00  0.00     0.239 C 
HETATM   22  N   UNL     1      28.877  36.869  46.658  1.00  0.00    -0.368 N 
HETATM   23  H   UNL     1      29.670  37.202  46.122  1.00  0.00     0.159 HD
HETATM   24  H   UNL     1      28.889  35.935  47.041  1.00  0.00     0.159 HD
HETATM   25  O   UNL     1      26.654  37.009  47.015  1.00  0.00    -0.271 OA
ENDBRANCH  20  21
ENDBRANCH  19  20
ENDBRANCH  14  19
ENDBRANCH   7  11
BRANCH   8  26
HETATM   26  C   UNL     1      28.438  43.247  52.228  1.00  0.00     0.252 C 
HETATM   27  N   UNL     1      28.572  42.839  53.530  1.00  0.00    -0.353 N 
HETATM   28  H   UNL     1      27.757  42.820  54.129  1.00  0.00     0.163 HD
HETATM   29  O   UNL     1      29.371  43.595  51.515  1.00  0.00    -0.268 OA
BRANCH  27  30
HETATM   30  C   UNL     1      29.876  42.800  54.155  1.00  0.00     0.161 C 
BRANCH  30  31
HETATM   31  C   UNL     1      30.051  43.803  55.270  1.00  0.00    -0.041 A 
HETATM   32  C   UNL     1      29.259  44.957  55.381  1.00  0.00     0.009 A 
HETATM   33  C   UNL     1      29.416  45.830  56.461  1.00  0.00     0.001 A 
HETATM   34  C   UNL     1      30.348  45.550  57.456  1.00  0.00     0.000 A 
HETATM   35  C   UNL     1      31.125  44.398  57.374  1.00  0.00     0.001 A 
HETATM   36  C   UNL     1      30.975  43.530  56.290  1.00  0.00     0.009 A 
ENDBRANCH  30  31
ENDBRANCH  27  30
ENDBRANCH   8  26
TORSDOF 8
ENDMDL
MODEL 7
REMARK VINA RESULT:      -7.6      2.787      6.111
REMARK  8 active torsions:
REMARK  status: ('A' for Active; 'I' for Inactive)
REMARK    1  A    between atoms: C_7  and  C_8 
REMARK    2  A    between atoms: C_10  and  O_11 
REMARK    3  A    between atoms: C_13  and  O_14 
REMARK    4  A    between atoms: O_14  and  C_15 
REMARK    5  A    between atoms: C_15  and  C_16 
REMARK       I    between atoms: C_16  and  N_17 
REMARK    6  A    between atoms: C_21  and  C_22 
REMARK       I    between atoms: C_22  and  N_23 
REMARK    7  A    between atoms: N_23  and  C_24 
REMARK    8  A    between atoms: C_24  and  C_25 
ROOT
HETATM    1  C   UNL     1      23.182  44.626  49.601  1.00  0.00     0.069 C 
HETATM    2  C   UNL     1      24.634  44.927  49.831  1.00  0.00     0.024 C 
HETATM    3  N   UNL     1      24.951  46.266  49.905  1.00  0.00    -0.312 N 
HETATM    4  C   UNL     1      26.214  46.777  49.907  1.00  0.00     0.321 C 
HETATM    5  O   UNL     1      26.423  47.984  49.927  1.00  0.00    -0.247 OA
HETATM    6  N   UNL     1      27.228  45.878  49.857  1.00  0.00    -0.330 N 
HETATM    7  C   UNL     1      27.073  44.449  50.064  1.00  0.00     0.160 C 
HETATM    8  C   UNL     1      25.636  44.030  49.916  1.00  0.00     0.059 C 
HETATM    9  H   UNL     1      24.221  46.965  49.855  1.00  0.00     0.170 HD
HETATM   10  H   UNL     1      28.156  46.275  49.885  1.00  0.00     0.165 HD
ENDROOT
BRANCH   7  11
HETATM   11  C   UNL     1      27.667  44.072  51.416  1.00  0.00    -0.028 A 
HETATM   12  C   UNL     1      27.306  44.759  52.590  1.00  0.00     0.049 A 
HETATM   13  C   UNL     1      27.879  44.451  53.835  1.00  0.00     0.102 A 
HETATM   14  C   UNL     1      28.807  43.400  53.912  1.00  0.00     0.102 A 
HETATM   15  C   UNL     1      29.166  42.712  52.744  1.00  0.00     0.040 A 
HETATM   16  C   UNL     1      28.603  43.038  51.509  1.00  0.00     0.012 A 
BRANCH  13  17
HETATM   17  O   UNL     1      27.562  45.130  54.980  1.00  0.00    -0.353 OA
HETATM   18  C   UNL     1      27.422  46.544  54.896  1.00  0.00     0.210 C 
ENDBRANCH  13  17
BRANCH  14  19
HETATM   19  O   UNL     1      29.484  42.945  55.015  1.00  0.00    -0.339 OA
BRANCH  19  20
HETATM   20  C   UNL     1      30.834  43.362  55.198  1.00  0.00     0.278 C 
BRANCH  20  21
HETATM   21  C   UNL     1      30.994  44.018  56.569  1.00  0.00     0.239 C 
HETATM   22  N   UNL     1      30.222  45.123  56.792  1.00  0.00    -0.368 N 
HETATM   23  H   UNL     1      29.763  45.577  56.011  1.00  0.00     0.159 HD
HETATM   24  H   UNL     1      30.344  45.624  57.660  1.00  0.00     0.159 HD
HETATM   25  O   UNL     1      31.720  43.571  57.452  1.00  0.00    -0.271 OA
ENDBRANCH  20  21
ENDBRANCH  19  20
ENDBRANCH  14  19
ENDBRANCH   7  11
BRANCH   8  26
HETATM   26  C   UNL     1      25.435  42.566  49.772  1.00  0.00     0.252 C 
HETATM   27  N   UNL     1      25.938  42.021  48.619  1.00  0.00    -0.353 N 
HETATM   28  H   UNL     1      26.210  42.632  47.860  1.00  0.00     0.163 HD
HETATM   29  O   UNL     1      24.805  41.939  50.615  1.00  0.00    -0.268 OA
BRANCH  27  30
HETATM   30  C   UNL     1      25.739  40.619  48.325  1.00  0.00     0.161 C 
BRANCH  30  31
HETATM   31  C   UNL     1      26.957  39.762  48.576  1.00  0.00    -0.041 A 
HETATM   32  C   UNL     1      27.537  38.961  47.580  1.00  0.00     0.009 A 
HETATM   33  C   UNL     1      28.698  38.227  47.838  1.00  0.00     0.001 A 
HETATM   34  C   UNL     1      29.310  38.304  49.086  1.00  0.00     0.000 A 
HETATM   35  C   UNL     1      28.762  39.112  50.078  1.00  0.00     0.001 A 
HETATM   36  C   UNL     1      27.596  39.838  49.824  1.00  0.00     0.009 A 
ENDBRANCH  30  31
ENDBRANCH  27  30
ENDBRANCH   8  26
TORSDOF 8
ENDMDL
MODEL 8
REMARK VINA RESULT:      -7.5      2.690      5.741
REMARK  8 active torsions:
REMARK  status: ('A' for Active; 'I' for Inactive)
REMARK    1  A    between atoms: C_7  and  C_8 
REMARK    2  A    between atoms: C_10  and  O_11 
REMARK    3  A    between atoms: C_13  and  O_14 
REMARK    4  A    between atoms: O_14  and  C_15 
REMARK    5  A    between atoms: C_15  and  C_16 
REMARK       I    between atoms: C_16  and  N_17 
REMARK    6  A    between atoms: C_21  and  C_22 
REMARK       I    between atoms: C_22  and  N_23 
REMARK    7  A    between atoms: N_23  and  C_24 
REMARK    8  A    between atoms: C_24  and  C_25 
ROOT
HETATM    1  C   UNL     1      22.162  44.755  49.344  1.00  0.00     0.069 C 
HETATM    2  C   UNL     1      23.539  45.307  49.572  1.00  0.00     0.024 C 
HETATM    3  N   UNL     1      23.618  46.682  49.618  1.00  0.00    -0.312 N 
HETATM    4  C   UNL     1      24.774  47.404  49.613  1.00  0.00     0.321 C 
HETATM    5  O   UNL     1      24.770  48.630  49.609  1.00  0.00    -0.247 OA
HETATM    6  N   UNL     1      25.928  46.694  49.585  1.00  0.00    -0.330 N 
HETATM    7  C   UNL     1      26.022  45.265  49.822  1.00  0.00     0.160 C 
HETATM    8  C   UNL     1      24.680  44.600  49.679  1.00  0.00     0.059 C 
HETATM    9  H   UNL     1      22.778  47.243  49.551  1.00  0.00     0.170 HD
HETATM   10  H   UNL     1      26.773  47.247  49.608  1.00  0.00     0.165 HD
ENDROOT
BRANCH   7  11
HETATM   11  C   UNL     1      26.663  45.024  51.184  1.00  0.00    -0.028 A 
HETATM   12  C   UNL     1      27.679  44.064  51.354  1.00  0.00     0.049 A 
HETATM   13  C   UNL     1      28.247  43.801  52.611  1.00  0.00     0.102 A 
HETATM   14  C   UNL     1      27.814  44.547  53.719  1.00  0.00     0.102 A 
HETATM   15  C   UNL     1      26.804  45.505  53.552  1.00  0.00     0.040 A 
HETATM   16  C   UNL     1      26.235  45.747  52.300  1.00  0.00     0.012 A 
BRANCH  13  17
HETATM   17  O   UNL     1      29.214  42.851  52.799  1.00  0.00    -0.353 OA
HETATM   18  C   UNL     1      28.790  41.520  53.073  1.00  0.00     0.210 C 
ENDBRANCH  13  17
BRANCH  14  19
HETATM   19  O   UNL     1      28.226  44.446  55.024  1.00  0.00    -0.339 OA
BRANCH  19  20
HETATM   20  C   UNL     1      29.298  45.278  55.459  1.00  0.00     0.278 C 
BRANCH  20  21
HETATM   21  C   UNL     1      30.404  44.422  56.074  1.00  0.00     0.239 C 
HETATM   22  N   UNL     1      30.904  43.434  55.273  1.00  0.00    -0.368 N 
HETATM   23  H   UNL     1      30.403  43.171  54.433  1.00  0.00     0.159 HD
HETATM   24  H   UNL     1      31.590  42.804  55.663  1.00  0.00     0.159 HD
HETATM   25  O   UNL     1      30.871  44.620  57.192  1.00  0.00    -0.271 OA
ENDBRANCH  20  21
ENDBRANCH  19  20
ENDBRANCH  14  19
ENDBRANCH   7  11
BRANCH   8  26
HETATM   26  C   UNL     1      24.737  43.121  49.566  1.00  0.00     0.252 C 
HETATM   27  N   UNL     1      25.178  42.647  48.357  1.00  0.00    -0.353 N 
HETATM   28  H   UNL     1      25.231  43.277  47.568  1.00  0.00     0.163 HD
HETATM   29  O   UNL     1      24.348  42.411  50.486  1.00  0.00    -0.268 OA
BRANCH  27  30
HETATM   30  C   UNL     1      25.206  41.224  48.095  1.00  0.00     0.161 C 
BRANCH  30  31
HETATM   31  C   UNL     1      26.552  40.584  48.338  1.00  0.00    -0.041 A 
HETATM   32  C   UNL     1      27.171  40.577  49.597  1.00  0.00     0.009 A 
HETATM   33  C   UNL     1      28.391  39.923  49.790  1.00  0.00     0.001 A 
HETATM   34  C   UNL     1      28.996  39.246  48.735  1.00  0.00     0.000 A 
HETATM   35  C   UNL     1      28.384  39.222  47.485  1.00  0.00     0.001 A 
HETATM   36  C   UNL     1      27.169  39.884  47.288  1.00  0.00     0.009 A 
ENDBRANCH  30  31
ENDBRANCH  27  30
ENDBRANCH   8  26
TORSDOF 8
ENDMDL
MODEL 9
REMARK VINA RESULT:      -7.5      8.485     12.857
REMARK  8 active torsions:
REMARK  status: ('A' for Active; 'I' for Inactive)
REMARK    1  A    between atoms: C_7  and  C_8 
REMARK    2  A    between atoms: C_10  and  O_11 
REMARK    3  A    between atoms: C_13  and  O_14 
REMARK    4  A    between atoms: O_14  and  C_15 
REMARK    5  A    between atoms: C_15  and  C_16 
REMARK       I    between atoms: C_16  and  N_17 
REMARK    6  A    between atoms: C_21  and  C_22 
REMARK       I    between atoms: C_22  and  N_23 
REMARK    7  A    between atoms: N_23  and  C_24 
REMARK    8  A    between atoms: C_24  and  C_25 
ROOT
HETATM    1  C   UNL     1      15.702  49.789  46.349  1.00  0.00     0.069 C 
HETATM    2  C   UNL     1      16.526  49.192  47.452  1.00  0.00     0.024 C 
HETATM    3  N   UNL     1      16.597  47.816  47.451  1.00  0.00    -0.312 N 
HETATM    4  C   UNL     1      17.113  47.054  48.456  1.00  0.00     0.321 C 
HETATM    5  O   UNL     1      17.102  45.829  48.409  1.00  0.00    -0.247 OA
HETATM    6  N   UNL     1      17.613  47.723  49.523  1.00  0.00    -0.330 N 
HETATM    7  C   UNL     1      17.874  49.151  49.553  1.00  0.00     0.160 C 
HETATM    8  C   UNL     1      17.141  49.860  48.447  1.00  0.00     0.059 C 
HETATM    9  H   UNL     1      16.155  47.283  46.712  1.00  0.00     0.170 HD
HETATM   10  H   UNL     1      18.014  47.141  50.245  1.00  0.00     0.165 HD
ENDROOT
BRANCH   7  11
HETATM   11  C   UNL     1      19.379  49.387  49.517  1.00  0.00    -0.028 A 
HETATM   12  C   UNL     1      20.271  48.364  49.141  1.00  0.00     0.049 A 
HETATM   13  C   UNL     1      21.662  48.555  49.146  1.00  0.00     0.102 A 
HETATM   14  C   UNL     1      22.171  49.815  49.499  1.00  0.00     0.102 A 
HETATM   15  C   UNL     1      21.285  50.836  49.870  1.00  0.00     0.040 A 
HETATM   16  C   UNL     1      19.905  50.631  49.877  1.00  0.00     0.012 A 
BRANCH  13  17
HETATM   17  O   UNL     1      22.543  47.562  48.814  1.00  0.00    -0.353 OA
HETATM   18  C   UNL     1      22.235  46.753  47.684  1.00  0.00     0.210 C 
ENDBRANCH  13  17
BRANCH  14  19
HETATM   19  O   UNL     1      23.483  50.209  49.576  1.00  0.00    -0.339 OA
BRANCH  19  20
HETATM   20  C   UNL     1      24.183  50.466  48.362  1.00  0.00     0.278 C 
BRANCH  20  21
HETATM   21  C   UNL     1      25.524  49.732  48.369  1.00  0.00     0.239 C 
HETATM   22  N   UNL     1      25.581  48.610  49.146  1.00  0.00    -0.368 N 
HETATM   23  H   UNL     1      24.851  48.436  49.827  1.00  0.00     0.159 HD
HETATM   24  H   UNL     1      26.466  48.132  49.229  1.00  0.00     0.159 HD
HETATM   25  O   UNL     1      26.485  50.075  47.688  1.00  0.00    -0.271 OA
ENDBRANCH  20  21
ENDBRANCH  19  20
ENDBRANCH  14  19
ENDBRANCH   7  11
BRANCH   8  26
HETATM   26  C   UNL     1      17.073  51.335  48.602  1.00  0.00     0.252 C 
HETATM   27  N   UNL     1      16.440  51.770  49.738  1.00  0.00    -0.353 N 
HETATM   28  H   UNL     1      15.886  51.117  50.277  1.00  0.00     0.163 HD
HETATM   29  O   UNL     1      17.505  52.075  47.727  1.00  0.00    -0.268 OA
BRANCH  27  30
HETATM   30  C   UNL     1      16.240  53.184  49.968  1.00  0.00     0.161 C 
BRANCH  30  31
HETATM   31  C   UNL     1      14.862  53.676  49.598  1.00  0.00    -0.041 A 
HETATM   32  C   UNL     1      14.520  54.058  48.292  1.00  0.00     0.009 A 
HETATM   33  C   UNL     1      13.216  54.454  47.980  1.00  0.00     0.001 A 
HETATM   34  C   UNL     1      12.231  54.449  48.963  1.00  0.00     0.000 A 
HETATM   35  C   UNL     1      12.546  54.050  50.259  1.00  0.00     0.001 A 
HETATM   36  C   UNL     1      13.851  53.664  50.573  1.00  0.00     0.009 A 
ENDBRANCH  30  31
ENDBRANCH  27  30
ENDBRANCH   8  26
TORSDOF 8
ENDMDL
MODEL 10
REMARK VINA RESULT:      -7.4     17.624     20.386
REMARK  8 active torsions:
REMARK  status: ('A' for Active; 'I' for Inactive)
REMARK    1  A    between atoms: C_7  and  C_8 
REMARK    2  A    between atoms: C_10  and  O_11 
REMARK    3  A    between atoms: C_13  and  O_14 
REMARK    4  A    between atoms: O_14  and  C_15 
REMARK    5  A    between atoms: C_15  and  C_16 
REMARK       I    between atoms: C_16  and  N_17 
REMARK    6  A    between atoms: C_21  and  C_22 
REMARK       I    between atoms: C_22  and  N_23 
REMARK    7  A    between atoms: N_23  and  C_24 
REMARK    8  A    between atoms: C_24  and  C_25 
ROOT
HETATM    1  C   UNL     1      35.997  48.629  68.194  1.00  0.00     0.069 C 
HETATM    2  C   UNL     1      37.050  49.021  67.199  1.00  0.00     0.024 C 
HETATM    3  N   UNL     1      37.402  50.353  67.212  1.00  0.00    -0.312 N 
HETATM    4  C   UNL     1      38.178  50.971  66.277  1.00  0.00     0.321 C 
HETATM    5  O   UNL     1      38.414  52.173  66.326  1.00  0.00    -0.247 OA
HETATM    6  N   UNL     1      38.652  50.190  65.276  1.00  0.00    -0.330 N 
HETATM    7  C   UNL     1      38.614  48.739  65.274  1.00  0.00     0.160 C 
HETATM    8  C   UNL     1      37.627  48.219  66.283  1.00  0.00     0.059 C 
HETATM    9  H   UNL     1      36.995  50.981  67.895  1.00  0.00     0.170 HD
HETATM   10  H   UNL     1      39.246  50.661  64.609  1.00  0.00     0.165 HD
ENDROOT
BRANCH   7  11
HETATM   11  C   UNL     1      40.024  48.201  65.489  1.00  0.00    -0.028 A 
HETATM   12  C   UNL     1      40.645  47.375  64.533  1.00  0.00     0.049 A 
HETATM   13  C   UNL     1      41.926  46.837  64.739  1.00  0.00     0.102 A 
HETATM   14  C   UNL     1      42.618  47.166  65.915  1.00  0.00     0.102 A 
HETATM   15  C   UNL     1      42.002  47.990  66.868  1.00  0.00     0.040 A 
HETATM   16  C   UNL     1      40.722  48.507  66.660  1.00  0.00     0.012 A 
BRANCH  13  17
HETATM   17  O   UNL     1      42.531  46.008  63.833  1.00  0.00    -0.353 OA
HETATM   18  C   UNL     1      42.265  44.613  63.930  1.00  0.00     0.210 C 
ENDBRANCH  13  17
BRANCH  14  19
HETATM   19  O   UNL     1      43.862  46.747  66.313  1.00  0.00    -0.339 OA
BRANCH  19  20
HETATM   20  C   UNL     1      44.992  47.172  65.556  1.00  0.00     0.278 C 
BRANCH  20  21
HETATM   21  C   UNL     1      45.751  45.955  65.028  1.00  0.00     0.239 C 
HETATM   22  N   UNL     1      46.053  45.978  63.696  1.00  0.00    -0.368 N 
HETATM   23  H   UNL     1      45.598  46.651  63.091  1.00  0.00     0.159 HD
HETATM   24  H   UNL     1      46.497  45.165  63.293  1.00  0.00     0.159 HD
HETATM   25  O   UNL     1      46.125  45.029  65.742  1.00  0.00    -0.271 OA
ENDBRANCH  20  21
ENDBRANCH  19  20
ENDBRANCH  14  19
ENDBRANCH   7  11
BRANCH   8  26
HETATM   26  C   UNL     1      37.275  46.786  66.116  1.00  0.00     0.252 C 
HETATM   27  N   UNL     1      36.526  46.498  65.005  1.00  0.00    -0.353 N 
HETATM   28  H   UNL     1      36.084  47.252  64.496  1.00  0.00     0.163 HD
HETATM   29  O   UNL     1      37.595  45.963  66.966  1.00  0.00    -0.268 OA
BRANCH  27  30
HETATM   30  C   UNL     1      36.054  45.151  64.770  1.00  0.00     0.161 C 
BRANCH  30  31
HETATM   31  C   UNL     1      37.036  44.280  64.023  1.00  0.00    -0.041 A 
HETATM   32  C   UNL     1      38.042  44.808  63.199  1.00  0.00     0.009 A 
HETATM   33  C   UNL     1      38.966  43.968  62.571  1.00  0.00     0.001 A 
HETATM   34  C   UNL     1      38.913  42.593  62.776  1.00  0.00     0.000 A 
HETATM   35  C   UNL     1      37.936  42.054  63.609  1.00  0.00     0.001 A 
HETATM   36  C   UNL     1      37.006  42.892  64.230  1.00  0.00     0.009 A 
ENDBRANCH  30  31
ENDBRANCH  27  30
ENDBRANCH   8  26
TORSDOF 8
ENDMDL
