MODEL 1
REMARK VINA RESULT:     -10.4      0.000      0.000
REMARK  8 active torsions:
REMARK  status: ('A' for Active; 'I' for Inactive)
REMARK    1  A    between atoms: C_4  and  C_5 
REMARK    2  A    between atoms: C_7  and  C_8 
REMARK    3  A    between atoms: C_9  and  C_10 
REMARK       I    between atoms: C_10  and  N_11 
REMARK    4  A    between atoms: N_11  and  C_12 
REMARK    5  A    between atoms: C_12  and  N_13 
REMARK    6  A    between atoms: N_13  and  C_14 
REMARK    7  A    between atoms: C_17  and  N_18 
REMARK       I    between atoms: N_21  and  C_22 
REMARK    8  A    between atoms: C_22  and  C_23 
ROOT
HETATM    1  N   UNL     1      22.336  49.417  49.888  1.00  0.00    -0.333 N 
HETATM    2  H   UNL     1      22.414  49.001  50.809  1.00  0.00     0.168 HD
ENDROOT
BRANCH   1   3
HETATM    3  C   UNL     1      23.347  49.071  49.023  1.00  0.00     0.179 C 
HETATM    4  S   UNL     1      24.290  50.116  48.116  1.00  0.00    -0.040 SA
BRANCH   3   5
HETATM    5  N   UNL     1      23.513  47.712  48.803  1.00  0.00    -0.300 N 
HETATM    6  C   UNL     1      23.937  46.636  49.563  1.00  0.00     0.247 C 
HETATM    7  O   UNL     1      23.684  45.487  49.207  1.00  0.00    -0.268 OA
HETATM    8  H   UNL     1      23.252  47.427  47.867  1.00  0.00     0.171 HD
BRANCH   6   9
HETATM    9  C   UNL     1      24.769  46.923  50.752  1.00  0.00     0.077 C 
HETATM   10  C   UNL     1      25.013  45.954  51.648  1.00  0.00     0.042 C 
BRANCH  10  11
HETATM   11  C   UNL     1      25.875  46.210  52.748  1.00  0.00     0.076 A 
HETATM   12  O   UNL     1      26.890  45.363  53.130  1.00  0.00    -0.310 OA
HETATM   13  C   UNL     1      27.524  45.884  54.219  1.00  0.00     0.086 A 
HETATM   14  C   UNL     1      26.920  47.072  54.566  1.00  0.00     0.041 A 
HETATM   15  C   UNL     1      25.883  47.286  53.623  1.00  0.00     0.040 A 
BRANCH  13  16
HETATM   16  C   UNL     1      28.642  45.106  54.744  1.00  0.00    -0.002 A 
HETATM   17  C   UNL     1      29.459  45.623  55.761  1.00  0.00     0.014 A 
HETATM   18  C   UNL     1      30.544  44.890  56.253  1.00  0.00     0.001 A 
HETATM   19  C   UNL     1      30.831  43.631  55.730  1.00  0.00     0.000 A 
HETATM   20  C   UNL     1      30.031  43.103  54.721  1.00  0.00     0.001 A 
HETATM   21  C   UNL     1      28.942  43.833  54.237  1.00  0.00     0.014 A 
ENDBRANCH  13  16
ENDBRANCH  10  11
ENDBRANCH   6   9
ENDBRANCH   3   5
ENDBRANCH   1   3
BRANCH   1  22
HETATM   22  C   UNL     1      21.082  49.987  49.583  1.00  0.00     0.034 A 
HETATM   23  C   UNL     1      19.929  49.271  49.910  1.00  0.00     0.031 A 
HETATM   24  C   UNL     1      18.660  49.811  49.657  1.00  0.00     0.026 A 
HETATM   25  C   UNL     1      18.513  51.093  49.116  1.00  0.00     0.010 A 
HETATM   26  C   UNL     1      19.682  51.813  48.833  1.00  0.00     0.026 A 
HETATM   27  C   UNL     1      20.952  51.269  49.055  1.00  0.00     0.031 A 
BRANCH  25  28
HETATM   28  N   UNL     1      17.276  51.689  48.839  1.00  0.00    -0.280 NA
HETATM   29  C   UNL     1      17.070  51.960  47.398  1.00  0.00     0.115 C 
HETATM   30  C   UNL     1      15.592  52.299  47.125  1.00  0.00     0.141 C 
HETATM   31  N   UNL     1      15.078  53.359  48.008  1.00  0.00    -0.344 N 
HETATM   32  C   UNL     1      13.911  54.079  47.709  1.00  0.00     0.277 C 
HETATM   33  C   UNL     1      15.366  53.137  49.432  1.00  0.00     0.141 C 
HETATM   34  O   UNL     1      13.159  54.452  48.613  1.00  0.00    -0.265 OA
HETATM   35  C   UNL     1      16.849  52.817  49.690  1.00  0.00     0.115 C 
BRANCH  32  36
HETATM   36  C   UNL     1      13.614  54.398  46.322  1.00  0.00     0.142 A 
HETATM   37  O   UNL     1      12.774  53.607  45.581  1.00  0.00    -0.317 OA
HETATM   38  C   UNL     1      12.746  54.114  44.322  1.00  0.00     0.143 A 
HETATM   39  C   UNL     1      13.567  55.211  44.223  1.00  0.00     0.027 A 
HETATM   40  C   UNL     1      14.140  55.385  45.504  1.00  0.00     0.045 A 
ENDBRANCH  32  36
ENDBRANCH  25  28
ENDBRANCH   1  22
TORSDOF 8
ENDMDL
MODEL 2
REMARK VINA RESULT:     -10.3      2.513      3.811
REMARK  8 active torsions:
REMARK  status: ('A' for Active; 'I' for Inactive)
REMARK    1  A    between atoms: C_4  and  C_5 
REMARK    2  A    between atoms: C_7  and  C_8 
REMARK    3  A    between atoms: C_9  and  C_10 
REMARK       I    between atoms: C_10  and  N_11 
REMARK    4  A    between atoms: N_11  and  C_12 
REMARK    5  A    between atoms: C_12  and  N_13 
REMARK    6  A    between atoms: N_13  and  C_14 
REMARK    7  A    between atoms: C_17  and  N_18 
REMARK       I    between atoms: N_21  and  C_22 
REMARK    8  A    between atoms: C_22  and  C_23 
ROOT
HETATM    1  N   UNL     1      25.178  48.265  49.393  1.00  0.00    -0.333 N 
HETATM    2  H   UNL     1      25.999  48.817  49.174  1.00  0.00     0.168 HD
ENDROOT
BRANCH   1   3
HETATM    3  C   UNL     1      25.431  47.156  50.165  1.00  0.00     0.179 C 
HETATM    4  S   UNL     1      25.868  47.139  51.781  1.00  0.00    -0.040 SA
BRANCH   3   5
HETATM    5  N   UNL     1      25.434  45.943  49.493  1.00  0.00    -0.300 N 
HETATM    6  C   UNL     1      25.960  44.686  49.732  1.00  0.00     0.247 C 
HETATM    7  O   UNL     1      25.540  43.710  49.115  1.00  0.00    -0.268 OA
HETATM    8  H   UNL     1      24.920  45.971  48.620  1.00  0.00     0.171 HD
BRANCH   6   9
HETATM    9  C   UNL     1      27.090  44.586  50.682  1.00  0.00     0.077 C 
HETATM   10  C   UNL     1      27.124  43.590  51.580  1.00  0.00     0.042 C 
BRANCH  10  11
HETATM   11  C   UNL     1      28.247  43.450  52.439  1.00  0.00     0.076 A 
HETATM   12  O   UNL     1      28.370  44.109  53.641  1.00  0.00    -0.310 OA
HETATM   13  C   UNL     1      29.558  43.771  54.218  1.00  0.00     0.086 A 
HETATM   14  C   UNL     1      30.228  42.896  53.391  1.00  0.00     0.041 A 
HETATM   15  C   UNL     1      29.388  42.681  52.269  1.00  0.00     0.040 A 
BRANCH  13  16
HETATM   16  C   UNL     1      29.838  44.380  55.515  1.00  0.00    -0.002 A 
HETATM   17  C   UNL     1      29.074  45.462  55.978  1.00  0.00     0.014 A 
HETATM   18  C   UNL     1      29.353  46.062  57.211  1.00  0.00     0.001 A 
HETATM   19  C   UNL     1      30.403  45.592  57.996  1.00  0.00     0.000 A 
HETATM   20  C   UNL     1      31.171  44.519  57.552  1.00  0.00     0.001 A 
HETATM   21  C   UNL     1      30.886  43.915  56.325  1.00  0.00     0.014 A 
ENDBRANCH  13  16
ENDBRANCH  10  11
ENDBRANCH   6   9
ENDBRANCH   3   5
ENDBRANCH   1   3
BRANCH   1  22
HETATM   22  C   UNL     1      23.939  48.893  49.145  1.00  0.00     0.034 A 
HETATM   23  C   UNL     1      23.935  50.253  48.830  1.00  0.00     0.031 A 
HETATM   24  C   UNL     1      22.730  50.912  48.542  1.00  0.00     0.026 A 
HETATM   25  C   UNL     1      21.514  50.222  48.517  1.00  0.00     0.010 A 
HETATM   26  C   UNL     1      21.545  48.848  48.794  1.00  0.00     0.026 A 
HETATM   27  C   UNL     1      22.738  48.189  49.111  1.00  0.00     0.031 A 
BRANCH  25  28
HETATM   28  N   UNL     1      20.279  50.821  48.238  1.00  0.00    -0.280 NA
HETATM   29  C   UNL     1      19.694  51.520  49.404  1.00  0.00     0.115 C 
HETATM   30  C   UNL     1      18.527  52.421  48.957  1.00  0.00     0.141 C 
HETATM   31  N   UNL     1      17.537  51.705  48.135  1.00  0.00    -0.344 N 
HETATM   32  C   UNL     1      16.240  52.199  47.930  1.00  0.00     0.277 C 
HETATM   33  C   UNL     1      18.127  50.934  47.032  1.00  0.00     0.141 C 
HETATM   34  O   UNL     1      15.667  52.022  46.853  1.00  0.00    -0.265 OA
HETATM   35  C   UNL     1      19.280  50.026  47.498  1.00  0.00     0.115 C 
BRANCH  32  36
HETATM   36  C   UNL     1      15.573  52.902  49.015  1.00  0.00     0.142 A 
HETATM   37  O   UNL     1      15.667  54.265  49.135  1.00  0.00    -0.317 OA
HETATM   38  C   UNL     1      15.005  54.619  50.266  1.00  0.00     0.143 A 
HETATM   39  C   UNL     1      14.496  53.509  50.896  1.00  0.00     0.027 A 
HETATM   40  C   UNL     1      14.875  52.402  50.102  1.00  0.00     0.045 A 
ENDBRANCH  32  36
ENDBRANCH  25  28
ENDBRANCH   1  22
TORSDOF 8
ENDMDL
MODEL 3
REMARK VINA RESULT:     -10.1      1.514      1.931
REMARK  8 active torsions:
REMARK  status: ('A' for Active; 'I' for Inactive)
REMARK    1  A    between atoms: C_4  and  C_5 
REMARK    2  A    between atoms: C_7  and  C_8 
REMARK    3  A    between atoms: C_9  and  C_10 
REMARK       I    between atoms: C_10  and  N_11 
REMARK    4  A    between atoms: N_11  and  C_12 
REMARK    5  A    between atoms: C_12  and  N_13 
REMARK    6  A    between atoms: N_13  and  C_14 
REMARK    7  A    between atoms: C_17  and  N_18 
REMARK       I    between atoms: N_21  and  C_22 
REMARK    8  A    between atoms: C_22  and  C_23 
ROOT
HETATM    1  N   UNL     1      22.121  49.604  49.811  1.00  0.00    -0.333 N 
HETATM    2  H   UNL     1      22.417  49.564  50.779  1.00  0.00     0.168 HD
ENDROOT
BRANCH   1   3
HETATM    3  C   UNL     1      22.867  48.826  48.959  1.00  0.00     0.179 C 
HETATM    4  S   UNL     1      22.421  47.354  48.296  1.00  0.00    -0.040 SA
BRANCH   3   5
HETATM    5  N   UNL     1      24.163  49.261  48.726  1.00  0.00    -0.300 N 
HETATM    6  C   UNL     1      25.429  48.798  49.039  1.00  0.00     0.247 C 
HETATM    7  O   UNL     1      26.412  49.219  48.433  1.00  0.00    -0.268 OA
HETATM    8  H   UNL     1      24.204  50.119  48.189  1.00  0.00     0.171 HD
BRANCH   6   9
HETATM    9  C   UNL     1      25.552  47.856  50.175  1.00  0.00     0.077 C 
HETATM   10  C   UNL     1      25.690  46.543  49.943  1.00  0.00     0.042 C 
BRANCH  10  11
HETATM   11  C   UNL     1      25.886  45.650  51.031  1.00  0.00     0.076 A 
HETATM   12  O   UNL     1      27.124  45.339  51.545  1.00  0.00    -0.310 OA
HETATM   13  C   UNL     1      26.975  44.453  52.571  1.00  0.00     0.086 A 
HETATM   14  C   UNL     1      25.636  44.168  52.729  1.00  0.00     0.041 A 
HETATM   15  C   UNL     1      24.944  44.940  51.761  1.00  0.00     0.040 A 
BRANCH  13  16
HETATM   16  C   UNL     1      28.203  44.029  53.237  1.00  0.00    -0.002 A 
HETATM   17  C   UNL     1      29.079  43.126  52.615  1.00  0.00     0.014 A 
HETATM   18  C   UNL     1      30.246  42.700  53.259  1.00  0.00     0.001 A 
HETATM   19  C   UNL     1      30.551  43.168  54.535  1.00  0.00     0.000 A 
HETATM   20  C   UNL     1      29.693  44.064  55.166  1.00  0.00     0.001 A 
HETATM   21  C   UNL     1      28.532  44.496  54.519  1.00  0.00     0.014 A 
ENDBRANCH  13  16
ENDBRANCH  10  11
ENDBRANCH   6   9
ENDBRANCH   3   5
ENDBRANCH   1   3
BRANCH   1  22
HETATM   22  C   UNL     1      20.850  50.174  49.587  1.00  0.00     0.034 A 
HETATM   23  C   UNL     1      19.746  49.610  50.228  1.00  0.00     0.031 A 
HETATM   24  C   UNL     1      18.467  50.162  50.063  1.00  0.00     0.026 A 
HETATM   25  C   UNL     1      18.270  51.314  49.293  1.00  0.00     0.010 A 
HETATM   26  C   UNL     1      19.397  51.890  48.691  1.00  0.00     0.026 A 
HETATM   27  C   UNL     1      20.671  51.327  48.828  1.00  0.00     0.031 A 
BRANCH  25  28
HETATM   28  N   UNL     1      17.022  51.914  49.088  1.00  0.00    -0.280 NA
HETATM   29  C   UNL     1      16.764  52.253  47.669  1.00  0.00     0.115 C 
HETATM   30  C   UNL     1      15.276  52.594  47.464  1.00  0.00     0.141 C 
HETATM   31  N   UNL     1      14.787  53.607  48.414  1.00  0.00    -0.344 N 
HETATM   32  C   UNL     1      13.607  54.332  48.191  1.00  0.00     0.277 C 
HETATM   33  C   UNL     1      15.125  53.319  49.815  1.00  0.00     0.141 C 
HETATM   34  O   UNL     1      12.884  54.656  49.137  1.00  0.00    -0.265 OA
HETATM   35  C   UNL     1      16.618  52.997  50.007  1.00  0.00     0.115 C 
BRANCH  32  36
HETATM   36  C   UNL     1      13.261  54.716  46.831  1.00  0.00     0.142 A 
HETATM   37  O   UNL     1      13.959  55.698  46.177  1.00  0.00    -0.317 OA
HETATM   38  C   UNL     1      13.370  55.877  44.967  1.00  0.00     0.143 A 
HETATM   39  C   UNL     1      12.287  55.042  44.828  1.00  0.00     0.027 A 
HETATM   40  C   UNL     1      12.205  54.307  46.033  1.00  0.00     0.045 A 
ENDBRANCH  32  36
ENDBRANCH  25  28
ENDBRANCH   1  22
TORSDOF 8
ENDMDL
MODEL 4
REMARK VINA RESULT:      -9.9      1.999      3.034
REMARK  8 active torsions:
REMARK  status: ('A' for Active; 'I' for Inactive)
REMARK    1  A    between atoms: C_4  and  C_5 
REMARK    2  A    between atoms: C_7  and  C_8 
REMARK    3  A    between atoms: C_9  and  C_10 
REMARK       I    between atoms: C_10  and  N_11 
REMARK    4  A    between atoms: N_11  and  C_12 
REMARK    5  A    between atoms: C_12  and  N_13 
REMARK    6  A    between atoms: N_13  and  C_14 
REMARK    7  A    between atoms: C_17  and  N_18 
REMARK       I    between atoms: N_21  and  C_22 
REMARK    8  A    between atoms: C_22  and  C_23 
ROOT
HETATM    1  N   UNL     1      21.624  49.445  49.706  1.00  0.00    -0.333 N 
HETATM    2  H   UNL     1      21.770  49.158  50.667  1.00  0.00     0.168 HD
ENDROOT
BRANCH   1   3
HETATM    3  C   UNL     1      22.393  48.767  48.790  1.00  0.00     0.179 C 
HETATM    4  S   UNL     1      22.012  47.321  48.037  1.00  0.00    -0.040 SA
BRANCH   3   5
HETATM    5  N   UNL     1      23.659  49.286  48.566  1.00  0.00    -0.300 N 
HETATM    6  C   UNL     1      24.948  48.923  48.913  1.00  0.00     0.247 C 
HETATM    7  O   UNL     1      25.909  49.396  48.311  1.00  0.00    -0.268 OA
HETATM    8  H   UNL     1      23.649  50.130  48.005  1.00  0.00     0.171 HD
BRANCH   6   9
HETATM    9  C   UNL     1      25.117  48.025  50.078  1.00  0.00     0.077 C 
HETATM   10  C   UNL     1      25.198  46.699  49.894  1.00  0.00     0.042 C 
BRANCH  10  11
HETATM   11  C   UNL     1      25.437  45.845  51.004  1.00  0.00     0.076 A 
HETATM   12  O   UNL     1      26.516  45.981  51.848  1.00  0.00    -0.310 OA
HETATM   13  C   UNL     1      26.464  45.008  52.802  1.00  0.00     0.086 A 
HETATM   14  C   UNL     1      25.357  44.220  52.582  1.00  0.00     0.041 A 
HETATM   15  C   UNL     1      24.697  44.761  51.450  1.00  0.00     0.040 A 
BRANCH  13  16
HETATM   16  C   UNL     1      27.539  45.020  53.790  1.00  0.00    -0.002 A 
HETATM   17  C   UNL     1      28.450  43.956  53.871  1.00  0.00     0.014 A 
HETATM   18  C   UNL     1      29.468  43.954  54.831  1.00  0.00     0.001 A 
HETATM   19  C   UNL     1      29.586  45.015  55.726  1.00  0.00     0.000 A 
HETATM   20  C   UNL     1      28.692  46.079  55.660  1.00  0.00     0.001 A 
HETATM   21  C   UNL     1      27.681  46.084  54.695  1.00  0.00     0.014 A 
ENDBRANCH  13  16
ENDBRANCH  10  11
ENDBRANCH   6   9
ENDBRANCH   3   5
ENDBRANCH   1   3
BRANCH   1  22
HETATM   22  C   UNL     1      20.472  50.225  49.473  1.00  0.00     0.034 A 
HETATM   23  C   UNL     1      19.304  49.912  50.171  1.00  0.00     0.031 A 
HETATM   24  C   UNL     1      18.144  50.680  49.998  1.00  0.00     0.026 A 
HETATM   25  C   UNL     1      18.136  51.802  49.162  1.00  0.00     0.010 A 
HETATM   26  C   UNL     1      19.330  52.125  48.502  1.00  0.00     0.026 A 
HETATM   27  C   UNL     1      20.483  51.346  48.647  1.00  0.00     0.031 A 
BRANCH  25  28
HETATM   28  N   UNL     1      17.012  52.610  48.946  1.00  0.00    -0.280 NA
HETATM   29  C   UNL     1      16.568  53.328  50.162  1.00  0.00     0.115 C 
HETATM   30  C   UNL     1      15.559  54.431  49.793  1.00  0.00     0.141 C 
HETATM   31  N   UNL     1      14.451  53.935  48.958  1.00  0.00    -0.344 N 
HETATM   32  C   UNL     1      13.250  54.645  48.813  1.00  0.00     0.277 C 
HETATM   33  C   UNL     1      14.889  53.142  47.802  1.00  0.00     0.141 C 
HETATM   34  O   UNL     1      12.639  54.625  47.742  1.00  0.00    -0.265 OA
HETATM   35  C   UNL     1      15.884  52.032  48.189  1.00  0.00     0.115 C 
BRANCH  32  36
HETATM   36  C   UNL     1      12.725  55.385  49.950  1.00  0.00     0.142 A 
HETATM   37  O   UNL     1      12.269  54.731  51.065  1.00  0.00    -0.317 OA
HETATM   38  C   UNL     1      11.786  55.672  51.917  1.00  0.00     0.143 A 
HETATM   39  C   UNL     1      11.903  56.926  51.369  1.00  0.00     0.027 A 
HETATM   40  C   UNL     1      12.491  56.742  50.096  1.00  0.00     0.045 A 
ENDBRANCH  32  36
ENDBRANCH  25  28
ENDBRANCH   1  22
TORSDOF 8
ENDMDL
MODEL 5
REMARK VINA RESULT:      -9.8      4.562      7.549
REMARK  8 active torsions:
REMARK  status: ('A' for Active; 'I' for Inactive)
REMARK    1  A    between atoms: C_4  and  C_5 
REMARK    2  A    between atoms: C_7  and  C_8 
REMARK    3  A    between atoms: C_9  and  C_10 
REMARK       I    between atoms: C_10  and  N_11 
REMARK    4  A    between atoms: N_11  and  C_12 
REMARK    5  A    between atoms: C_12  and  N_13 
REMARK    6  A    between atoms: N_13  and  C_14 
REMARK    7  A    between atoms: C_17  and  N_18 
REMARK       I    between atoms: N_21  and  C_22 
REMARK    8  A    between atoms: C_22  and  C_23 
ROOT
HETATM    1  N   UNL     1      25.903  40.983  48.618  1.00  0.00    -0.333 N 
HETATM    2  H   UNL     1      25.238  40.235  48.778  1.00  0.00     0.168 HD
ENDROOT
BRANCH   1   3
HETATM    3  C   UNL     1      27.053  40.590  47.976  1.00  0.00     0.179 C 
HETATM    4  S   UNL     1      27.467  40.900  46.384  1.00  0.00    -0.040 SA
BRANCH   3   5
HETATM    5  N   UNL     1      27.890  39.754  48.699  1.00  0.00    -0.300 N 
HETATM    6  C   UNL     1      28.396  39.740  49.987  1.00  0.00     0.247 C 
HETATM    7  O   UNL     1      28.865  38.707  50.459  1.00  0.00    -0.268 OA
HETATM    8  H   UNL     1      28.204  38.950  48.168  1.00  0.00     0.171 HD
BRANCH   6   9
HETATM    9  C   UNL     1      28.428  41.023  50.724  1.00  0.00     0.077 C 
HETATM   10  C   UNL     1      28.534  41.025  52.061  1.00  0.00     0.042 C 
BRANCH  10  11
HETATM   11  C   UNL     1      28.642  42.257  52.760  1.00  0.00     0.076 A 
HETATM   12  O   UNL     1      29.361  42.409  53.924  1.00  0.00    -0.310 OA
HETATM   13  C   UNL     1      29.261  43.702  54.347  1.00  0.00     0.086 A 
HETATM   14  C   UNL     1      28.464  44.403  53.469  1.00  0.00     0.041 A 
HETATM   15  C   UNL     1      28.084  43.489  52.454  1.00  0.00     0.040 A 
BRANCH  13  16
HETATM   16  C   UNL     1      29.983  44.034  55.572  1.00  0.00    -0.002 A 
HETATM   17  C   UNL     1      30.937  43.152  56.102  1.00  0.00     0.014 A 
HETATM   18  C   UNL     1      31.616  43.457  57.287  1.00  0.00     0.001 A 
HETATM   19  C   UNL     1      31.346  44.646  57.961  1.00  0.00     0.000 A 
HETATM   20  C   UNL     1      30.403  45.532  57.449  1.00  0.00     0.001 A 
HETATM   21  C   UNL     1      29.732  45.231  56.261  1.00  0.00     0.014 A 
ENDBRANCH  13  16
ENDBRANCH  10  11
ENDBRANCH   6   9
ENDBRANCH   3   5
ENDBRANCH   1   3
BRANCH   1  22
HETATM   22  C   UNL     1      25.402  42.290  48.790  1.00  0.00     0.034 A 
HETATM   23  C   UNL     1      24.232  42.646  48.115  1.00  0.00     0.031 A 
HETATM   24  C   UNL     1      23.677  43.924  48.281  1.00  0.00     0.026 A 
HETATM   25  C   UNL     1      24.247  44.855  49.155  1.00  0.00     0.010 A 
HETATM   26  C   UNL     1      25.397  44.463  49.856  1.00  0.00     0.026 A 
HETATM   27  C   UNL     1      25.974  43.201  49.673  1.00  0.00     0.031 A 
BRANCH  25  28
HETATM   28  N   UNL     1      23.743  46.144  49.365  1.00  0.00    -0.280 NA
HETATM   29  C   UNL     1      22.515  46.423  48.587  1.00  0.00     0.115 C 
HETATM   30  C   UNL     1      21.835  47.705  49.102  1.00  0.00     0.141 C 
HETATM   31  N   UNL     1      22.760  48.849  49.182  1.00  0.00    -0.344 N 
HETATM   32  C   UNL     1      22.305  50.173  49.262  1.00  0.00     0.277 C 
HETATM   33  C   UNL     1      24.021  48.545  49.873  1.00  0.00     0.141 C 
HETATM   34  O   UNL     1      22.925  51.007  49.925  1.00  0.00    -0.265 OA
HETATM   35  C   UNL     1      24.696  47.270  49.335  1.00  0.00     0.115 C 
BRANCH  32  36
HETATM   36  C   UNL     1      21.105  50.552  48.532  1.00  0.00     0.142 A 
HETATM   37  O   UNL     1      20.817  49.995  47.313  1.00  0.00    -0.317 OA
HETATM   38  C   UNL     1      19.684  50.588  46.855  1.00  0.00     0.143 A 
HETATM   39  C   UNL     1      19.239  51.535  47.745  1.00  0.00     0.027 A 
HETATM   40  C   UNL     1      20.162  51.525  48.817  1.00  0.00     0.045 A 
ENDBRANCH  32  36
ENDBRANCH  25  28
ENDBRANCH   1  22
TORSDOF 8
ENDMDL
MODEL 6
REMARK VINA RESULT:      -9.8      5.817     12.252
REMARK  8 active torsions:
REMARK  status: ('A' for Active; 'I' for Inactive)
REMARK    1  A    between atoms: C_4  and  C_5 
REMARK    2  A    between atoms: C_7  and  C_8 
REMARK    3  A    between atoms: C_9  and  C_10 
REMARK       I    between atoms: C_10  and  N_11 
REMARK    4  A    between atoms: N_11  and  C_12 
REMARK    5  A    between atoms: C_12  and  N_13 
REMARK    6  A    between atoms: N_13  and  C_14 
REMARK    7  A    between atoms: C_17  and  N_18 
REMARK       I    between atoms: N_21  and  C_22 
REMARK    8  A    between atoms: C_22  and  C_23 
ROOT
HETATM    1  N   UNL     1      22.380  42.410  47.227  1.00  0.00    -0.333 N 
HETATM    2  H   UNL     1      22.012  41.491  47.445  1.00  0.00     0.168 HD
ENDROOT
BRANCH   1   3
HETATM    3  C   UNL     1      21.740  43.043  46.188  1.00  0.00     0.179 C 
HETATM    4  S   UNL     1      22.414  43.491  44.722  1.00  0.00    -0.040 SA
BRANCH   3   5
HETATM    5  N   UNL     1      20.438  43.448  46.440  1.00  0.00    -0.300 N 
HETATM    6  C   UNL     1      19.800  44.665  46.607  1.00  0.00     0.247 C 
HETATM    7  O   UNL     1      18.578  44.743  46.505  1.00  0.00    -0.268 OA
HETATM    8  H   UNL     1      19.788  42.675  46.511  1.00  0.00     0.171 HD
BRANCH   6   9
HETATM    9  C   UNL     1      20.631  45.827  46.992  1.00  0.00     0.077 C 
HETATM   10  C   UNL     1      20.349  46.510  48.111  1.00  0.00     0.042 C 
BRANCH  10  11
HETATM   11  C   UNL     1      21.193  47.577  48.520  1.00  0.00     0.076 A 
HETATM   12  O   UNL     1      22.568  47.509  48.499  1.00  0.00    -0.310 OA
HETATM   13  C   UNL     1      23.083  48.685  48.958  1.00  0.00     0.086 A 
HETATM   14  C   UNL     1      22.048  49.528  49.296  1.00  0.00     0.041 A 
HETATM   15  C   UNL     1      20.849  48.830  49.004  1.00  0.00     0.040 A 
BRANCH  13  16
HETATM   16  C   UNL     1      24.539  48.780  48.986  1.00  0.00    -0.002 A 
HETATM   17  C   UNL     1      25.301  47.879  49.746  1.00  0.00     0.014 A 
HETATM   18  C   UNL     1      26.696  47.980  49.793  1.00  0.00     0.001 A 
HETATM   19  C   UNL     1      27.348  48.986  49.085  1.00  0.00     0.000 A 
HETATM   20  C   UNL     1      26.608  49.888  48.326  1.00  0.00     0.001 A 
HETATM   21  C   UNL     1      25.216  49.781  48.272  1.00  0.00     0.014 A 
ENDBRANCH  13  16
ENDBRANCH  10  11
ENDBRANCH   6   9
ENDBRANCH   3   5
ENDBRANCH   1   3
BRANCH   1  22
HETATM   22  C   UNL     1      23.229  42.972  48.203  1.00  0.00     0.034 A 
HETATM   23  C   UNL     1      22.686  43.879  49.114  1.00  0.00     0.031 A 
HETATM   24  C   UNL     1      23.484  44.439  50.123  1.00  0.00     0.026 A 
HETATM   25  C   UNL     1      24.825  44.072  50.273  1.00  0.00     0.010 A 
HETATM   26  C   UNL     1      25.342  43.128  49.374  1.00  0.00     0.026 A 
HETATM   27  C   UNL     1      24.560  42.588  48.347  1.00  0.00     0.031 A 
BRANCH  25  28
HETATM   28  N   UNL     1      25.674  44.593  51.257  1.00  0.00    -0.280 NA
HETATM   29  C   UNL     1      26.774  43.672  51.625  1.00  0.00     0.115 C 
HETATM   30  C   UNL     1      27.842  44.417  52.447  1.00  0.00     0.141 C 
HETATM   31  N   UNL     1      27.273  45.148  53.592  1.00  0.00    -0.344 N 
HETATM   32  C   UNL     1      28.061  45.579  54.670  1.00  0.00     0.277 C 
HETATM   33  C   UNL     1      26.120  45.991  53.244  1.00  0.00     0.141 C 
HETATM   34  O   UNL     1      27.806  46.639  55.246  1.00  0.00    -0.265 OA
HETATM   35  C   UNL     1      25.054  45.228  52.437  1.00  0.00     0.115 C 
BRANCH  32  36
HETATM   36  C   UNL     1      29.169  44.746  55.111  1.00  0.00     0.142 A 
HETATM   37  O   UNL     1      30.145  45.249  55.931  1.00  0.00    -0.317 OA
HETATM   38  C   UNL     1      31.066  44.268  56.114  1.00  0.00     0.143 A 
HETATM   39  C   UNL     1      30.717  43.140  55.413  1.00  0.00     0.027 A 
HETATM   40  C   UNL     1      29.505  43.451  54.753  1.00  0.00     0.045 A 
ENDBRANCH  32  36
ENDBRANCH  25  28
ENDBRANCH   1  22
TORSDOF 8
ENDMDL
MODEL 7
REMARK VINA RESULT:      -9.8      1.574      2.437
REMARK  8 active torsions:
REMARK  status: ('A' for Active; 'I' for Inactive)
REMARK    1  A    between atoms: C_4  and  C_5 
REMARK    2  A    between atoms: C_7  and  C_8 
REMARK    3  A    between atoms: C_9  and  C_10 
REMARK       I    between atoms: C_10  and  N_11 
REMARK    4  A    between atoms: N_11  and  C_12 
REMARK    5  A    between atoms: C_12  and  N_13 
REMARK    6  A    between atoms: N_13  and  C_14 
REMARK    7  A    between atoms: C_17  and  N_18 
REMARK       I    between atoms: N_21  and  C_22 
REMARK    8  A    between atoms: C_22  and  C_23 
ROOT
HETATM    1  N   UNL     1      21.127  47.729  49.386  1.00  0.00    -0.333 N 
HETATM    2  H   UNL     1      20.798  46.809  49.656  1.00  0.00     0.168 HD
ENDROOT
BRANCH   1   3
HETATM    3  C   UNL     1      22.437  47.763  48.971  1.00  0.00     0.179 C 
HETATM    4  S   UNL     1      23.387  49.126  48.763  1.00  0.00    -0.040 SA
BRANCH   3   5
HETATM    5  N   UNL     1      22.975  46.547  48.577  1.00  0.00    -0.300 N 
HETATM    6  C   UNL     1      23.823  45.614  49.148  1.00  0.00     0.247 C 
HETATM    7  O   UNL     1      23.882  44.472  48.698  1.00  0.00    -0.268 OA
HETATM    8  H   UNL     1      22.670  46.258  47.656  1.00  0.00     0.171 HD
BRANCH   6   9
HETATM    9  C   UNL     1      24.705  46.071  50.245  1.00  0.00     0.077 C 
HETATM   10  C   UNL     1      24.690  45.432  51.425  1.00  0.00     0.042 C 
BRANCH  10  11
HETATM   11  C   UNL     1      25.591  45.823  52.451  1.00  0.00     0.076 A 
HETATM   12  O   UNL     1      26.624  45.030  52.898  1.00  0.00    -0.310 OA
HETATM   13  C   UNL     1      27.296  45.683  53.888  1.00  0.00     0.086 A 
HETATM   14  C   UNL     1      26.700  46.905  54.106  1.00  0.00     0.041 A 
HETATM   15  C   UNL     1      25.627  47.000  53.184  1.00  0.00     0.040 A 
BRANCH  13  16
HETATM   16  C   UNL     1      28.436  44.976  54.464  1.00  0.00    -0.002 A 
HETATM   17  C   UNL     1      29.184  45.551  55.502  1.00  0.00     0.014 A 
HETATM   18  C   UNL     1      30.291  44.887  56.043  1.00  0.00     0.001 A 
HETATM   19  C   UNL     1      30.667  43.640  55.548  1.00  0.00     0.000 A 
HETATM   20  C   UNL     1      29.936  43.055  54.519  1.00  0.00     0.001 A 
HETATM   21  C   UNL     1      28.826  43.716  53.986  1.00  0.00     0.014 A 
ENDBRANCH  13  16
ENDBRANCH  10  11
ENDBRANCH   6   9
ENDBRANCH   3   5
ENDBRANCH   1   3
BRANCH   1  22
HETATM   22  C   UNL     1      20.123  48.700  49.190  1.00  0.00     0.034 A 
HETATM   23  C   UNL     1      19.488  49.236  50.312  1.00  0.00     0.031 A 
HETATM   24  C   UNL     1      18.508  50.229  50.169  1.00  0.00     0.026 A 
HETATM   25  C   UNL     1      18.173  50.740  48.911  1.00  0.00     0.010 A 
HETATM   26  C   UNL     1      18.851  50.219  47.800  1.00  0.00     0.026 A 
HETATM   27  C   UNL     1      19.810  49.208  47.932  1.00  0.00     0.031 A 
BRANCH  25  28
HETATM   28  N   UNL     1      17.204  51.729  48.700  1.00  0.00    -0.280 NA
HETATM   29  C   UNL     1      16.797  52.421  49.944  1.00  0.00     0.115 C 
HETATM   30  C   UNL     1      15.997  53.694  49.611  1.00  0.00     0.141 C 
HETATM   31  N   UNL     1      14.884  53.441  48.680  1.00  0.00    -0.344 N 
HETATM   32  C   UNL     1      13.819  54.342  48.528  1.00  0.00     0.277 C 
HETATM   33  C   UNL     1      15.269  52.672  47.489  1.00  0.00     0.141 C 
HETATM   34  O   UNL     1      13.285  54.496  47.427  1.00  0.00    -0.265 OA
HETATM   35  C   UNL     1      16.053  51.394  47.839  1.00  0.00     0.115 C 
BRANCH  32  36
HETATM   36  C   UNL     1      13.341  55.073  49.691  1.00  0.00     0.142 A 
HETATM   37  O   UNL     1      12.592  54.450  50.655  1.00  0.00    -0.317 OA
HETATM   38  C   UNL     1      12.242  55.392  51.568  1.00  0.00     0.143 A 
HETATM   39  C   UNL     1      12.733  56.622  51.206  1.00  0.00     0.027 A 
HETATM   40  C   UNL     1      13.426  56.422  49.989  1.00  0.00     0.045 A 
ENDBRANCH  32  36
ENDBRANCH  25  28
ENDBRANCH   1  22
TORSDOF 8
ENDMDL
MODEL 8
REMARK VINA RESULT:      -9.6      4.939      7.650
REMARK  8 active torsions:
REMARK  status: ('A' for Active; 'I' for Inactive)
REMARK    1  A    between atoms: C_4  and  C_5 
REMARK    2  A    between atoms: C_7  and  C_8 
REMARK    3  A    between atoms: C_9  and  C_10 
REMARK       I    between atoms: C_10  and  N_11 
REMARK    4  A    between atoms: N_11  and  C_12 
REMARK    5  A    between atoms: C_12  and  N_13 
REMARK    6  A    between atoms: N_13  and  C_14 
REMARK    7  A    between atoms: C_17  and  N_18 
REMARK       I    between atoms: N_21  and  C_22 
REMARK    8  A    between atoms: C_22  and  C_23 
ROOT
HETATM    1  N   UNL     1      25.945  40.601  49.040  1.00  0.00    -0.333 N 
HETATM    2  H   UNL     1      25.615  39.935  49.729  1.00  0.00     0.168 HD
ENDROOT
BRANCH   1   3
HETATM    3  C   UNL     1      27.027  40.171  48.309  1.00  0.00     0.179 C 
HETATM    4  S   UNL     1      27.247  40.332  46.657  1.00  0.00    -0.040 SA
BRANCH   3   5
HETATM    5  N   UNL     1      27.967  39.428  49.007  1.00  0.00    -0.300 N 
HETATM    6  C   UNL     1      28.537  39.493  50.266  1.00  0.00     0.247 C 
HETATM    7  O   UNL     1      29.114  38.516  50.738  1.00  0.00    -0.268 OA
HETATM    8  H   UNL     1      28.320  38.638  48.480  1.00  0.00     0.171 HD
BRANCH   6   9
HETATM    9  C   UNL     1      28.498  40.795  50.969  1.00  0.00     0.077 C 
HETATM   10  C   UNL     1      28.814  40.863  52.271  1.00  0.00     0.042 C 
BRANCH  10  11
HETATM   11  C   UNL     1      28.852  42.124  52.924  1.00  0.00     0.076 A 
HETATM   12  O   UNL     1      29.534  42.351  54.098  1.00  0.00    -0.310 OA
HETATM   13  C   UNL     1      29.367  43.652  54.469  1.00  0.00     0.086 A 
HETATM   14  C   UNL     1      28.564  44.285  53.546  1.00  0.00     0.041 A 
HETATM   15  C   UNL     1      28.250  43.318  52.557  1.00  0.00     0.040 A 
BRANCH  13  16
HETATM   16  C   UNL     1      30.043  44.061  55.697  1.00  0.00    -0.002 A 
HETATM   17  C   UNL     1      29.736  45.285  56.310  1.00  0.00     0.014 A 
HETATM   18  C   UNL     1      30.395  45.690  57.475  1.00  0.00     0.001 A 
HETATM   19  C   UNL     1      31.376  44.878  58.041  1.00  0.00     0.000 A 
HETATM   20  C   UNL     1      31.694  43.661  57.446  1.00  0.00     0.001 A 
HETATM   21  C   UNL     1      31.028  43.253  56.287  1.00  0.00     0.014 A 
ENDBRANCH  13  16
ENDBRANCH  10  11
ENDBRANCH   6   9
ENDBRANCH   3   5
ENDBRANCH   1   3
BRANCH   1  22
HETATM   22  C   UNL     1      25.066  41.666  48.754  1.00  0.00     0.034 A 
HETATM   23  C   UNL     1      23.809  41.366  48.224  1.00  0.00     0.031 A 
HETATM   24  C   UNL     1      22.888  42.390  47.955  1.00  0.00     0.026 A 
HETATM   25  C   UNL     1      23.181  43.725  48.251  1.00  0.00     0.010 A 
HETATM   26  C   UNL     1      24.432  44.001  48.821  1.00  0.00     0.026 A 
HETATM   27  C   UNL     1      25.367  42.989  49.065  1.00  0.00     0.031 A 
BRANCH  25  28
HETATM   28  N   UNL     1      22.307  44.791  48.007  1.00  0.00    -0.280 NA
HETATM   29  C   UNL     1      22.820  46.090  48.500  1.00  0.00     0.115 C 
HETATM   30  C   UNL     1      21.988  47.249  47.919  1.00  0.00     0.141 C 
HETATM   31  N   UNL     1      20.540  47.068  48.119  1.00  0.00    -0.344 N 
HETATM   32  C   UNL     1      19.633  48.133  48.014  1.00  0.00     0.277 C 
HETATM   33  C   UNL     1      20.046  45.744  47.716  1.00  0.00     0.141 C 
HETATM   34  O   UNL     1      18.502  47.948  47.559  1.00  0.00    -0.265 OA
HETATM   35  C   UNL     1      20.877  44.596  48.319  1.00  0.00     0.115 C 
BRANCH  32  36
HETATM   36  C   UNL     1      20.038  49.453  48.472  1.00  0.00     0.142 A 
HETATM   37  O   UNL     1      20.183  49.720  49.809  1.00  0.00    -0.317 OA
HETATM   38  C   UNL     1      20.500  51.035  49.927  1.00  0.00     0.143 A 
HETATM   39  C   UNL     1      20.547  51.634  48.692  1.00  0.00     0.027 A 
HETATM   40  C   UNL     1      20.233  50.622  47.756  1.00  0.00     0.045 A 
ENDBRANCH  32  36
ENDBRANCH  25  28
ENDBRANCH   1  22
TORSDOF 8
ENDMDL
MODEL 9
REMARK VINA RESULT:      -9.5      4.284      7.422
REMARK  8 active torsions:
REMARK  status: ('A' for Active; 'I' for Inactive)
REMARK    1  A    between atoms: C_4  and  C_5 
REMARK    2  A    between atoms: C_7  and  C_8 
REMARK    3  A    between atoms: C_9  and  C_10 
REMARK       I    between atoms: C_10  and  N_11 
REMARK    4  A    between atoms: N_11  and  C_12 
REMARK    5  A    between atoms: C_12  and  N_13 
REMARK    6  A    between atoms: N_13  and  C_14 
REMARK    7  A    between atoms: C_17  and  N_18 
REMARK       I    between atoms: N_21  and  C_22 
REMARK    8  A    between atoms: C_22  and  C_23 
ROOT
HETATM    1  N   UNL     1      25.789  41.582  50.064  1.00  0.00    -0.333 N 
HETATM    2  H   UNL     1      25.539  41.083  50.911  1.00  0.00     0.168 HD
ENDROOT
BRANCH   1   3
HETATM    3  C   UNL     1      26.282  40.781  49.061  1.00  0.00     0.179 C 
HETATM    4  S   UNL     1      25.599  40.532  47.553  1.00  0.00    -0.040 SA
BRANCH   3   5
HETATM    5  N   UNL     1      27.394  40.021  49.390  1.00  0.00    -0.300 N 
HETATM    6  C   UNL     1      28.284  39.983  50.449  1.00  0.00     0.247 C 
HETATM    7  O   UNL     1      28.990  38.994  50.631  1.00  0.00    -0.268 OA
HETATM    8  H   UNL     1      27.608  39.311  48.699  1.00  0.00     0.171 HD
BRANCH   6   9
HETATM    9  C   UNL     1      28.408  41.199  51.283  1.00  0.00     0.077 C 
HETATM   10  C   UNL     1      28.767  41.093  52.571  1.00  0.00     0.042 C 
BRANCH  10  11
HETATM   11  C   UNL     1      28.961  42.266  53.349  1.00  0.00     0.076 A 
HETATM   12  O   UNL     1      28.111  43.348  53.317  1.00  0.00    -0.310 OA
HETATM   13  C   UNL     1      28.575  44.309  54.166  1.00  0.00     0.086 A 
HETATM   14  C   UNL     1      29.740  43.868  54.752  1.00  0.00     0.041 A 
HETATM   15  C   UNL     1      29.977  42.565  54.245  1.00  0.00     0.040 A 
BRANCH  13  16
HETATM   16  C   UNL     1      27.773  45.526  54.258  1.00  0.00    -0.002 A 
HETATM   17  C   UNL     1      28.135  46.557  55.137  1.00  0.00     0.014 A 
HETATM   18  C   UNL     1      27.358  47.716  55.243  1.00  0.00     0.001 A 
HETATM   19  C   UNL     1      26.204  47.856  54.475  1.00  0.00     0.000 A 
HETATM   20  C   UNL     1      25.830  46.843  53.598  1.00  0.00     0.001 A 
HETATM   21  C   UNL     1      26.612  45.690  53.486  1.00  0.00     0.014 A 
ENDBRANCH  13  16
ENDBRANCH  10  11
ENDBRANCH   6   9
ENDBRANCH   3   5
ENDBRANCH   1   3
BRANCH   1  22
HETATM   22  C   UNL     1      25.301  42.901  49.969  1.00  0.00     0.034 A 
HETATM   23  C   UNL     1      26.222  43.950  49.935  1.00  0.00     0.031 A 
HETATM   24  C   UNL     1      25.785  45.277  49.806  1.00  0.00     0.026 A 
HETATM   25  C   UNL     1      24.427  45.582  49.664  1.00  0.00     0.010 A 
HETATM   26  C   UNL     1      23.521  44.512  49.658  1.00  0.00     0.026 A 
HETATM   27  C   UNL     1      23.947  43.188  49.815  1.00  0.00     0.031 A 
BRANCH  25  28
HETATM   28  N   UNL     1      23.926  46.883  49.532  1.00  0.00    -0.280 NA
HETATM   29  C   UNL     1      22.512  46.922  49.093  1.00  0.00     0.115 C 
HETATM   30  C   UNL     1      21.931  48.335  49.286  1.00  0.00     0.141 C 
HETATM   31  N   UNL     1      22.770  49.384  48.680  1.00  0.00    -0.344 N 
HETATM   32  C   UNL     1      22.277  50.668  48.407  1.00  0.00     0.277 C 
HETATM   33  C   UNL     1      24.191  49.289  49.041  1.00  0.00     0.141 C 
HETATM   34  O   UNL     1      23.009  51.655  48.518  1.00  0.00    -0.265 OA
HETATM   35  C   UNL     1      24.761  47.875  48.827  1.00  0.00     0.115 C 
BRANCH  32  36
HETATM   36  C   UNL     1      20.899  50.817  47.968  1.00  0.00     0.142 A 
HETATM   37  O   UNL     1      20.420  50.106  46.897  1.00  0.00    -0.317 OA
HETATM   38  C   UNL     1      19.138  50.501  46.689  1.00  0.00     0.143 A 
HETATM   39  C   UNL     1      18.778  51.470  47.593  1.00  0.00     0.027 A 
HETATM   40  C   UNL     1      19.915  51.687  48.406  1.00  0.00     0.045 A 
ENDBRANCH  32  36
ENDBRANCH  25  28
ENDBRANCH   1  22
TORSDOF 8
ENDMDL
MODEL 10
REMARK VINA RESULT:      -9.5      2.980     14.741
REMARK  8 active torsions:
REMARK  status: ('A' for Active; 'I' for Inactive)
REMARK    1  A    between atoms: C_4  and  C_5 
REMARK    2  A    between atoms: C_7  and  C_8 
REMARK    3  A    between atoms: C_9  and  C_10 
REMARK       I    between atoms: C_10  and  N_11 
REMARK    4  A    between atoms: N_11  and  C_12 
REMARK    5  A    between atoms: C_12  and  N_13 
REMARK    6  A    between atoms: N_13  and  C_14 
REMARK    7  A    between atoms: C_17  and  N_18 
REMARK       I    between atoms: N_21  and  C_22 
REMARK    8  A    between atoms: C_22  and  C_23 
ROOT
HETATM    1  N   UNL     1      22.516  48.131  48.476  1.00  0.00    -0.333 N 
HETATM    2  H   UNL     1      22.195  47.747  47.594  1.00  0.00     0.168 HD
ENDROOT
BRANCH   1   3
HETATM    3  C   UNL     1      21.755  49.173  48.949  1.00  0.00     0.179 C 
HETATM    4  S   UNL     1      22.072  50.807  48.770  1.00  0.00    -0.040 SA
BRANCH   3   5
HETATM    5  N   UNL     1      20.683  48.818  49.754  1.00  0.00    -0.300 N 
HETATM    6  C   UNL     1      19.307  48.788  49.606  1.00  0.00     0.247 C 
HETATM    7  O   UNL     1      18.615  48.128  50.377  1.00  0.00    -0.268 OA
HETATM    8  H   UNL     1      20.966  48.489  50.670  1.00  0.00     0.171 HD
BRANCH   6   9
HETATM    9  C   UNL     1      18.713  49.642  48.553  1.00  0.00     0.077 C 
HETATM   10  C   UNL     1      17.436  50.039  48.655  1.00  0.00     0.042 C 
BRANCH  10  11
HETATM   11  C   UNL     1      16.891  50.921  47.684  1.00  0.00     0.076 A 
HETATM   12  O   UNL     1      17.411  51.073  46.419  1.00  0.00    -0.310 OA
HETATM   13  C   UNL     1      16.671  51.994  45.738  1.00  0.00     0.086 A 
HETATM   14  C   UNL     1      15.667  52.460  46.557  1.00  0.00     0.041 A 
HETATM   15  C   UNL     1      15.798  51.768  47.787  1.00  0.00     0.040 A 
BRANCH  13  16
HETATM   16  C   UNL     1      17.088  52.263  44.364  1.00  0.00    -0.002 A 
HETATM   17  C   UNL     1      17.768  51.289  43.619  1.00  0.00     0.014 A 
HETATM   18  C   UNL     1      18.188  51.550  42.310  1.00  0.00     0.001 A 
HETATM   19  C   UNL     1      17.938  52.792  41.731  1.00  0.00     0.000 A 
HETATM   20  C   UNL     1      17.264  53.770  42.456  1.00  0.00     0.001 A 
HETATM   21  C   UNL     1      16.837  53.505  43.760  1.00  0.00     0.014 A 
ENDBRANCH  13  16
ENDBRANCH  10  11
ENDBRANCH   6   9
ENDBRANCH   3   5
ENDBRANCH   1   3
BRANCH   1  22
HETATM   22  C   UNL     1      23.452  47.343  49.177  1.00  0.00     0.034 A 
HETATM   23  C   UNL     1      24.428  47.990  49.937  1.00  0.00     0.031 A 
HETATM   24  C   UNL     1      25.360  47.248  50.679  1.00  0.00     0.026 A 
HETATM   25  C   UNL     1      25.309  45.851  50.716  1.00  0.00     0.010 A 
HETATM   26  C   UNL     1      24.296  45.221  49.981  1.00  0.00     0.026 A 
HETATM   27  C   UNL     1      23.381  45.953  49.214  1.00  0.00     0.031 A 
BRANCH  25  28
HETATM   28  N   UNL     1      26.208  45.053  51.436  1.00  0.00    -0.280 NA
HETATM   29  C   UNL     1      26.639  45.668  52.713  1.00  0.00     0.115 C 
HETATM   30  C   UNL     1      27.347  44.623  53.596  1.00  0.00     0.141 C 
HETATM   31  N   UNL     1      28.423  43.911  52.886  1.00  0.00    -0.344 N 
HETATM   32  C   UNL     1      29.426  43.204  53.566  1.00  0.00     0.277 C 
HETATM   33  C   UNL     1      28.021  43.382  51.575  1.00  0.00     0.141 C 
HETATM   34  O   UNL     1      29.893  42.168  53.088  1.00  0.00    -0.265 OA
HETATM   35  C   UNL     1      27.331  44.442  50.698  1.00  0.00     0.115 C 
BRANCH  32  36
HETATM   36  C   UNL     1      29.921  43.724  54.831  1.00  0.00     0.142 A 
HETATM   37  O   UNL     1      29.628  45.002  55.231  1.00  0.00    -0.317 OA
HETATM   38  C   UNL     1      30.276  45.219  56.405  1.00  0.00     0.143 A 
HETATM   39  C   UNL     1      31.002  44.110  56.768  1.00  0.00     0.027 A 
HETATM   40  C   UNL     1      30.789  43.154  55.748  1.00  0.00     0.045 A 
ENDBRANCH  32  36
ENDBRANCH  25  28
ENDBRANCH   1  22
TORSDOF 8
ENDMDL
