MODEL 1
REMARK VINA RESULT:      -7.8      0.000      0.000
REMARK  6 active torsions:
REMARK  status: ('A' for Active; 'I' for Inactive)
REMARK    1  A    between atoms: C_2  and  O_3 
REMARK    2  A    between atoms: O_3  and  C_4 
REMARK    3  A    between atoms: C_4  and  C_5 
REMARK    4  A    between atoms: C_6  and  O_7 
REMARK    5  A    between atoms: C_12  and  O_13 
REMARK    6  A    between atoms: C_17  and  C_18 
ROOT
HETATM    1  C   UNL     1      26.410  43.852  52.826  1.00  0.00     0.133 C 
HETATM    2  C   UNL     1      27.117  43.234  54.071  1.00  0.00     0.073 C 
HETATM    3  C   UNL     1      27.814  41.900  53.761  1.00  0.00     0.047 C 
HETATM    4  C   UNL     1      28.131  44.198  54.756  1.00  0.00     0.097 C 
HETATM    5  C   UNL     1      27.567  45.570  54.811  1.00  0.00     0.042 A 
HETATM    6  C   UNL     1      26.514  46.069  54.073  1.00  0.00     0.030 A 
HETATM    7  C   UNL     1      26.341  47.360  54.603  1.00  0.00     0.190 A 
HETATM    8  N   UNL     1      27.226  47.678  55.539  1.00  0.00    -0.149 NA
HETATM    9  N   UNL     1      27.963  46.561  55.661  1.00  0.00    -0.279 N 
HETATM   10  H   UNL     1      28.698  46.544  56.360  1.00  0.00     0.189 HD
HETATM   11  C   UNL     1      25.755  45.243  53.086  1.00  0.00     0.075 C 
ENDROOT
BRANCH  11  12
HETATM   12  C   UNL     1      25.492  46.069  51.833  1.00  0.00    -0.045 A 
HETATM   13  C   UNL     1      26.348  47.090  51.384  1.00  0.00     0.050 A 
HETATM   14  C   UNL     1      26.084  47.767  50.197  1.00  0.00     0.117 A 
HETATM   15  F   UNL     1      26.920  48.731  49.790  1.00  0.00    -0.206 F 
HETATM   16  C   UNL     1      24.976  47.450  49.426  1.00  0.00     0.042 A 
HETATM   17  C   UNL     1      24.119  46.437  49.845  1.00  0.00     0.004 A 
HETATM   18  C   UNL     1      24.377  45.750  51.037  1.00  0.00     0.008 A 
ENDBRANCH  11  12
BRANCH   1  19
HETATM   19  C   UNL     1      27.286  43.811  51.590  1.00  0.00     0.267 C 
HETATM   20  O   UNL     1      28.420  44.274  51.575  1.00  0.00    -0.265 OA
BRANCH  19  21
HETATM   21  O   UNL     1      26.665  43.247  50.523  1.00  0.00    -0.316 OA
BRANCH  21  22
HETATM   22  C   UNL     1      25.710  42.211  50.825  1.00  0.00     0.123 C 
HETATM   23  C   UNL     1      26.348  40.842  50.612  1.00  0.00     0.040 C 
HETATM   24  C   UNL     1      24.524  42.397  49.886  1.00  0.00     0.040 C 
ENDBRANCH  21  22
ENDBRANCH  19  21
ENDBRANCH   1  19
BRANCH   2  25
HETATM   25  O   UNL     1      26.093  42.931  55.045  1.00  0.00    -0.389 OA
HETATM   26  H   UNL     1      25.931  43.724  55.587  1.00  0.00     0.210 HD
ENDBRANCH   2  25
BRANCH   7  27
HETATM   27  O   UNL     1      25.431  48.292  54.309  1.00  0.00    -0.343 OA
HETATM   28  H   UNL     1      25.745  49.159  54.605  1.00  0.00     0.219 HD
ENDBRANCH   7  27
TORSDOF 6
ENDMDL
MODEL 2
REMARK VINA RESULT:      -7.7      2.756      4.783
REMARK  6 active torsions:
REMARK  status: ('A' for Active; 'I' for Inactive)
REMARK    1  A    between atoms: C_2  and  O_3 
REMARK    2  A    between atoms: O_3  and  C_4 
REMARK    3  A    between atoms: C_4  and  C_5 
REMARK    4  A    between atoms: C_6  and  O_7 
REMARK    5  A    between atoms: C_12  and  O_13 
REMARK    6  A    between atoms: C_17  and  C_18 
ROOT
HETATM    1  C   UNL     1      28.260  43.899  52.687  1.00  0.00     0.133 C 
HETATM    2  C   UNL     1      28.924  42.613  53.270  1.00  0.00     0.073 C 
HETATM    3  C   UNL     1      29.426  42.801  54.710  1.00  0.00     0.047 C 
HETATM    4  C   UNL     1      28.009  41.353  53.205  1.00  0.00     0.097 C 
HETATM    5  C   UNL     1      27.297  41.313  51.902  1.00  0.00     0.042 A 
HETATM    6  C   UNL     1      27.121  42.353  51.015  1.00  0.00     0.030 A 
HETATM    7  C   UNL     1      26.487  41.734  49.923  1.00  0.00     0.190 A 
HETATM    8  N   UNL     1      26.229  40.446  50.114  1.00  0.00    -0.149 NA
HETATM    9  N   UNL     1      26.745  40.204  51.331  1.00  0.00    -0.279 N 
HETATM   10  H   UNL     1      26.703  39.255  51.691  1.00  0.00     0.189 HD
HETATM   11  C   UNL     1      27.671  43.722  51.254  1.00  0.00     0.075 C 
ENDROOT
BRANCH  11  12
HETATM   12  C   UNL     1      26.628  44.760  50.860  1.00  0.00    -0.045 A 
HETATM   13  C   UNL     1      26.942  45.961  50.200  1.00  0.00     0.050 A 
HETATM   14  C   UNL     1      25.936  46.842  49.812  1.00  0.00     0.117 A 
HETATM   15  F   UNL     1      26.262  47.976  49.180  1.00  0.00    -0.206 F 
HETATM   16  C   UNL     1      24.602  46.556  50.060  1.00  0.00     0.042 A 
HETATM   17  C   UNL     1      24.266  45.368  50.705  1.00  0.00     0.004 A 
HETATM   18  C   UNL     1      25.271  44.477  51.098  1.00  0.00     0.008 A 
ENDBRANCH  11  12
BRANCH   1  19
HETATM   19  C   UNL     1      27.300  44.543  53.667  1.00  0.00     0.267 C 
HETATM   20  O   UNL     1      26.325  43.951  54.114  1.00  0.00    -0.265 OA
BRANCH  19  21
HETATM   21  O   UNL     1      27.624  45.830  53.952  1.00  0.00    -0.316 OA
BRANCH  21  22
HETATM   22  C   UNL     1      26.590  46.615  54.579  1.00  0.00     0.123 C 
HETATM   23  C   UNL     1      25.781  47.348  53.513  1.00  0.00     0.040 C 
HETATM   24  C   UNL     1      27.274  47.611  55.507  1.00  0.00     0.040 C 
ENDBRANCH  21  22
ENDBRANCH  19  21
ENDBRANCH   1  19
BRANCH   2  25
HETATM   25  O   UNL     1      30.095  42.330  52.472  1.00  0.00    -0.389 OA
HETATM   26  H   UNL     1      30.163  42.998  51.766  1.00  0.00     0.210 HD
ENDBRANCH   2  25
BRANCH   7  27
HETATM   27  O   UNL     1      26.118  42.242  48.745  1.00  0.00    -0.343 OA
HETATM   28  H   UNL     1      25.258  41.877  48.488  1.00  0.00     0.219 HD
ENDBRANCH   7  27
TORSDOF 6
ENDMDL
MODEL 3
REMARK VINA RESULT:      -7.1      7.271      9.565
REMARK  6 active torsions:
REMARK  status: ('A' for Active; 'I' for Inactive)
REMARK    1  A    between atoms: C_2  and  O_3 
REMARK    2  A    between atoms: O_3  and  C_4 
REMARK    3  A    between atoms: C_4  and  C_5 
REMARK    4  A    between atoms: C_6  and  O_7 
REMARK    5  A    between atoms: C_12  and  O_13 
REMARK    6  A    between atoms: C_17  and  C_18 
ROOT
HETATM    1  C   UNL     1      19.145  47.612  48.471  1.00  0.00     0.133 C 
HETATM    2  C   UNL     1      20.037  46.350  48.257  1.00  0.00     0.073 C 
HETATM    3  C   UNL     1      19.393  45.316  47.321  1.00  0.00     0.047 C 
HETATM    4  C   UNL     1      21.473  46.679  47.750  1.00  0.00     0.097 C 
HETATM    5  C   UNL     1      22.003  47.867  48.466  1.00  0.00     0.042 A 
HETATM    6  C   UNL     1      21.282  48.798  49.183  1.00  0.00     0.030 A 
HETATM    7  C   UNL     1      22.284  49.620  49.730  1.00  0.00     0.190 A 
HETATM    8  N   UNL     1      23.513  49.288  49.355  1.00  0.00    -0.149 NA
HETATM    9  N   UNL     1      23.320  48.202  48.588  1.00  0.00    -0.279 N 
HETATM   10  H   UNL     1      24.135  47.732  48.206  1.00  0.00     0.189 HD
HETATM   11  C   UNL     1      19.800  48.716  49.356  1.00  0.00     0.075 C 
ENDROOT
BRANCH  11  12
HETATM   12  C   UNL     1      19.196  50.105  49.194  1.00  0.00    -0.045 A 
HETATM   13  C   UNL     1      18.065  50.545  49.904  1.00  0.00     0.050 A 
HETATM   14  C   UNL     1      17.597  51.849  49.757  1.00  0.00     0.117 A 
HETATM   15  F   UNL     1      16.522  52.244  50.450  1.00  0.00    -0.206 F 
HETATM   16  C   UNL     1      18.236  52.745  48.913  1.00  0.00     0.042 A 
HETATM   17  C   UNL     1      19.362  52.334  48.206  1.00  0.00     0.004 A 
HETATM   18  C   UNL     1      19.840  51.027  48.348  1.00  0.00     0.008 A 
ENDBRANCH  11  12
BRANCH   1  19
HETATM   19  C   UNL     1      18.568  48.133  47.171  1.00  0.00     0.267 C 
HETATM   20  O   UNL     1      19.276  48.511  46.245  1.00  0.00    -0.265 OA
BRANCH  19  21
HETATM   21  O   UNL     1      17.211  48.163  47.171  1.00  0.00    -0.316 OA
BRANCH  21  22
HETATM   22  C   UNL     1      16.604  49.231  46.417  1.00  0.00     0.123 C 
HETATM   23  C   UNL     1      15.595  49.970  47.290  1.00  0.00     0.040 C 
HETATM   24  C   UNL     1      15.909  48.602  45.215  1.00  0.00     0.040 C 
ENDBRANCH  21  22
ENDBRANCH  19  21
ENDBRANCH   1  19
BRANCH   2  25
HETATM   25  O   UNL     1      20.178  45.696  49.538  1.00  0.00    -0.389 OA
HETATM   26  H   UNL     1      20.738  44.906  49.427  1.00  0.00     0.210 HD
ENDBRANCH   2  25
BRANCH   7  27
HETATM   27  O   UNL     1      22.180  50.663  50.557  1.00  0.00    -0.343 OA
HETATM   28  H   UNL     1      22.204  51.487  50.048  1.00  0.00     0.219 HD
ENDBRANCH   7  27
TORSDOF 6
ENDMDL
MODEL 4
REMARK VINA RESULT:      -7.1      3.256      5.630
REMARK  6 active torsions:
REMARK  status: ('A' for Active; 'I' for Inactive)
REMARK    1  A    between atoms: C_2  and  O_3 
REMARK    2  A    between atoms: O_3  and  C_4 
REMARK    3  A    between atoms: C_4  and  C_5 
REMARK    4  A    between atoms: C_6  and  O_7 
REMARK    5  A    between atoms: C_12  and  O_13 
REMARK    6  A    between atoms: C_17  and  C_18 
ROOT
HETATM    1  C   UNL     1      26.243  43.240  51.992  1.00  0.00     0.133 C 
HETATM    2  C   UNL     1      25.583  44.484  52.662  1.00  0.00     0.073 C 
HETATM    3  C   UNL     1      26.588  45.346  53.441  1.00  0.00     0.047 C 
HETATM    4  C   UNL     1      24.796  45.386  51.665  1.00  0.00     0.097 C 
HETATM    5  C   UNL     1      24.027  44.541  50.716  1.00  0.00     0.042 A 
HETATM    6  C   UNL     1      24.218  43.202  50.449  1.00  0.00     0.030 A 
HETATM    7  C   UNL     1      23.157  42.899  49.577  1.00  0.00     0.190 A 
HETATM    8  N   UNL     1      22.402  43.946  49.269  1.00  0.00    -0.149 NA
HETATM    9  N   UNL     1      22.945  44.942  49.988  1.00  0.00    -0.279 N 
HETATM   10  H   UNL     1      22.508  45.857  49.949  1.00  0.00     0.189 HD
HETATM   11  C   UNL     1      25.266  42.382  51.130  1.00  0.00     0.075 C 
ENDROOT
BRANCH  11  12
HETATM   12  C   UNL     1      25.943  41.478  50.108  1.00  0.00    -0.045 A 
HETATM   13  C   UNL     1      26.379  41.924  48.848  1.00  0.00     0.050 A 
HETATM   14  C   UNL     1      27.047  41.062  47.982  1.00  0.00     0.117 A 
HETATM   15  F   UNL     1      27.456  41.514  46.790  1.00  0.00    -0.206 F 
HETATM   16  C   UNL     1      27.304  39.747  48.341  1.00  0.00     0.042 A 
HETATM   17  C   UNL     1      26.889  39.286  49.587  1.00  0.00     0.004 A 
HETATM   18  C   UNL     1      26.218  40.145  50.465  1.00  0.00     0.008 A 
ENDBRANCH  11  12
BRANCH   1  19
HETATM   19  C   UNL     1      27.536  43.588  51.285  1.00  0.00     0.267 C 
HETATM   20  O   UNL     1      27.606  44.481  50.448  1.00  0.00    -0.265 OA
BRANCH  19  21
HETATM   21  O   UNL     1      28.570  42.791  51.654  1.00  0.00    -0.316 OA
BRANCH  21  22
HETATM   22  C   UNL     1      28.559  42.337  53.023  1.00  0.00     0.123 C 
HETATM   23  C   UNL     1      29.686  43.012  53.799  1.00  0.00     0.040 C 
HETATM   24  C   UNL     1      28.754  40.826  53.004  1.00  0.00     0.040 C 
ENDBRANCH  21  22
ENDBRANCH  19  21
ENDBRANCH   1  19
BRANCH   2  25
HETATM   25  O   UNL     1      24.633  43.999  53.637  1.00  0.00    -0.389 OA
HETATM   26  H   UNL     1      25.119  43.558  54.357  1.00  0.00     0.210 HD
ENDBRANCH   2  25
BRANCH   7  27
HETATM   27  O   UNL     1      22.806  41.734  49.027  1.00  0.00    -0.343 OA
HETATM   28  H   UNL     1      22.864  41.030  49.690  1.00  0.00     0.219 HD
ENDBRANCH   7  27
TORSDOF 6
ENDMDL
MODEL 5
REMARK VINA RESULT:      -7.1      3.585      5.429
REMARK  6 active torsions:
REMARK  status: ('A' for Active; 'I' for Inactive)
REMARK    1  A    between atoms: C_2  and  O_3 
REMARK    2  A    between atoms: O_3  and  C_4 
REMARK    3  A    between atoms: C_4  and  C_5 
REMARK    4  A    between atoms: C_6  and  O_7 
REMARK    5  A    between atoms: C_12  and  O_13 
REMARK    6  A    between atoms: C_17  and  C_18 
ROOT
HETATM    1  C   UNL     1      27.191  42.863  50.144  1.00  0.00     0.133 C 
HETATM    2  C   UNL     1      27.080  41.656  49.162  1.00  0.00     0.073 C 
HETATM    3  C   UNL     1      28.250  40.668  49.295  1.00  0.00     0.047 C 
HETATM    4  C   UNL     1      25.735  40.879  49.276  1.00  0.00     0.097 C 
HETATM    5  C   UNL     1      24.609  41.835  49.430  1.00  0.00     0.042 A 
HETATM    6  C   UNL     1      24.686  43.162  49.799  1.00  0.00     0.030 A 
HETATM    7  C   UNL     1      23.357  43.603  49.673  1.00  0.00     0.190 A 
HETATM    8  N   UNL     1      22.507  42.647  49.319  1.00  0.00    -0.149 NA
HETATM    9  N   UNL     1      23.298  41.571  49.163  1.00  0.00    -0.279 N 
HETATM   10  H   UNL     1      22.873  40.704  48.850  1.00  0.00     0.189 HD
HETATM   11  C   UNL     1      25.983  43.846  50.089  1.00  0.00     0.075 C 
ENDROOT
BRANCH  11  12
HETATM   12  C   UNL     1      25.822  44.729  51.320  1.00  0.00    -0.045 A 
HETATM   13  C   UNL     1      25.249  44.283  52.524  1.00  0.00     0.050 A 
HETATM   14  C   UNL     1      25.187  45.121  53.634  1.00  0.00     0.117 A 
HETATM   15  F   UNL     1      24.641  44.669  54.770  1.00  0.00    -0.206 F 
HETATM   16  C   UNL     1      25.692  46.412  53.584  1.00  0.00     0.042 A 
HETATM   17  C   UNL     1      26.272  46.872  52.405  1.00  0.00     0.004 A 
HETATM   18  C   UNL     1      26.340  46.037  51.284  1.00  0.00     0.008 A 
ENDBRANCH  11  12
BRANCH   1  19
HETATM   19  C   UNL     1      27.561  42.427  51.547  1.00  0.00     0.267 C 
HETATM   20  O   UNL     1      26.984  41.512  52.123  1.00  0.00    -0.265 OA
BRANCH  19  21
HETATM   21  O   UNL     1      28.557  43.175  52.086  1.00  0.00    -0.316 OA
BRANCH  21  22
HETATM   22  C   UNL     1      28.909  42.868  53.450  1.00  0.00     0.123 C 
HETATM   23  C   UNL     1      28.503  44.023  54.360  1.00  0.00     0.040 C 
HETATM   24  C   UNL     1      30.418  42.658  53.495  1.00  0.00     0.040 C 
ENDBRANCH  21  22
ENDBRANCH  19  21
ENDBRANCH   1  19
BRANCH   2  25
HETATM   25  O   UNL     1      27.154  42.182  47.818  1.00  0.00    -0.389 OA
HETATM   26  H   UNL     1      26.608  42.988  47.766  1.00  0.00     0.210 HD
ENDBRANCH   2  25
BRANCH   7  27
HETATM   27  O   UNL     1      22.837  44.819  49.851  1.00  0.00    -0.343 OA
HETATM   28  H   UNL     1      23.430  45.486  49.473  1.00  0.00     0.219 HD
ENDBRANCH   7  27
TORSDOF 6
ENDMDL
MODEL 6
REMARK VINA RESULT:      -6.9      3.408      5.132
REMARK  6 active torsions:
REMARK  status: ('A' for Active; 'I' for Inactive)
REMARK    1  A    between atoms: C_2  and  O_3 
REMARK    2  A    between atoms: O_3  and  C_4 
REMARK    3  A    between atoms: C_4  and  C_5 
REMARK    4  A    between atoms: C_6  and  O_7 
REMARK    5  A    between atoms: C_12  and  O_13 
REMARK    6  A    between atoms: C_17  and  C_18 
ROOT
HETATM    1  C   UNL     1      26.042  40.332  49.272  1.00  0.00     0.133 C 
HETATM    2  C   UNL     1      26.869  39.013  49.373  1.00  0.00     0.073 C 
HETATM    3  C   UNL     1      26.941  38.250  48.041  1.00  0.00     0.047 C 
HETATM    4  C   UNL     1      28.310  39.219  49.927  1.00  0.00     0.097 C 
HETATM    5  C   UNL     1      28.284  40.184  51.056  1.00  0.00     0.042 A 
HETATM    6  C   UNL     1      27.278  41.073  51.371  1.00  0.00     0.030 A 
HETATM    7  C   UNL     1      27.726  41.644  52.575  1.00  0.00     0.190 A 
HETATM    8  N   UNL     1      28.920  41.212  52.961  1.00  0.00    -0.149 NA
HETATM    9  N   UNL     1      29.241  40.307  52.020  1.00  0.00    -0.279 N 
HETATM   10  H   UNL     1      30.114  39.800  52.120  1.00  0.00     0.189 HD
HETATM   11  C   UNL     1      26.010  41.170  50.586  1.00  0.00     0.075 C 
ENDROOT
BRANCH  11  12
HETATM   12  C   UNL     1      25.644  42.637  50.398  1.00  0.00    -0.045 A 
HETATM   13  C   UNL     1      26.565  43.621  49.999  1.00  0.00     0.050 A 
HETATM   14  C   UNL     1      26.154  44.934  49.786  1.00  0.00     0.117 A 
HETATM   15  F   UNL     1      27.052  45.850  49.400  1.00  0.00    -0.206 F 
HETATM   16  C   UNL     1      24.829  45.304  49.955  1.00  0.00     0.042 A 
HETATM   17  C   UNL     1      23.896  44.345  50.342  1.00  0.00     0.004 A 
HETATM   18  C   UNL     1      24.300  43.022  50.558  1.00  0.00     0.008 A 
ENDBRANCH  11  12
BRANCH   1  19
HETATM   19  C   UNL     1      26.402  41.140  48.041  1.00  0.00     0.267 C 
HETATM   20  O   UNL     1      27.553  41.475  47.790  1.00  0.00    -0.265 OA
BRANCH  19  21
HETATM   21  O   UNL     1      25.319  41.467  47.291  1.00  0.00    -0.316 OA
BRANCH  21  22
HETATM   22  C   UNL     1      24.188  40.579  47.394  1.00  0.00     0.123 C 
HETATM   23  C   UNL     1      24.082  39.731  46.131  1.00  0.00     0.040 C 
HETATM   24  C   UNL     1      22.944  41.442  47.564  1.00  0.00     0.040 C 
ENDBRANCH  21  22
ENDBRANCH  19  21
ENDBRANCH   1  19
BRANCH   2  25
HETATM   25  O   UNL     1      26.179  38.139  50.295  1.00  0.00    -0.389 OA
HETATM   26  H   UNL     1      26.787  37.429  50.568  1.00  0.00     0.210 HD
ENDBRANCH   2  25
BRANCH   7  27
HETATM   27  O   UNL     1      27.135  42.537  53.372  1.00  0.00    -0.343 OA
HETATM   28  H   UNL     1      26.778  43.264  52.840  1.00  0.00     0.219 HD
ENDBRANCH   7  27
TORSDOF 6
ENDMDL
MODEL 7
REMARK VINA RESULT:      -6.8      3.762      6.385
REMARK  6 active torsions:
REMARK  status: ('A' for Active; 'I' for Inactive)
REMARK    1  A    between atoms: C_2  and  O_3 
REMARK    2  A    between atoms: O_3  and  C_4 
REMARK    3  A    between atoms: C_4  and  C_5 
REMARK    4  A    between atoms: C_6  and  O_7 
REMARK    5  A    between atoms: C_12  and  O_13 
REMARK    6  A    between atoms: C_17  and  C_18 
ROOT
HETATM    1  C   UNL     1      25.769  43.774  51.004  1.00  0.00     0.133 C 
HETATM    2  C   UNL     1      24.808  45.003  51.023  1.00  0.00     0.073 C 
HETATM    3  C   UNL     1      25.371  46.188  51.822  1.00  0.00     0.047 C 
HETATM    4  C   UNL     1      24.390  45.491  49.603  1.00  0.00     0.097 C 
HETATM    5  C   UNL     1      24.109  44.324  48.730  1.00  0.00     0.042 A 
HETATM    6  C   UNL     1      24.492  43.015  48.936  1.00  0.00     0.030 A 
HETATM    7  C   UNL     1      23.869  42.332  47.876  1.00  0.00     0.190 A 
HETATM    8  N   UNL     1      23.207  43.126  47.044  1.00  0.00    -0.149 NA
HETATM    9  N   UNL     1      23.356  44.344  47.592  1.00  0.00    -0.279 N 
HETATM   10  H   UNL     1      22.896  45.131  47.146  1.00  0.00     0.189 HD
HETATM   11  C   UNL     1      25.264  42.579  50.139  1.00  0.00     0.075 C 
ENDROOT
BRANCH  11  12
HETATM   12  C   UNL     1      26.347  41.596  49.714  1.00  0.00    -0.045 A 
HETATM   13  C   UNL     1      27.100  41.735  48.534  1.00  0.00     0.050 A 
HETATM   14  C   UNL     1      28.120  40.836  48.233  1.00  0.00     0.117 A 
HETATM   15  F   UNL     1      28.825  40.996  47.106  1.00  0.00    -0.206 F 
HETATM   16  C   UNL     1      28.421  39.786  49.086  1.00  0.00     0.042 A 
HETATM   17  C   UNL     1      27.695  39.633  50.264  1.00  0.00     0.004 A 
HETATM   18  C   UNL     1      26.669  40.532  50.577  1.00  0.00     0.008 A 
ENDBRANCH  11  12
BRANCH   1  19
HETATM   19  C   UNL     1      27.203  44.172  50.717  1.00  0.00     0.267 C 
HETATM   20  O   UNL     1      27.511  44.860  49.751  1.00  0.00    -0.265 OA
BRANCH  19  21
HETATM   21  O   UNL     1      28.081  43.660  51.615  1.00  0.00    -0.316 OA
BRANCH  21  22
HETATM   22  C   UNL     1      27.576  43.464  52.951  1.00  0.00     0.123 C 
HETATM   23  C   UNL     1      28.050  44.599  53.854  1.00  0.00     0.040 C 
HETATM   24  C   UNL     1      28.110  42.127  53.450  1.00  0.00     0.040 C 
ENDBRANCH  21  22
ENDBRANCH  19  21
ENDBRANCH   1  19
BRANCH   2  25
HETATM   25  O   UNL     1      23.601  44.598  51.706  1.00  0.00    -0.389 OA
HETATM   26  H   UNL     1      23.570  45.036  52.576  1.00  0.00     0.210 HD
ENDBRANCH   2  25
BRANCH   7  27
HETATM   27  O   UNL     1      23.846  41.028  47.593  1.00  0.00    -0.343 OA
HETATM   28  H   UNL     1      23.474  40.539  48.342  1.00  0.00     0.219 HD
ENDBRANCH   7  27
TORSDOF 6
ENDMDL
MODEL 8
REMARK VINA RESULT:      -6.7      3.278      5.130
REMARK  6 active torsions:
REMARK  status: ('A' for Active; 'I' for Inactive)
REMARK    1  A    between atoms: C_2  and  O_3 
REMARK    2  A    between atoms: O_3  and  C_4 
REMARK    3  A    between atoms: C_4  and  C_5 
REMARK    4  A    between atoms: C_6  and  O_7 
REMARK    5  A    between atoms: C_12  and  O_13 
REMARK    6  A    between atoms: C_17  and  C_18 
ROOT
HETATM    1  C   UNL     1      27.535  42.924  50.720  1.00  0.00     0.133 C 
HETATM    2  C   UNL     1      27.563  41.365  50.687  1.00  0.00     0.073 C 
HETATM    3  C   UNL     1      28.343  40.757  51.863  1.00  0.00     0.047 C 
HETATM    4  C   UNL     1      26.149  40.716  50.617  1.00  0.00     0.097 C 
HETATM    5  C   UNL     1      25.289  41.477  49.676  1.00  0.00     0.042 A 
HETATM    6  C   UNL     1      25.497  42.755  49.203  1.00  0.00     0.030 A 
HETATM    7  C   UNL     1      24.454  42.923  48.275  1.00  0.00     0.190 A 
HETATM    8  N   UNL     1      23.628  41.886  48.204  1.00  0.00    -0.149 NA
HETATM    9  N   UNL     1      24.165  41.003  49.064  1.00  0.00    -0.279 N 
HETATM   10  H   UNL     1      23.723  40.095  49.158  1.00  0.00     0.189 HD
HETATM   11  C   UNL     1      26.688  43.574  49.583  1.00  0.00     0.075 C 
ENDROOT
BRANCH  11  12
HETATM   12  C   UNL     1      26.249  45.007  49.854  1.00  0.00    -0.045 A 
HETATM   13  C   UNL     1      27.068  46.126  49.618  1.00  0.00     0.050 A 
HETATM   14  C   UNL     1      26.586  47.415  49.828  1.00  0.00     0.117 A 
HETATM   15  F   UNL     1      27.385  48.463  49.590  1.00  0.00    -0.206 F 
HETATM   16  C   UNL     1      25.289  47.629  50.268  1.00  0.00     0.042 A 
HETATM   17  C   UNL     1      24.457  46.538  50.500  1.00  0.00     0.004 A 
HETATM   18  C   UNL     1      24.932  45.238  50.291  1.00  0.00     0.008 A 
ENDBRANCH  11  12
BRANCH   1  19
HETATM   19  C   UNL     1      27.218  43.462  52.101  1.00  0.00     0.267 C 
HETATM   20  O   UNL     1      26.126  43.301  52.632  1.00  0.00    -0.265 OA
BRANCH  19  21
HETATM   21  O   UNL     1      28.250  44.155  52.646  1.00  0.00    -0.316 OA
BRANCH  21  22
HETATM   22  C   UNL     1      28.531  43.879  54.033  1.00  0.00     0.123 C 
HETATM   23  C   UNL     1      28.537  45.182  54.826  1.00  0.00     0.040 C 
HETATM   24  C   UNL     1      29.899  43.210  54.097  1.00  0.00     0.040 C 
ENDBRANCH  21  22
ENDBRANCH  19  21
ENDBRANCH   1  19
BRANCH   2  25
HETATM   25  O   UNL     1      28.272  40.969  49.491  1.00  0.00    -0.389 OA
HETATM   26  H   UNL     1      28.395  40.003  49.504  1.00  0.00     0.210 HD
ENDBRANCH   2  25
BRANCH   7  27
HETATM   27  O   UNL     1      24.180  43.952  47.470  1.00  0.00    -0.343 OA
HETATM   28  H   UNL     1      24.983  44.218  46.997  1.00  0.00     0.219 HD
ENDBRANCH   7  27
TORSDOF 6
ENDMDL
MODEL 9
REMARK VINA RESULT:      -6.7      6.830      9.674
REMARK  6 active torsions:
REMARK  status: ('A' for Active; 'I' for Inactive)
REMARK    1  A    between atoms: C_2  and  O_3 
REMARK    2  A    between atoms: O_3  and  C_4 
REMARK    3  A    between atoms: C_4  and  C_5 
REMARK    4  A    between atoms: C_6  and  O_7 
REMARK    5  A    between atoms: C_12  and  O_13 
REMARK    6  A    between atoms: C_17  and  C_18 
ROOT
HETATM    1  C   UNL     1      21.316  49.854  47.938  1.00  0.00     0.133 C 
HETATM    2  C   UNL     1      22.800  49.903  48.415  1.00  0.00     0.073 C 
HETATM    3  C   UNL     1      23.184  51.256  49.033  1.00  0.00     0.047 C 
HETATM    4  C   UNL     1      23.176  48.760  49.405  1.00  0.00     0.097 C 
HETATM    5  C   UNL     1      22.568  47.482  48.956  1.00  0.00     0.042 A 
HETATM    6  C   UNL     1      21.533  47.320  48.059  1.00  0.00     0.030 A 
HETATM    7  C   UNL     1      21.447  45.923  47.925  1.00  0.00     0.190 A 
HETATM    8  N   UNL     1      22.295  45.257  48.699  1.00  0.00    -0.149 NA
HETATM    9  N   UNL     1      22.983  46.233  49.316  1.00  0.00    -0.279 N 
HETATM   10  H   UNL     1      23.733  45.967  49.946  1.00  0.00     0.189 HD
HETATM   11  C   UNL     1      20.869  48.470  47.374  1.00  0.00     0.075 C 
ENDROOT
BRANCH  11  12
HETATM   12  C   UNL     1      19.363  48.245  47.353  1.00  0.00    -0.045 A 
HETATM   13  C   UNL     1      18.641  47.734  48.447  1.00  0.00     0.050 A 
HETATM   14  C   UNL     1      17.256  47.610  48.387  1.00  0.00     0.117 A 
HETATM   15  F   UNL     1      16.593  47.126  49.445  1.00  0.00    -0.206 F 
HETATM   16  C   UNL     1      16.553  47.989  47.253  1.00  0.00     0.042 A 
HETATM   17  C   UNL     1      17.246  48.505  46.161  1.00  0.00     0.004 A 
HETATM   18  C   UNL     1      18.638  48.635  46.212  1.00  0.00     0.008 A 
ENDBRANCH  11  12
BRANCH   1  19
HETATM   19  C   UNL     1      20.364  50.429  48.967  1.00  0.00     0.267 C 
HETATM   20  O   UNL     1      20.174  49.897  50.054  1.00  0.00    -0.265 OA
BRANCH  19  21
HETATM   21  O   UNL     1      19.738  51.553  48.535  1.00  0.00    -0.316 OA
BRANCH  21  22
HETATM   22  C   UNL     1      18.297  51.522  48.559  1.00  0.00     0.123 C 
HETATM   23  C   UNL     1      17.747  52.031  47.230  1.00  0.00     0.040 C 
HETATM   24  C   UNL     1      17.840  52.418  49.703  1.00  0.00     0.040 C 
ENDBRANCH  21  22
ENDBRANCH  19  21
ENDBRANCH   1  19
BRANCH   2  25
HETATM   25  O   UNL     1      23.637  49.746  47.247  1.00  0.00    -0.389 OA
HETATM   26  H   UNL     1      24.487  49.357  47.520  1.00  0.00     0.210 HD
ENDBRANCH   2  25
BRANCH   7  27
HETATM   27  O   UNL     1      20.654  45.184  47.145  1.00  0.00    -0.343 OA
HETATM   28  H   UNL     1      20.200  44.516  47.681  1.00  0.00     0.219 HD
ENDBRANCH   7  27
TORSDOF 6
ENDMDL
MODEL 10
REMARK VINA RESULT:      -6.6      6.958      9.467
REMARK  6 active torsions:
REMARK  status: ('A' for Active; 'I' for Inactive)
REMARK    1  A    between atoms: C_2  and  O_3 
REMARK    2  A    between atoms: O_3  and  C_4 
REMARK    3  A    between atoms: C_4  and  C_5 
REMARK    4  A    between atoms: C_6  and  O_7 
REMARK    5  A    between atoms: C_12  and  O_13 
REMARK    6  A    between atoms: C_17  and  C_18 
ROOT
HETATM    1  C   UNL     1      20.518  48.759  49.201  1.00  0.00     0.133 C 
HETATM    2  C   UNL     1      19.717  49.917  49.872  1.00  0.00     0.073 C 
HETATM    3  C   UNL     1      20.525  51.219  49.977  1.00  0.00     0.047 C 
HETATM    4  C   UNL     1      18.351  50.212  49.184  1.00  0.00     0.097 C 
HETATM    5  C   UNL     1      17.679  48.938  48.824  1.00  0.00     0.042 A 
HETATM    6  C   UNL     1      18.256  47.689  48.729  1.00  0.00     0.030 A 
HETATM    7  C   UNL     1      17.156  46.851  48.472  1.00  0.00     0.190 A 
HETATM    8  N   UNL     1      16.005  47.500  48.355  1.00  0.00    -0.149 NA
HETATM    9  N   UNL     1      16.346  48.779  48.586  1.00  0.00    -0.279 N 
HETATM   10  H   UNL     1      15.610  49.479  48.589  1.00  0.00     0.189 HD
HETATM   11  C   UNL     1      19.703  47.443  49.009  1.00  0.00     0.075 C 
ENDROOT
BRANCH  11  12
HETATM   12  C   UNL     1      20.266  46.491  47.962  1.00  0.00    -0.045 A 
HETATM   13  C   UNL     1      19.993  46.603  46.587  1.00  0.00     0.050 A 
HETATM   14  C   UNL     1      20.588  45.737  45.673  1.00  0.00     0.117 A 
HETATM   15  F   UNL     1      20.315  45.870  44.369  1.00  0.00    -0.206 F 
HETATM   16  C   UNL     1      21.466  44.749  46.092  1.00  0.00     0.042 A 
HETATM   17  C   UNL     1      21.758  44.625  47.447  1.00  0.00     0.004 A 
HETATM   18  C   UNL     1      21.166  45.491  48.374  1.00  0.00     0.008 A 
ENDBRANCH  11  12
BRANCH   1  19
HETATM   19  C   UNL     1      21.244  49.214  47.951  1.00  0.00     0.267 C 
HETATM   20  O   UNL     1      20.716  49.934  47.112  1.00  0.00    -0.265 OA
BRANCH  19  21
HETATM   21  O   UNL     1      22.503  48.714  47.862  1.00  0.00    -0.316 OA
BRANCH  21  22
HETATM   22  C   UNL     1      23.403  49.077  48.927  1.00  0.00     0.123 C 
HETATM   23  C   UNL     1      24.483  50.012  48.393  1.00  0.00     0.040 C 
HETATM   24  C   UNL     1      24.025  47.791  49.457  1.00  0.00     0.040 C 
ENDBRANCH  21  22
ENDBRANCH  19  21
ENDBRANCH   1  19
BRANCH   2  25
HETATM   25  O   UNL     1      19.430  49.515  51.231  1.00  0.00    -0.389 OA
HETATM   26  H   UNL     1      19.991  50.032  51.836  1.00  0.00     0.210 HD
ENDBRANCH   2  25
BRANCH   7  27
HETATM   27  O   UNL     1      17.103  45.524  48.335  1.00  0.00    -0.343 OA
HETATM   28  H   UNL     1      17.794  45.232  47.722  1.00  0.00     0.219 HD
ENDBRANCH   7  27
TORSDOF 6
ENDMDL
