MODEL 1
REMARK VINA RESULT:     -10.8      0.000      0.000
REMARK  7 active torsions:
REMARK  status: ('A' for Active; 'I' for Inactive)
REMARK    1  A    between atoms: N_2  and  C_4 
REMARK    2  A    between atoms: N_2  and  C_23 
REMARK    3  A    between atoms: C_4  and  C_5 
REMARK       I    between atoms: C_5  and  N_6 
REMARK    4  A    between atoms: N_6  and  C_7 
REMARK    5  A    between atoms: C_8  and  O_9 
REMARK    6  A    between atoms: C_23  and  C_24 
REMARK       I    between atoms: C_24  and  N_25 
REMARK    7  A    between atoms: N_25  and  C_26 
ROOT
HETATM    1  C   UNL     1      25.238  43.910  51.648  1.00  0.00     0.248 C 
HETATM    2  N   UNL     1      26.588  44.050  51.485  1.00  0.00    -0.323 N 
HETATM    3  O   UNL     1      24.595  44.031  52.693  1.00  0.00    -0.271 OA
HETATM    4  H   UNL     1      26.965  44.252  50.560  1.00  0.00     0.169 HD
ENDROOT
BRANCH   1   5
HETATM    5  C   UNL     1      24.446  43.648  50.364  1.00  0.00     0.337 C 
BRANCH   5   6
HETATM    6  N   UNL     1      23.469  44.820  50.143  1.00  0.00    -0.058 N 
HETATM    7  C   UNL     1      22.174  44.384  49.544  1.00  0.00     0.270 C 
HETATM    8  H   UNL     1      23.275  45.133  51.113  1.00  0.00     0.280 HD
BRANCH   6   9
HETATM    9  C   UNL     1      24.081  46.011  49.407  1.00  0.00     0.337 C 
BRANCH   9  10
HETATM   10  C   UNL     1      23.065  46.984  48.798  1.00  0.00     0.248 C 
HETATM   11  N   UNL     1      22.781  48.092  49.571  1.00  0.00    -0.326 N 
HETATM   12  H   UNL     1      23.367  48.290  50.377  1.00  0.00     0.169 HD
HETATM   13  O   UNL     1      22.661  46.783  47.653  1.00  0.00    -0.271 OA
BRANCH  11  14
HETATM   14  C   UNL     1      21.819  49.085  49.274  1.00  0.00     0.036 A 
HETATM   15  C   UNL     1      20.439  48.867  49.324  1.00  0.00     0.055 A 
HETATM   16  C   UNL     1      19.541  49.905  49.036  1.00  0.00     0.058 A 
HETATM   17 CL   UNL     1      17.852  49.547  49.128  1.00  0.00    -0.082 Cl
HETATM   18  C   UNL     1      20.019  51.172  48.695  1.00  0.00     0.055 A 
HETATM   19 CL   UNL     1      18.974  52.493  48.325  1.00  0.00    -0.083 Cl
HETATM   20  C   UNL     1      21.396  51.396  48.651  1.00  0.00     0.028 A 
HETATM   21  C   UNL     1      22.291  50.360  48.945  1.00  0.00     0.031 A 
ENDBRANCH  11  14
ENDBRANCH   9  10
ENDBRANCH   6   9
ENDBRANCH   5   6
ENDBRANCH   1   5
BRANCH   2  22
HETATM   22  C   UNL     1      27.569  44.102  52.502  1.00  0.00     0.071 A 
HETATM   23  C   UNL     1      28.550  43.094  52.474  1.00  0.00     0.096 A 
HETATM   24  C   UNL     1      29.505  42.954  53.491  1.00  0.00     0.054 A 
HETATM   25  C   UNL     1      29.485  43.885  54.546  1.00  0.00     0.014 A 
HETATM   26  C   UNL     1      28.537  44.901  54.517  1.00  0.00     0.089 A 
HETATM   27  C   UNL     1      30.223  44.074  55.753  1.00  0.00     0.011 A 
HETATM   28  O   UNL     1      28.667  45.709  55.605  1.00  0.00    -0.309 OA
HETATM   29  C   UNL     1      27.569  45.056  53.522  1.00  0.00     0.070 A 
HETATM   30  C   UNL     1      29.682  45.204  56.358  1.00  0.00     0.087 A 
HETATM   31  C   UNL     1      30.123  45.729  57.570  1.00  0.00     0.038 A 
HETATM   32  C   UNL     1      31.170  45.051  58.202  1.00  0.00     0.003 A 
HETATM   33  C   UNL     1      31.738  43.908  57.632  1.00  0.00     0.001 A 
HETATM   34  C   UNL     1      31.278  43.407  56.405  1.00  0.00     0.015 A 
BRANCH  23  35
HETATM   35  O   UNL     1      28.501  42.208  51.418  1.00  0.00    -0.354 OA
HETATM   36  C   UNL     1      28.366  40.860  51.880  1.00  0.00     0.210 C 
ENDBRANCH  23  35
ENDBRANCH   2  22
TORSDOF 7
ENDMDL
MODEL 2
REMARK VINA RESULT:     -10.5      1.377      2.696
REMARK  7 active torsions:
REMARK  status: ('A' for Active; 'I' for Inactive)
REMARK    1  A    between atoms: N_2  and  C_4 
REMARK    2  A    between atoms: N_2  and  C_23 
REMARK    3  A    between atoms: C_4  and  C_5 
REMARK       I    between atoms: C_5  and  N_6 
REMARK    4  A    between atoms: N_6  and  C_7 
REMARK    5  A    between atoms: C_8  and  O_9 
REMARK    6  A    between atoms: C_23  and  C_24 
REMARK       I    between atoms: C_24  and  N_25 
REMARK    7  A    between atoms: N_25  and  C_26 
ROOT
HETATM    1  C   UNL     1      25.148  44.585  51.192  1.00  0.00     0.248 C 
HETATM    2  N   UNL     1      26.343  45.184  51.479  1.00  0.00    -0.323 N 
HETATM    3  O   UNL     1      24.384  44.026  51.983  1.00  0.00    -0.271 OA
HETATM    4  H   UNL     1      26.723  45.881  50.838  1.00  0.00     0.169 HD
ENDROOT
BRANCH   1   5
HETATM    5  C   UNL     1      24.690  44.696  49.735  1.00  0.00     0.337 C 
BRANCH   5   6
HETATM    6  N   UNL     1      23.428  45.580  49.685  1.00  0.00    -0.058 N 
HETATM    7  C   UNL     1      22.292  44.920  48.976  1.00  0.00     0.270 C 
HETATM    8  H   UNL     1      23.169  45.654  50.687  1.00  0.00     0.280 HD
BRANCH   6   9
HETATM    9  C   UNL     1      23.682  47.001  49.185  1.00  0.00     0.337 C 
BRANCH   9  10
HETATM   10  C   UNL     1      22.446  47.719  48.631  1.00  0.00     0.248 C 
HETATM   11  N   UNL     1      21.657  48.341  49.579  1.00  0.00    -0.326 N 
HETATM   12  H   UNL     1      22.016  48.442  50.524  1.00  0.00     0.169 HD
HETATM   13  O   UNL     1      22.294  47.790  47.412  1.00  0.00    -0.271 OA
BRANCH  11  14
HETATM   14  C   UNL     1      20.425  48.990  49.335  1.00  0.00     0.036 A 
HETATM   15  C   UNL     1      20.314  50.344  49.005  1.00  0.00     0.055 A 
HETATM   16  C   UNL     1      19.059  50.918  48.756  1.00  0.00     0.058 A 
HETATM   17 CL   UNL     1      19.016  52.597  48.348  1.00  0.00    -0.082 Cl
HETATM   18  C   UNL     1      17.903  50.138  48.836  1.00  0.00     0.055 A 
HETATM   19 CL   UNL     1      16.327  50.778  48.546  1.00  0.00    -0.083 Cl
HETATM   20  C   UNL     1      18.010  48.785  49.159  1.00  0.00     0.028 A 
HETATM   21  C   UNL     1      19.264  48.213  49.401  1.00  0.00     0.031 A 
ENDBRANCH  11  14
ENDBRANCH   9  10
ENDBRANCH   6   9
ENDBRANCH   5   6
ENDBRANCH   1   5
BRANCH   2  22
HETATM   22  C   UNL     1      27.088  45.072  52.674  1.00  0.00     0.071 A 
HETATM   23  C   UNL     1      26.859  46.062  53.647  1.00  0.00     0.096 A 
HETATM   24  C   UNL     1      27.617  46.143  54.824  1.00  0.00     0.054 A 
HETATM   25  C   UNL     1      28.612  45.169  55.034  1.00  0.00     0.014 A 
HETATM   26  C   UNL     1      28.778  44.172  54.079  1.00  0.00     0.089 A 
HETATM   27  C   UNL     1      29.596  44.917  56.037  1.00  0.00     0.011 A 
HETATM   28  O   UNL     1      29.772  43.319  54.446  1.00  0.00    -0.309 OA
HETATM   29  C   UNL     1      28.043  44.077  52.895  1.00  0.00     0.070 A 
HETATM   30  C   UNL     1      30.273  43.773  55.627  1.00  0.00     0.087 A 
HETATM   31  C   UNL     1      31.323  43.190  56.334  1.00  0.00     0.038 A 
HETATM   32  C   UNL     1      31.705  43.822  57.521  1.00  0.00     0.003 A 
HETATM   33  C   UNL     1      31.054  44.977  57.966  1.00  0.00     0.001 A 
HETATM   34  C   UNL     1      29.995  45.536  57.237  1.00  0.00     0.015 A 
BRANCH  23  35
HETATM   35  O   UNL     1      25.879  46.992  53.369  1.00  0.00    -0.354 OA
HETATM   36  C   UNL     1      25.821  48.002  54.381  1.00  0.00     0.210 C 
ENDBRANCH  23  35
ENDBRANCH   2  22
TORSDOF 7
ENDMDL
MODEL 3
REMARK VINA RESULT:     -10.0      4.451     10.853
REMARK  7 active torsions:
REMARK  status: ('A' for Active; 'I' for Inactive)
REMARK    1  A    between atoms: N_2  and  C_4 
REMARK    2  A    between atoms: N_2  and  C_23 
REMARK    3  A    between atoms: C_4  and  C_5 
REMARK       I    between atoms: C_5  and  N_6 
REMARK    4  A    between atoms: N_6  and  C_7 
REMARK    5  A    between atoms: C_8  and  O_9 
REMARK    6  A    between atoms: C_23  and  C_24 
REMARK       I    between atoms: C_24  and  N_25 
REMARK    7  A    between atoms: N_25  and  C_26 
ROOT
HETATM    1  C   UNL     1      25.175  45.195  49.313  1.00  0.00     0.248 C 
HETATM    2  N   UNL     1      25.159  46.527  49.619  1.00  0.00    -0.323 N 
HETATM    3  O   UNL     1      24.447  44.604  48.511  1.00  0.00    -0.271 OA
HETATM    4  H   UNL     1      25.987  46.959  50.028  1.00  0.00     0.169 HD
ENDROOT
BRANCH   1   5
HETATM    5  C   UNL     1      26.275  44.376  49.995  1.00  0.00     0.337 C 
BRANCH   5   6
HETATM    6  N   UNL     1      25.687  43.732  51.266  1.00  0.00    -0.058 N 
HETATM    7  C   UNL     1      24.420  42.989  51.001  1.00  0.00     0.270 C 
HETATM    8  H   UNL     1      26.412  43.033  51.516  1.00  0.00     0.280 HD
BRANCH   6   9
HETATM    9  C   UNL     1      25.566  44.688  52.452  1.00  0.00     0.337 C 
BRANCH   9  10
HETATM   10  C   UNL     1      26.469  44.353  53.645  1.00  0.00     0.248 C 
HETATM   11  N   UNL     1      27.752  44.858  53.566  1.00  0.00    -0.326 N 
HETATM   12  H   UNL     1      27.965  45.544  52.848  1.00  0.00     0.169 HD
HETATM   13  O   UNL     1      25.984  43.771  54.614  1.00  0.00    -0.271 OA
BRANCH  11  14
HETATM   14  C   UNL     1      28.796  44.617  54.490  1.00  0.00     0.036 A 
HETATM   15  C   UNL     1      29.044  45.421  55.605  1.00  0.00     0.055 A 
HETATM   16  C   UNL     1      30.085  45.111  56.492  1.00  0.00     0.058 A 
HETATM   17 CL   UNL     1      30.318  46.157  57.848  1.00  0.00    -0.082 Cl
HETATM   18  C   UNL     1      30.886  43.988  56.268  1.00  0.00     0.055 A 
HETATM   19 CL   UNL     1      32.185  43.548  57.315  1.00  0.00    -0.083 Cl
HETATM   20  C   UNL     1      30.636  43.178  55.160  1.00  0.00     0.028 A 
HETATM   21  C   UNL     1      29.593  43.487  54.279  1.00  0.00     0.031 A 
ENDBRANCH  11  14
ENDBRANCH   9  10
ENDBRANCH   6   9
ENDBRANCH   5   6
ENDBRANCH   1   5
BRANCH   2  22
HETATM   22  C   UNL     1      24.153  47.465  49.295  1.00  0.00     0.071 A 
HETATM   23  C   UNL     1      24.578  48.793  49.104  1.00  0.00     0.096 A 
HETATM   24  C   UNL     1      23.672  49.845  48.901  1.00  0.00     0.054 A 
HETATM   25  C   UNL     1      22.300  49.532  48.856  1.00  0.00     0.014 A 
HETATM   26  C   UNL     1      21.917  48.203  48.994  1.00  0.00     0.089 A 
HETATM   27  C   UNL     1      21.089  50.275  48.715  1.00  0.00     0.011 A 
HETATM   28  O   UNL     1      20.563  48.085  48.918  1.00  0.00    -0.309 OA
HETATM   29  C   UNL     1      22.798  47.140  49.207  1.00  0.00     0.070 A 
HETATM   30  C   UNL     1      20.061  49.339  48.757  1.00  0.00     0.087 A 
HETATM   31  C   UNL     1      18.709  49.659  48.656  1.00  0.00     0.038 A 
HETATM   32  C   UNL     1      18.394  51.014  48.514  1.00  0.00     0.003 A 
HETATM   33  C   UNL     1      19.398  51.987  48.473  1.00  0.00     0.001 A 
HETATM   34  C   UNL     1      20.751  51.634  48.569  1.00  0.00     0.015 A 
BRANCH  23  35
HETATM   35  O   UNL     1      25.935  49.029  49.176  1.00  0.00    -0.354 OA
HETATM   36  C   UNL     1      26.360  49.923  48.144  1.00  0.00     0.210 C 
ENDBRANCH  23  35
ENDBRANCH   2  22
TORSDOF 7
ENDMDL
MODEL 4
REMARK VINA RESULT:      -9.6      1.891      3.044
REMARK  7 active torsions:
REMARK  status: ('A' for Active; 'I' for Inactive)
REMARK    1  A    between atoms: N_2  and  C_4 
REMARK    2  A    between atoms: N_2  and  C_23 
REMARK    3  A    between atoms: C_4  and  C_5 
REMARK       I    between atoms: C_5  and  N_6 
REMARK    4  A    between atoms: N_6  and  C_7 
REMARK    5  A    between atoms: C_8  and  O_9 
REMARK    6  A    between atoms: C_23  and  C_24 
REMARK       I    between atoms: C_24  and  N_25 
REMARK    7  A    between atoms: N_25  and  C_26 
ROOT
HETATM    1  C   UNL     1      26.339  42.912  50.735  1.00  0.00     0.248 C 
HETATM    2  N   UNL     1      26.918  44.048  51.228  1.00  0.00    -0.323 N 
HETATM    3  O   UNL     1      26.022  41.901  51.366  1.00  0.00    -0.271 OA
HETATM    4  H   UNL     1      26.837  44.921  50.707  1.00  0.00     0.169 HD
ENDROOT
BRANCH   1   5
HETATM    5  C   UNL     1      25.984  42.949  49.246  1.00  0.00     0.337 C 
BRANCH   5   6
HETATM    6  N   UNL     1      24.738  42.069  49.019  1.00  0.00    -0.058 N 
HETATM    7  C   UNL     1      24.818  41.275  47.758  1.00  0.00     0.270 C 
HETATM    8  H   UNL     1      24.790  41.402  49.812  1.00  0.00     0.280 HD
BRANCH   6   9
HETATM    9  C   UNL     1      23.413  42.818  49.154  1.00  0.00     0.337 C 
BRANCH   9  10
HETATM   10  C   UNL     1      23.401  44.223  48.543  1.00  0.00     0.248 C 
HETATM   11  N   UNL     1      23.353  45.258  49.457  1.00  0.00    -0.326 N 
HETATM   12  H   UNL     1      23.506  45.050  50.439  1.00  0.00     0.169 HD
HETATM   13  O   UNL     1      23.540  44.345  47.326  1.00  0.00    -0.271 OA
BRANCH  11  14
HETATM   14  C   UNL     1      23.244  46.633  49.146  1.00  0.00     0.036 A 
HETATM   15  C   UNL     1      22.119  47.206  48.548  1.00  0.00     0.055 A 
HETATM   16  C   UNL     1      22.072  48.584  48.287  1.00  0.00     0.058 A 
HETATM   17 CL   UNL     1      20.639  49.208  47.550  1.00  0.00    -0.082 Cl
HETATM   18  C   UNL     1      23.155  49.399  48.625  1.00  0.00     0.055 A 
HETATM   19 CL   UNL     1      23.168  51.098  48.330  1.00  0.00    -0.083 Cl
HETATM   20  C   UNL     1      24.278  48.831  49.229  1.00  0.00     0.028 A 
HETATM   21  C   UNL     1      24.320  47.458  49.494  1.00  0.00     0.031 A 
ENDBRANCH  11  14
ENDBRANCH   9  10
ENDBRANCH   6   9
ENDBRANCH   5   6
ENDBRANCH   1   5
BRANCH   2  22
HETATM   22  C   UNL     1      27.517  44.219  52.496  1.00  0.00     0.071 A 
HETATM   23  C   UNL     1      26.993  45.249  53.300  1.00  0.00     0.096 A 
HETATM   24  C   UNL     1      27.573  45.608  54.525  1.00  0.00     0.054 A 
HETATM   25  C   UNL     1      28.694  44.877  54.963  1.00  0.00     0.014 A 
HETATM   26  C   UNL     1      29.154  43.831  54.172  1.00  0.00     0.089 A 
HETATM   27  C   UNL     1      29.575  44.936  56.084  1.00  0.00     0.011 A 
HETATM   28  O   UNL     1      30.234  43.235  54.748  1.00  0.00    -0.309 OA
HETATM   29  C   UNL     1      28.602  43.461  52.943  1.00  0.00     0.070 A 
HETATM   30  C   UNL     1      30.493  43.908  55.901  1.00  0.00     0.087 A 
HETATM   31  C   UNL     1      31.535  43.625  56.782  1.00  0.00     0.038 A 
HETATM   32  C   UNL     1      31.646  44.449  57.906  1.00  0.00     0.003 A 
HETATM   33  C   UNL     1      30.747  45.497  58.124  1.00  0.00     0.001 A 
HETATM   34  C   UNL     1      29.703  45.753  57.224  1.00  0.00     0.015 A 
BRANCH  23  35
HETATM   35  O   UNL     1      25.903  45.932  52.803  1.00  0.00    -0.354 OA
HETATM   36  C   UNL     1      25.784  47.225  53.404  1.00  0.00     0.210 C 
ENDBRANCH  23  35
ENDBRANCH   2  22
TORSDOF 7
ENDMDL
MODEL 5
REMARK VINA RESULT:      -9.3      4.065     11.223
REMARK  7 active torsions:
REMARK  status: ('A' for Active; 'I' for Inactive)
REMARK    1  A    between atoms: N_2  and  C_4 
REMARK    2  A    between atoms: N_2  and  C_23 
REMARK    3  A    between atoms: C_4  and  C_5 
REMARK       I    between atoms: C_5  and  N_6 
REMARK    4  A    between atoms: N_6  and  C_7 
REMARK    5  A    between atoms: C_8  and  O_9 
REMARK    6  A    between atoms: C_23  and  C_24 
REMARK       I    between atoms: C_24  and  N_25 
REMARK    7  A    between atoms: N_25  and  C_26 
ROOT
HETATM    1  C   UNL     1      22.342  45.272  48.865  1.00  0.00     0.248 C 
HETATM    2  N   UNL     1      22.610  46.576  48.552  1.00  0.00    -0.323 N 
HETATM    3  O   UNL     1      21.236  44.762  49.057  1.00  0.00    -0.271 OA
HETATM    4  H   UNL     1      23.494  46.814  48.103  1.00  0.00     0.169 HD
ENDROOT
BRANCH   1   5
HETATM    5  C   UNL     1      23.559  44.342  48.902  1.00  0.00     0.337 C 
BRANCH   5   6
HETATM    6  N   UNL     1      23.973  44.138  50.373  1.00  0.00    -0.058 N 
HETATM    7  C   UNL     1      24.547  45.373  50.984  1.00  0.00     0.270 C 
HETATM    8  H   UNL     1      23.063  43.954  50.837  1.00  0.00     0.280 HD
BRANCH   6   9
HETATM    9  C   UNL     1      24.848  42.908  50.609  1.00  0.00     0.337 C 
BRANCH   9  10
HETATM   10  C   UNL     1      26.228  43.204  51.208  1.00  0.00     0.248 C 
HETATM   11  N   UNL     1      26.308  43.077  52.582  1.00  0.00    -0.326 N 
HETATM   12  H   UNL     1      25.539  42.638  53.078  1.00  0.00     0.169 HD
HETATM   13  O   UNL     1      27.172  43.423  50.450  1.00  0.00    -0.271 OA
BRANCH  11  14
HETATM   14  C   UNL     1      27.438  43.378  53.377  1.00  0.00     0.036 A 
HETATM   15  C   UNL     1      27.657  44.624  53.972  1.00  0.00     0.055 A 
HETATM   16  C   UNL     1      28.791  44.846  54.767  1.00  0.00     0.058 A 
HETATM   17 CL   UNL     1      28.979  46.415  55.469  1.00  0.00    -0.082 Cl
HETATM   18  C   UNL     1      29.717  43.820  54.971  1.00  0.00     0.055 A 
HETATM   19 CL   UNL     1      31.135  44.024  55.932  1.00  0.00    -0.083 Cl
HETATM   20  C   UNL     1      29.498  42.573  54.384  1.00  0.00     0.028 A 
HETATM   21  C   UNL     1      28.362  42.351  53.597  1.00  0.00     0.031 A 
ENDBRANCH  11  14
ENDBRANCH   9  10
ENDBRANCH   6   9
ENDBRANCH   5   6
ENDBRANCH   1   5
BRANCH   2  22
HETATM   22  C   UNL     1      21.724  47.673  48.637  1.00  0.00     0.071 A 
HETATM   23  C   UNL     1      22.245  48.854  49.197  1.00  0.00     0.096 A 
HETATM   24  C   UNL     1      21.443  49.975  49.454  1.00  0.00     0.054 A 
HETATM   25  C   UNL     1      20.082  49.907  49.101  1.00  0.00     0.014 A 
HETATM   26  C   UNL     1      19.610  48.745  48.501  1.00  0.00     0.089 A 
HETATM   27  C   UNL     1      18.953  50.772  49.220  1.00  0.00     0.011 A 
HETATM   28  O   UNL     1      18.282  48.856  48.223  1.00  0.00    -0.309 OA
HETATM   29  C   UNL     1      20.385  47.612  48.244  1.00  0.00     0.070 A 
HETATM   30  C   UNL     1      17.882  50.079  48.665  1.00  0.00     0.087 A 
HETATM   31  C   UNL     1      16.584  50.578  48.588  1.00  0.00     0.038 A 
HETATM   32  C   UNL     1      16.371  51.855  49.119  1.00  0.00     0.003 A 
HETATM   33  C   UNL     1      17.419  52.582  49.691  1.00  0.00     0.001 A 
HETATM   34  C   UNL     1      18.718  52.056  49.747  1.00  0.00     0.015 A 
BRANCH  23  35
HETATM   35  O   UNL     1      23.583  48.846  49.531  1.00  0.00    -0.354 OA
HETATM   36  C   UNL     1      24.341  49.685  48.654  1.00  0.00     0.210 C 
ENDBRANCH  23  35
ENDBRANCH   2  22
TORSDOF 7
ENDMDL
MODEL 6
REMARK VINA RESULT:      -9.2      1.856      3.282
REMARK  7 active torsions:
REMARK  status: ('A' for Active; 'I' for Inactive)
REMARK    1  A    between atoms: N_2  and  C_4 
REMARK    2  A    between atoms: N_2  and  C_23 
REMARK    3  A    between atoms: C_4  and  C_5 
REMARK       I    between atoms: C_5  and  N_6 
REMARK    4  A    between atoms: N_6  and  C_7 
REMARK    5  A    between atoms: C_8  and  O_9 
REMARK    6  A    between atoms: C_23  and  C_24 
REMARK       I    between atoms: C_24  and  N_25 
REMARK    7  A    between atoms: N_25  and  C_26 
ROOT
HETATM    1  C   UNL     1      23.527  43.434  49.913  1.00  0.00     0.248 C 
HETATM    2  N   UNL     1      24.776  43.989  49.948  1.00  0.00    -0.323 N 
HETATM    3  O   UNL     1      22.809  43.148  50.875  1.00  0.00    -0.271 OA
HETATM    4  H   UNL     1      25.134  44.476  49.127  1.00  0.00     0.169 HD
ENDROOT
BRANCH   1   5
HETATM    5  C   UNL     1      22.941  43.222  48.514  1.00  0.00     0.337 C 
BRANCH   5   6
HETATM    6  N   UNL     1      21.988  44.392  48.201  1.00  0.00    -0.058 N 
HETATM    7  C   UNL     1      21.342  44.264  46.861  1.00  0.00     0.270 C 
HETATM    8  H   UNL     1      21.246  44.272  48.917  1.00  0.00     0.280 HD
BRANCH   6   9
HETATM    9  C   UNL     1      22.601  45.773  48.423  1.00  0.00     0.337 C 
BRANCH   9  10
HETATM   10  C   UNL     1      21.652  46.949  48.165  1.00  0.00     0.248 C 
HETATM   11  N   UNL     1      20.626  47.083  49.080  1.00  0.00    -0.326 N 
HETATM   12  H   UNL     1      20.658  46.537  49.935  1.00  0.00     0.169 HD
HETATM   13  O   UNL     1      21.914  47.738  47.258  1.00  0.00    -0.271 OA
BRANCH  11  14
HETATM   14  C   UNL     1      19.575  48.027  49.014  1.00  0.00     0.036 A 
HETATM   15  C   UNL     1      19.681  49.339  49.484  1.00  0.00     0.055 A 
HETATM   16  C   UNL     1      18.603  50.229  49.367  1.00  0.00     0.058 A 
HETATM   17 CL   UNL     1      18.823  51.834  49.969  1.00  0.00    -0.082 Cl
HETATM   18  C   UNL     1      17.408  49.809  48.776  1.00  0.00     0.055 A 
HETATM   19 CL   UNL     1      16.041  50.847  48.603  1.00  0.00    -0.083 Cl
HETATM   20  C   UNL     1      17.301  48.502  48.300  1.00  0.00     0.028 A 
HETATM   21  C   UNL     1      18.380  47.618  48.412  1.00  0.00     0.031 A 
ENDBRANCH  11  14
ENDBRANCH   9  10
ENDBRANCH   6   9
ENDBRANCH   5   6
ENDBRANCH   1   5
BRANCH   2  22
HETATM   22  C   UNL     1      25.623  44.114  51.073  1.00  0.00     0.071 A 
HETATM   23  C   UNL     1      25.561  45.337  51.767  1.00  0.00     0.096 A 
HETATM   24  C   UNL     1      26.434  45.640  52.822  1.00  0.00     0.054 A 
HETATM   25  C   UNL     1      27.370  44.662  53.205  1.00  0.00     0.014 A 
HETATM   26  C   UNL     1      27.369  43.444  52.535  1.00  0.00     0.089 A 
HETATM   27  C   UNL     1      28.424  44.579  54.163  1.00  0.00     0.011 A 
HETATM   28  O   UNL     1      28.329  42.620  53.038  1.00  0.00    -0.309 OA
HETATM   29  C   UNL     1      26.519  43.121  51.475  1.00  0.00     0.070 A 
HETATM   30  C   UNL     1      28.973  43.310  54.018  1.00  0.00     0.087 A 
HETATM   31  C   UNL     1      30.041  42.828  54.773  1.00  0.00     0.038 A 
HETATM   32  C   UNL     1      30.581  43.702  55.722  1.00  0.00     0.003 A 
HETATM   33  C   UNL     1      30.062  44.988  55.895  1.00  0.00     0.001 A 
HETATM   34  C   UNL     1      28.982  45.443  55.126  1.00  0.00     0.015 A 
BRANCH  23  35
HETATM   35  O   UNL     1      24.630  46.254  51.329  1.00  0.00    -0.354 OA
HETATM   36  C   UNL     1      25.262  47.367  50.689  1.00  0.00     0.210 C 
ENDBRANCH  23  35
ENDBRANCH   2  22
TORSDOF 7
ENDMDL
MODEL 7
REMARK VINA RESULT:      -9.1      5.195      7.272
REMARK  7 active torsions:
REMARK  status: ('A' for Active; 'I' for Inactive)
REMARK    1  A    between atoms: N_2  and  C_4 
REMARK    2  A    between atoms: N_2  and  C_23 
REMARK    3  A    between atoms: C_4  and  C_5 
REMARK       I    between atoms: C_5  and  N_6 
REMARK    4  A    between atoms: N_6  and  C_7 
REMARK    5  A    between atoms: C_8  and  O_9 
REMARK    6  A    between atoms: C_23  and  C_24 
REMARK       I    between atoms: C_24  and  N_25 
REMARK    7  A    between atoms: N_25  and  C_26 
ROOT
HETATM    1  C   UNL     1      25.443  44.998  50.238  1.00  0.00     0.248 C 
HETATM    2  N   UNL     1      25.519  44.356  51.443  1.00  0.00    -0.323 N 
HETATM    3  O   UNL     1      26.378  45.448  49.571  1.00  0.00    -0.271 OA
HETATM    4  H   UNL     1      24.753  43.752  51.740  1.00  0.00     0.169 HD
ENDROOT
BRANCH   1   5
HETATM    5  C   UNL     1      24.040  45.093  49.631  1.00  0.00     0.337 C 
BRANCH   5   6
HETATM    6  N   UNL     1      23.895  43.993  48.562  1.00  0.00    -0.058 N 
HETATM    7  C   UNL     1      23.096  44.439  47.383  1.00  0.00     0.270 C 
HETATM    8  H   UNL     1      24.874  43.862  48.243  1.00  0.00     0.280 HD
BRANCH   6   9
HETATM    9  C   UNL     1      23.423  42.647  49.111  1.00  0.00     0.337 C 
BRANCH   9  10
HETATM   10  C   UNL     1      24.057  41.421  48.445  1.00  0.00     0.248 C 
HETATM   11  N   UNL     1      25.396  41.231  48.726  1.00  0.00    -0.326 N 
HETATM   12  H   UNL     1      25.823  41.778  49.468  1.00  0.00     0.169 HD
HETATM   13  O   UNL     1      23.339  40.648  47.811  1.00  0.00    -0.271 OA
BRANCH  11  14
HETATM   14  C   UNL     1      26.226  40.230  48.169  1.00  0.00     0.036 A 
HETATM   15  C   UNL     1      26.253  38.907  48.617  1.00  0.00     0.055 A 
HETATM   16  C   UNL     1      27.087  37.961  48.003  1.00  0.00     0.058 A 
HETATM   17 CL   UNL     1      27.052  36.347  48.618  1.00  0.00    -0.082 Cl
HETATM   18  C   UNL     1      27.902  38.336  46.932  1.00  0.00     0.055 A 
HETATM   19 CL   UNL     1      28.955  37.228  46.132  1.00  0.00    -0.083 Cl
HETATM   20  C   UNL     1      27.873  39.655  46.477  1.00  0.00     0.028 A 
HETATM   21  C   UNL     1      27.035  40.595  47.087  1.00  0.00     0.031 A 
ENDBRANCH  11  14
ENDBRANCH   9  10
ENDBRANCH   6   9
ENDBRANCH   5   6
ENDBRANCH   1   5
BRANCH   2  22
HETATM   22  C   UNL     1      26.634  44.297  52.309  1.00  0.00     0.071 A 
HETATM   23  C   UNL     1      27.482  43.184  52.157  1.00  0.00     0.096 A 
HETATM   24  C   UNL     1      28.551  42.936  53.030  1.00  0.00     0.054 A 
HETATM   25  C   UNL     1      28.786  43.863  54.064  1.00  0.00     0.014 A 
HETATM   26  C   UNL     1      27.964  44.980  54.153  1.00  0.00     0.089 A 
HETATM   27  C   UNL     1      29.706  43.966  55.150  1.00  0.00     0.011 A 
HETATM   28  O   UNL     1      28.337  45.766  55.200  1.00  0.00    -0.309 OA
HETATM   29  C   UNL     1      26.887  45.244  53.304  1.00  0.00     0.070 A 
HETATM   30  C   UNL     1      29.387  45.149  55.808  1.00  0.00     0.087 A 
HETATM   31  C   UNL     1      30.052  45.620  56.938  1.00  0.00     0.038 A 
HETATM   32  C   UNL     1      31.097  44.828  57.425  1.00  0.00     0.003 A 
HETATM   33  C   UNL     1      31.445  43.629  56.796  1.00  0.00     0.001 A 
HETATM   34  C   UNL     1      30.762  43.184  55.656  1.00  0.00     0.015 A 
BRANCH  23  35
HETATM   35  O   UNL     1      27.184  42.310  51.133  1.00  0.00    -0.354 OA
HETATM   36  C   UNL     1      28.122  41.230  51.085  1.00  0.00     0.210 C 
ENDBRANCH  23  35
ENDBRANCH   2  22
TORSDOF 7
ENDMDL
MODEL 8
REMARK VINA RESULT:      -8.9      1.578      2.065
REMARK  7 active torsions:
REMARK  status: ('A' for Active; 'I' for Inactive)
REMARK    1  A    between atoms: N_2  and  C_4 
REMARK    2  A    between atoms: N_2  and  C_23 
REMARK    3  A    between atoms: C_4  and  C_5 
REMARK       I    between atoms: C_5  and  N_6 
REMARK    4  A    between atoms: N_6  and  C_7 
REMARK    5  A    between atoms: C_8  and  O_9 
REMARK    6  A    between atoms: C_23  and  C_24 
REMARK       I    between atoms: C_24  and  N_25 
REMARK    7  A    between atoms: N_25  and  C_26 
ROOT
HETATM    1  C   UNL     1      24.089  44.373  50.163  1.00  0.00     0.248 C 
HETATM    2  N   UNL     1      25.390  44.776  50.045  1.00  0.00    -0.323 N 
HETATM    3  O   UNL     1      23.510  44.009  51.190  1.00  0.00    -0.271 OA
HETATM    4  H   UNL     1      25.668  45.352  49.250  1.00  0.00     0.169 HD
ENDROOT
BRANCH   1   5
HETATM    5  C   UNL     1      23.254  44.461  48.882  1.00  0.00     0.337 C 
BRANCH   5   6
HETATM    6  N   UNL     1      22.212  45.583  49.054  1.00  0.00    -0.058 N 
HETATM    7  C   UNL     1      20.813  45.105  48.849  1.00  0.00     0.270 C 
HETATM    8  H   UNL     1      22.313  45.829  50.057  1.00  0.00     0.280 HD
BRANCH   6   9
HETATM    9  C   UNL     1      22.519  46.848  48.254  1.00  0.00     0.337 C 
BRANCH   9  10
HETATM   10  C   UNL     1      21.799  48.110  48.742  1.00  0.00     0.248 C 
HETATM   11  N   UNL     1      20.522  48.283  48.245  1.00  0.00    -0.326 N 
HETATM   12  H   UNL     1      20.079  47.513  47.754  1.00  0.00     0.169 HD
HETATM   13  O   UNL     1      22.338  48.810  49.599  1.00  0.00    -0.271 OA
BRANCH  11  14
HETATM   14  C   UNL     1      19.689  49.404  48.472  1.00  0.00     0.036 A 
HETATM   15  C   UNL     1      18.296  49.367  48.370  1.00  0.00     0.055 A 
HETATM   16  C   UNL     1      17.531  50.514  48.630  1.00  0.00     0.058 A 
HETATM   17 CL   UNL     1      15.814  50.377  48.485  1.00  0.00    -0.082 Cl
HETATM   18  C   UNL     1      18.157  51.708  48.995  1.00  0.00     0.055 A 
HETATM   19 CL   UNL     1      17.280  53.156  49.325  1.00  0.00    -0.083 Cl
HETATM   20  C   UNL     1      19.548  51.746  49.105  1.00  0.00     0.028 A 
HETATM   21  C   UNL     1      20.309  50.599  48.851  1.00  0.00     0.031 A 
ENDBRANCH  11  14
ENDBRANCH   9  10
ENDBRANCH   6   9
ENDBRANCH   5   6
ENDBRANCH   1   5
BRANCH   2  22
HETATM   22  C   UNL     1      26.421  44.619  50.998  1.00  0.00     0.071 A 
HETATM   23  C   UNL     1      27.331  43.571  50.765  1.00  0.00     0.096 A 
HETATM   24  C   UNL     1      28.325  43.226  51.692  1.00  0.00     0.054 A 
HETATM   25  C   UNL     1      28.420  43.989  52.871  1.00  0.00     0.014 A 
HETATM   26  C   UNL     1      27.541  45.052  53.046  1.00  0.00     0.089 A 
HETATM   27  C   UNL     1      29.229  43.954  54.046  1.00  0.00     0.011 A 
HETATM   28  O   UNL     1      27.778  45.679  54.231  1.00  0.00    -0.309 OA
HETATM   29  C   UNL     1      26.536  45.409  52.144  1.00  0.00     0.070 A 
HETATM   30  C   UNL     1      28.794  45.010  54.840  1.00  0.00     0.087 A 
HETATM   31  C   UNL     1      29.329  45.323  56.088  1.00  0.00     0.038 A 
HETATM   32  C   UNL     1      30.360  44.498  56.551  1.00  0.00     0.003 A 
HETATM   33  C   UNL     1      30.822  43.423  55.787  1.00  0.00     0.001 A 
HETATM   34  C   UNL     1      30.269  43.138  54.530  1.00  0.00     0.015 A 
BRANCH  23  35
HETATM   35  O   UNL     1      27.171  42.856  49.596  1.00  0.00    -0.354 OA
HETATM   36  C   UNL     1      27.430  41.464  49.802  1.00  0.00     0.210 C 
ENDBRANCH  23  35
ENDBRANCH   2  22
TORSDOF 7
ENDMDL
MODEL 9
REMARK VINA RESULT:      -8.8      2.605      5.132
REMARK  7 active torsions:
REMARK  status: ('A' for Active; 'I' for Inactive)
REMARK    1  A    between atoms: N_2  and  C_4 
REMARK    2  A    between atoms: N_2  and  C_23 
REMARK    3  A    between atoms: C_4  and  C_5 
REMARK       I    between atoms: C_5  and  N_6 
REMARK    4  A    between atoms: N_6  and  C_7 
REMARK    5  A    between atoms: C_8  and  O_9 
REMARK    6  A    between atoms: C_23  and  C_24 
REMARK       I    between atoms: C_24  and  N_25 
REMARK    7  A    between atoms: N_25  and  C_26 
ROOT
HETATM    1  C   UNL     1      25.185  45.448  51.447  1.00  0.00     0.248 C 
HETATM    2  N   UNL     1      26.431  45.042  51.058  1.00  0.00    -0.323 N 
HETATM    3  O   UNL     1      24.279  44.746  51.904  1.00  0.00    -0.271 OA
HETATM    4  H   UNL     1      27.190  45.722  51.010  1.00  0.00     0.169 HD
ENDROOT
BRANCH   1   5
HETATM    5  C   UNL     1      24.931  46.956  51.368  1.00  0.00     0.337 C 
BRANCH   5   6
HETATM    6  N   UNL     1      23.895  47.220  50.258  1.00  0.00    -0.058 N 
HETATM    7  C   UNL     1      23.772  46.079  49.303  1.00  0.00     0.270 C 
HETATM    8  H   UNL     1      23.007  47.277  50.792  1.00  0.00     0.280 HD
BRANCH   6   9
HETATM    9  C   UNL     1      24.072  48.560  49.546  1.00  0.00     0.337 C 
BRANCH   9  10
HETATM   10  C   UNL     1      22.829  49.065  48.803  1.00  0.00     0.248 C 
HETATM   11  N   UNL     1      21.881  49.677  49.600  1.00  0.00    -0.326 N 
HETATM   12  H   UNL     1      22.125  49.914  50.557  1.00  0.00     0.169 HD
HETATM   13  O   UNL     1      22.800  48.995  47.575  1.00  0.00    -0.271 OA
BRANCH  11  14
HETATM   14  C   UNL     1      20.617  50.144  49.172  1.00  0.00     0.036 A 
HETATM   15  C   UNL     1      19.481  49.335  49.082  1.00  0.00     0.055 A 
HETATM   16  C   UNL     1      18.253  49.871  48.668  1.00  0.00     0.058 A 
HETATM   17 CL   UNL     1      16.899  48.799  48.590  1.00  0.00    -0.082 Cl
HETATM   18  C   UNL     1      18.153  51.226  48.343  1.00  0.00     0.055 A 
HETATM   19 CL   UNL     1      16.677  51.952  47.824  1.00  0.00    -0.083 Cl
HETATM   20  C   UNL     1      19.283  52.039  48.439  1.00  0.00     0.028 A 
HETATM   21  C   UNL     1      20.506  51.503  48.857  1.00  0.00     0.031 A 
ENDBRANCH  11  14
ENDBRANCH   9  10
ENDBRANCH   6   9
ENDBRANCH   5   6
ENDBRANCH   1   5
BRANCH   2  22
HETATM   22  C   UNL     1      26.868  43.715  50.845  1.00  0.00     0.071 A 
HETATM   23  C   UNL     1      27.561  43.108  51.910  1.00  0.00     0.096 A 
HETATM   24  C   UNL     1      28.156  41.844  51.789  1.00  0.00     0.054 A 
HETATM   25  C   UNL     1      28.014  41.163  50.566  1.00  0.00     0.014 A 
HETATM   26  C   UNL     1      27.279  41.767  49.552  1.00  0.00     0.089 A 
HETATM   27  C   UNL     1      28.477  39.925  50.028  1.00  0.00     0.011 A 
HETATM   28  O   UNL     1      27.240  40.969  48.449  1.00  0.00    -0.309 OA
HETATM   29  C   UNL     1      26.685  43.028  49.643  1.00  0.00     0.070 A 
HETATM   30  C   UNL     1      27.971  39.858  48.735  1.00  0.00     0.087 A 
HETATM   31  C   UNL     1      28.198  38.797  47.860  1.00  0.00     0.038 A 
HETATM   32  C   UNL     1      28.996  37.753  48.337  1.00  0.00     0.003 A 
HETATM   33  C   UNL     1      29.529  37.784  49.629  1.00  0.00     0.001 A 
HETATM   34  C   UNL     1      29.277  38.862  50.489  1.00  0.00     0.015 A 
BRANCH  23  35
HETATM   35  O   UNL     1      27.673  43.838  53.075  1.00  0.00    -0.354 OA
HETATM   36  C   UNL     1      27.343  43.043  54.218  1.00  0.00     0.210 C 
ENDBRANCH  23  35
ENDBRANCH   2  22
TORSDOF 7
ENDMDL
MODEL 10
REMARK VINA RESULT:      -8.8      6.138     10.579
REMARK  7 active torsions:
REMARK  status: ('A' for Active; 'I' for Inactive)
REMARK    1  A    between atoms: N_2  and  C_4 
REMARK    2  A    between atoms: N_2  and  C_23 
REMARK    3  A    between atoms: C_4  and  C_5 
REMARK       I    between atoms: C_5  and  N_6 
REMARK    4  A    between atoms: N_6  and  C_7 
REMARK    5  A    between atoms: C_8  and  O_9 
REMARK    6  A    between atoms: C_23  and  C_24 
REMARK       I    between atoms: C_24  and  N_25 
REMARK    7  A    between atoms: N_25  and  C_26 
ROOT
HETATM    1  C   UNL     1      26.880  41.326  50.699  1.00  0.00     0.248 C 
HETATM    2  N   UNL     1      27.999  41.008  49.981  1.00  0.00    -0.323 N 
HETATM    3  O   UNL     1      25.821  40.696  50.749  1.00  0.00    -0.271 OA
HETATM    4  H   UNL     1      28.901  41.397  50.257  1.00  0.00     0.169 HD
ENDROOT
BRANCH   1   5
HETATM    5  C   UNL     1      27.001  42.566  51.589  1.00  0.00     0.337 C 
BRANCH   5   6
HETATM    6  N   UNL     1      25.631  43.272  51.633  1.00  0.00    -0.058 N 
HETATM    7  C   UNL     1      25.270  43.908  50.332  1.00  0.00     0.270 C 
HETATM    8  H   UNL     1      24.978  42.480  51.785  1.00  0.00     0.280 HD
BRANCH   6   9
HETATM    9  C   UNL     1      25.457  44.224  52.816  1.00  0.00     0.337 C 
BRANCH   9  10
HETATM   10  C   UNL     1      26.433  43.995  53.976  1.00  0.00     0.248 C 
HETATM   11  N   UNL     1      27.669  44.594  53.826  1.00  0.00    -0.326 N 
HETATM   12  H   UNL     1      27.797  45.272  53.081  1.00  0.00     0.169 HD
HETATM   13  O   UNL     1      26.037  43.406  54.981  1.00  0.00    -0.271 OA
BRANCH  11  14
HETATM   14  C   UNL     1      28.766  44.462  54.709  1.00  0.00     0.036 A 
HETATM   15  C   UNL     1      29.006  45.325  55.781  1.00  0.00     0.055 A 
HETATM   16  C   UNL     1      30.105  45.121  56.630  1.00  0.00     0.058 A 
HETATM   17 CL   UNL     1      30.323  46.233  57.934  1.00  0.00    -0.082 Cl
HETATM   18  C   UNL     1      30.972  44.048  56.409  1.00  0.00     0.055 A 
HETATM   19 CL   UNL     1      32.343  43.740  57.409  1.00  0.00    -0.083 Cl
HETATM   20  C   UNL     1      30.731  43.180  55.343  1.00  0.00     0.028 A 
HETATM   21  C   UNL     1      29.631  43.382  54.502  1.00  0.00     0.031 A 
ENDBRANCH  11  14
ENDBRANCH   9  10
ENDBRANCH   6   9
ENDBRANCH   5   6
ENDBRANCH   1   5
BRANCH   2  22
HETATM   22  C   UNL     1      28.107  40.049  48.949  1.00  0.00     0.071 A 
HETATM   23  C   UNL     1      28.735  38.836  49.288  1.00  0.00     0.096 A 
HETATM   24  C   UNL     1      29.018  37.850  48.332  1.00  0.00     0.054 A 
HETATM   25  C   UNL     1      28.621  38.088  47.002  1.00  0.00     0.014 A 
HETATM   26  C   UNL     1      27.955  39.273  46.710  1.00  0.00     0.089 A 
HETATM   27  C   UNL     1      28.745  37.394  45.761  1.00  0.00     0.011 A 
HETATM   28  O   UNL     1      27.642  39.333  45.387  1.00  0.00    -0.309 OA
HETATM   29  C   UNL     1      27.671  40.275  47.641  1.00  0.00     0.070 A 
HETATM   30  C   UNL     1      28.127  38.199  44.811  1.00  0.00     0.087 A 
HETATM   31  C   UNL     1      28.033  37.880  43.458  1.00  0.00     0.038 A 
HETATM   32  C   UNL     1      28.615  36.673  43.057  1.00  0.00     0.003 A 
HETATM   33  C   UNL     1      29.251  35.838  43.980  1.00  0.00     0.001 A 
HETATM   34  C   UNL     1      29.323  36.182  45.337  1.00  0.00     0.015 A 
BRANCH  23  35
HETATM   35  O   UNL     1      29.109  38.676  50.605  1.00  0.00    -0.354 OA
HETATM   36  C   UNL     1      29.941  37.524  50.770  1.00  0.00     0.210 C 
ENDBRANCH  23  35
ENDBRANCH   2  22
TORSDOF 7
ENDMDL
