MODEL 1
REMARK VINA RESULT:     -10.1      0.000      0.000
REMARK  8 active torsions:
REMARK  status: ('A' for Active; 'I' for Inactive)
REMARK    1  A    between atoms: C_4  and  O_5 
REMARK    2  A    between atoms: O_5  and  C_6 
REMARK    3  A    between atoms: C_8  and  C_9 
REMARK    4  A    between atoms: C_9  and  N_10 
REMARK    5  A    between atoms: C_9  and  C_14 
REMARK       I    between atoms: N_10  and  C_11 
REMARK       I    between atoms: C_11  and  N_12 
REMARK    6  A    between atoms: C_14  and  C_15 
REMARK       I    between atoms: C_15  and  N_16 
REMARK    7  A    between atoms: N_16  and  N_17 
REMARK       I    between atoms: N_17  and  C_18 
REMARK    8  A    between atoms: C_18  and  C_19 
ROOT
HETATM    1  C   UNL     1      25.915  46.727  50.386  1.00  0.00     0.128 C 
ENDROOT
BRANCH   1   2
HETATM    2  C   UNL     1      26.096  48.005  49.571  1.00  0.00    -0.032 A 
HETATM    3  C   UNL     1      25.046  48.594  48.845  1.00  0.00     0.046 A 
HETATM    4  C   UNL     1      25.248  49.763  48.106  1.00  0.00     0.076 A 
HETATM    5  C   UNL     1      26.492  50.394  48.117  1.00  0.00     0.037 A 
HETATM    6  C   UNL     1      27.550  49.813  48.811  1.00  0.00     0.003 A 
HETATM    7  C   UNL     1      27.359  48.624  49.518  1.00  0.00     0.009 A 
BRANCH   4   8
HETATM    8  O   UNL     1      24.147  50.274  47.457  1.00  0.00    -0.311 OA
BRANCH   8   9
HETATM    9  C   UNL     1      22.959  50.360  48.148  1.00  0.00     0.076 A 
HETATM   10  C   UNL     1      22.835  50.985  49.392  1.00  0.00     0.037 A 
HETATM   11  C   UNL     1      21.584  51.058  50.009  1.00  0.00     0.003 A 
HETATM   12  C   UNL     1      20.459  50.530  49.375  1.00  0.00     0.000 A 
HETATM   13  C   UNL     1      20.579  49.936  48.119  1.00  0.00     0.003 A 
HETATM   14  C   UNL     1      21.829  49.856  47.503  1.00  0.00     0.037 A 
ENDBRANCH   8   9
ENDBRANCH   4   8
ENDBRANCH   1   2
BRANCH   1  15
HETATM   15  N   UNL     1      25.427  45.607  49.589  1.00  0.00    -0.334 N 
HETATM   16  C   UNL     1      26.171  44.475  49.448  1.00  0.00     0.314 C 
HETATM   17  N   UNL     1      25.500  43.502  48.783  1.00  0.00    -0.352 N 
HETATM   18  O   UNL     1      27.312  44.316  49.852  1.00  0.00    -0.248 OA
HETATM   19  H   UNL     1      24.850  43.800  48.070  1.00  0.00     0.160 HD
HETATM   20  H   UNL     1      26.069  42.700  48.546  1.00  0.00     0.160 HD
HETATM   21  H   UNL     1      24.432  45.423  49.676  1.00  0.00     0.165 HD
ENDBRANCH   1  15
BRANCH   1  22
HETATM   22  C   UNL     1      25.027  46.940  51.624  1.00  0.00     0.134 C 
BRANCH  22  23
HETATM   23  C   UNL     1      25.795  46.659  52.898  1.00  0.00     0.238 C 
HETATM   24  N   UNL     1      26.522  45.486  52.875  1.00  0.00    -0.267 N 
HETATM   25  H   UNL     1      26.820  45.072  51.993  1.00  0.00     0.190 HD
HETATM   26  O   UNL     1      25.756  47.412  53.872  1.00  0.00    -0.272 OA
BRANCH  24  27
HETATM   27  N   UNL     1      27.375  45.240  53.955  1.00  0.00    -0.262 N 
HETATM   28  C   UNL     1      28.428  44.362  53.786  1.00  0.00     0.288 C 
HETATM   29  O   UNL     1      28.568  43.657  52.790  1.00  0.00    -0.264 OA
HETATM   30  H   UNL     1      27.404  45.923  54.716  1.00  0.00     0.190 HD
BRANCH  28  31
HETATM   31  C   UNL     1      29.394  44.344  54.929  1.00  0.00     0.125 A 
HETATM   32  N   UNL     1      29.349  45.412  55.773  1.00  0.00    -0.255 NA
HETATM   33  C   UNL     1      30.208  45.394  56.813  1.00  0.00     0.117 A 
HETATM   34  C   UNL     1      31.110  44.368  57.050  1.00  0.00     0.019 A 
HETATM   35  C   UNL     1      31.137  43.289  56.169  1.00  0.00     0.004 A 
HETATM   36  C   UNL     1      30.265  43.272  55.085  1.00  0.00     0.037 A 
ENDBRANCH  28  31
ENDBRANCH  24  27
ENDBRANCH  22  23
ENDBRANCH   1  22
TORSDOF 8
ENDMDL
MODEL 2
REMARK VINA RESULT:      -9.6      2.569      9.581
REMARK  8 active torsions:
REMARK  status: ('A' for Active; 'I' for Inactive)
REMARK    1  A    between atoms: C_4  and  O_5 
REMARK    2  A    between atoms: O_5  and  C_6 
REMARK    3  A    between atoms: C_8  and  C_9 
REMARK    4  A    between atoms: C_9  and  N_10 
REMARK    5  A    between atoms: C_9  and  C_14 
REMARK       I    between atoms: N_10  and  C_11 
REMARK       I    between atoms: C_11  and  N_12 
REMARK    6  A    between atoms: C_14  and  C_15 
REMARK       I    between atoms: C_15  and  N_16 
REMARK    7  A    between atoms: N_16  and  N_17 
REMARK       I    between atoms: N_17  and  C_18 
REMARK    8  A    between atoms: C_18  and  C_19 
ROOT
HETATM    1  C   UNL     1      25.534  45.221  50.652  1.00  0.00     0.128 C 
ENDROOT
BRANCH   1   2
HETATM    2  C   UNL     1      26.050  44.752  52.009  1.00  0.00    -0.032 A 
HETATM    3  C   UNL     1      27.410  44.496  52.254  1.00  0.00     0.046 A 
HETATM    4  C   UNL     1      27.848  44.064  53.509  1.00  0.00     0.076 A 
HETATM    5  C   UNL     1      26.940  43.923  54.558  1.00  0.00     0.037 A 
HETATM    6  C   UNL     1      25.585  44.149  54.329  1.00  0.00     0.003 A 
HETATM    7  C   UNL     1      25.143  44.544  53.065  1.00  0.00     0.009 A 
BRANCH   4   8
HETATM    8  O   UNL     1      29.204  43.873  53.651  1.00  0.00    -0.311 OA
BRANCH   8   9
HETATM    9  C   UNL     1      29.766  44.051  54.895  1.00  0.00     0.076 A 
HETATM   10  C   UNL     1      30.627  43.126  55.492  1.00  0.00     0.037 A 
HETATM   11  C   UNL     1      31.180  43.402  56.744  1.00  0.00     0.003 A 
HETATM   12  C   UNL     1      30.893  44.608  57.386  1.00  0.00     0.000 A 
HETATM   13  C   UNL     1      30.059  45.544  56.774  1.00  0.00     0.003 A 
HETATM   14  C   UNL     1      29.500  45.268  55.526  1.00  0.00     0.037 A 
ENDBRANCH   8   9
ENDBRANCH   4   8
ENDBRANCH   1   2
BRANCH   1  15
HETATM   15  N   UNL     1      25.510  44.159  49.652  1.00  0.00    -0.334 N 
HETATM   16  C   UNL     1      24.413  43.964  48.869  1.00  0.00     0.314 C 
HETATM   17  N   UNL     1      24.626  43.021  47.918  1.00  0.00    -0.352 N 
HETATM   18  O   UNL     1      23.345  44.545  48.979  1.00  0.00    -0.248 OA
HETATM   19  H   UNL     1      25.245  42.261  48.159  1.00  0.00     0.160 HD
HETATM   20  H   UNL     1      23.793  42.758  47.407  1.00  0.00     0.160 HD
HETATM   21  H   UNL     1      26.385  44.019  49.157  1.00  0.00     0.165 HD
ENDBRANCH   1  15
BRANCH   1  22
HETATM   22  C   UNL     1      26.301  46.446  50.124  1.00  0.00     0.134 C 
BRANCH  22  23
HETATM   23  C   UNL     1      25.363  47.608  49.875  1.00  0.00     0.238 C 
HETATM   24  N   UNL     1      24.026  47.298  50.016  1.00  0.00    -0.267 N 
HETATM   25  H   UNL     1      23.728  46.512  50.592  1.00  0.00     0.190 HD
HETATM   26  O   UNL     1      25.768  48.727  49.559  1.00  0.00    -0.272 OA
BRANCH  24  27
HETATM   27  N   UNL     1      23.112  48.355  49.953  1.00  0.00    -0.262 N 
HETATM   28  C   UNL     1      22.343  48.505  48.816  1.00  0.00     0.288 C 
HETATM   29  O   UNL     1      22.527  47.862  47.786  1.00  0.00    -0.264 OA
HETATM   30  H   UNL     1      22.806  48.784  50.830  1.00  0.00     0.190 HD
BRANCH  28  31
HETATM   31  C   UNL     1      21.256  49.525  48.947  1.00  0.00     0.125 A 
HETATM   32  N   UNL     1      20.139  49.132  49.620  1.00  0.00    -0.255 NA
HETATM   33  C   UNL     1      19.162  50.053  49.753  1.00  0.00     0.117 A 
HETATM   34  C   UNL     1      19.242  51.341  49.246  1.00  0.00     0.019 A 
HETATM   35  C   UNL     1      20.394  51.715  48.558  1.00  0.00     0.004 A 
HETATM   36  C   UNL     1      21.425  50.793  48.402  1.00  0.00     0.037 A 
ENDBRANCH  28  31
ENDBRANCH  24  27
ENDBRANCH  22  23
ENDBRANCH   1  22
TORSDOF 8
ENDMDL
MODEL 3
REMARK VINA RESULT:      -9.5      2.609      9.511
REMARK  8 active torsions:
REMARK  status: ('A' for Active; 'I' for Inactive)
REMARK    1  A    between atoms: C_4  and  O_5 
REMARK    2  A    between atoms: O_5  and  C_6 
REMARK    3  A    between atoms: C_8  and  C_9 
REMARK    4  A    between atoms: C_9  and  N_10 
REMARK    5  A    between atoms: C_9  and  C_14 
REMARK       I    between atoms: N_10  and  C_11 
REMARK       I    between atoms: C_11  and  N_12 
REMARK    6  A    between atoms: C_14  and  C_15 
REMARK       I    between atoms: C_15  and  N_16 
REMARK    7  A    between atoms: N_16  and  N_17 
REMARK       I    between atoms: N_17  and  C_18 
REMARK    8  A    between atoms: C_18  and  C_19 
ROOT
HETATM    1  C   UNL     1      24.994  46.300  50.626  1.00  0.00     0.128 C 
ENDROOT
BRANCH   1   2
HETATM    2  C   UNL     1      25.479  46.257  52.073  1.00  0.00    -0.032 A 
HETATM    3  C   UNL     1      25.876  45.064  52.701  1.00  0.00     0.046 A 
HETATM    4  C   UNL     1      26.311  45.060  54.029  1.00  0.00     0.076 A 
HETATM    5  C   UNL     1      26.403  46.256  54.741  1.00  0.00     0.037 A 
HETATM    6  C   UNL     1      25.992  47.444  54.144  1.00  0.00     0.003 A 
HETATM    7  C   UNL     1      25.520  47.443  52.829  1.00  0.00     0.009 A 
BRANCH   4   8
HETATM    8  O   UNL     1      26.707  43.844  54.538  1.00  0.00    -0.311 OA
BRANCH   8   9
HETATM    9  C   UNL     1      27.896  43.305  54.102  1.00  0.00     0.076 A 
HETATM   10  C   UNL     1      29.144  43.878  54.362  1.00  0.00     0.037 A 
HETATM   11  C   UNL     1      30.304  43.246  53.910  1.00  0.00     0.003 A 
HETATM   12  C   UNL     1      30.220  42.035  53.223  1.00  0.00     0.000 A 
HETATM   13  C   UNL     1      28.976  41.447  52.993  1.00  0.00     0.003 A 
HETATM   14  C   UNL     1      27.814  42.080  53.438  1.00  0.00     0.037 A 
ENDBRANCH   8   9
ENDBRANCH   4   8
ENDBRANCH   1   2
BRANCH   1  15
HETATM   15  N   UNL     1      25.144  45.025  49.935  1.00  0.00    -0.334 N 
HETATM   16  C   UNL     1      24.301  44.676  48.923  1.00  0.00     0.314 C 
HETATM   17  N   UNL     1      24.677  43.520  48.322  1.00  0.00    -0.352 N 
HETATM   18  O   UNL     1      23.312  45.299  48.571  1.00  0.00    -0.248 OA
HETATM   19  H   UNL     1      25.120  42.824  48.904  1.00  0.00     0.160 HD
HETATM   20  H   UNL     1      24.001  43.165  47.658  1.00  0.00     0.160 HD
HETATM   21  H   UNL     1      26.105  44.739  49.771  1.00  0.00     0.165 HD
ENDBRANCH   1  15
BRANCH   1  22
HETATM   22  C   UNL     1      25.650  47.435  49.821  1.00  0.00     0.134 C 
BRANCH  22  23
HETATM   23  C   UNL     1      24.652  48.533  49.517  1.00  0.00     0.238 C 
HETATM   24  N   UNL     1      23.357  48.243  49.895  1.00  0.00    -0.267 N 
HETATM   25  H   UNL     1      23.165  47.563  50.629  1.00  0.00     0.190 HD
HETATM   26  O   UNL     1      24.977  49.586  48.967  1.00  0.00    -0.272 OA
BRANCH  24  27
HETATM   27  N   UNL     1      22.413  49.268  49.787  1.00  0.00    -0.262 N 
HETATM   28  C   UNL     1      21.326  49.090  48.952  1.00  0.00     0.288 C 
HETATM   29  O   UNL     1      21.222  48.148  48.171  1.00  0.00    -0.264 OA
HETATM   30  H   UNL     1      22.366  49.965  50.534  1.00  0.00     0.190 HD
BRANCH  28  31
HETATM   31  C   UNL     1      20.279  50.150  49.083  1.00  0.00     0.125 A 
HETATM   32  N   UNL     1      19.246  49.875  49.928  1.00  0.00    -0.255 NA
HETATM   33  C   UNL     1      18.305  50.833  50.060  1.00  0.00     0.117 A 
HETATM   34  C   UNL     1      18.341  52.047  49.390  1.00  0.00     0.019 A 
HETATM   35  C   UNL     1      19.407  52.300  48.529  1.00  0.00     0.004 A 
HETATM   36  C   UNL     1      20.398  51.336  48.368  1.00  0.00     0.037 A 
ENDBRANCH  28  31
ENDBRANCH  24  27
ENDBRANCH  22  23
ENDBRANCH   1  22
TORSDOF 8
ENDMDL
MODEL 4
REMARK VINA RESULT:      -9.3      1.497      1.823
REMARK  8 active torsions:
REMARK  status: ('A' for Active; 'I' for Inactive)
REMARK    1  A    between atoms: C_4  and  O_5 
REMARK    2  A    between atoms: O_5  and  C_6 
REMARK    3  A    between atoms: C_8  and  C_9 
REMARK    4  A    between atoms: C_9  and  N_10 
REMARK    5  A    between atoms: C_9  and  C_14 
REMARK       I    between atoms: N_10  and  C_11 
REMARK       I    between atoms: C_11  and  N_12 
REMARK    6  A    between atoms: C_14  and  C_15 
REMARK       I    between atoms: C_15  and  N_16 
REMARK    7  A    between atoms: N_16  and  N_17 
REMARK       I    between atoms: N_17  and  C_18 
REMARK    8  A    between atoms: C_18  and  C_19 
ROOT
HETATM    1  C   UNL     1      25.168  45.388  50.173  1.00  0.00     0.128 C 
ENDROOT
BRANCH   1   2
HETATM    2  C   UNL     1      24.741  46.745  49.619  1.00  0.00    -0.032 A 
HETATM    3  C   UNL     1      23.449  46.985  49.120  1.00  0.00     0.046 A 
HETATM    4  C   UNL     1      23.093  48.239  48.616  1.00  0.00     0.076 A 
HETATM    5  C   UNL     1      24.007  49.292  48.645  1.00  0.00     0.037 A 
HETATM    6  C   UNL     1      25.299  49.068  49.114  1.00  0.00     0.003 A 
HETATM    7  C   UNL     1      25.667  47.804  49.581  1.00  0.00     0.009 A 
BRANCH   4   8
HETATM    8  O   UNL     1      21.794  48.376  48.182  1.00  0.00    -0.311 OA
BRANCH   8   9
HETATM    9  C   UNL     1      21.063  49.455  48.625  1.00  0.00     0.076 A 
HETATM   10  C   UNL     1      20.992  50.672  47.940  1.00  0.00     0.037 A 
HETATM   11  C   UNL     1      20.199  51.705  48.444  1.00  0.00     0.003 A 
HETATM   12  C   UNL     1      19.462  51.516  49.613  1.00  0.00     0.000 A 
HETATM   13  C   UNL     1      19.508  50.290  50.277  1.00  0.00     0.003 A 
HETATM   14  C   UNL     1      20.305  49.258  49.780  1.00  0.00     0.037 A 
ENDBRANCH   8   9
ENDBRANCH   4   8
ENDBRANCH   1   2
BRANCH   1  15
HETATM   15  N   UNL     1      25.192  44.340  49.158  1.00  0.00    -0.334 N 
HETATM   16  C   UNL     1      26.192  43.415  49.135  1.00  0.00     0.314 C 
HETATM   17  N   UNL     1      25.974  42.452  48.206  1.00  0.00    -0.352 N 
HETATM   18  O   UNL     1      27.185  43.419  49.845  1.00  0.00    -0.248 OA
HETATM   19  H   UNL     1      25.490  42.728  47.365  1.00  0.00     0.160 HD
HETATM   20  H   UNL     1      26.759  41.826  48.072  1.00  0.00     0.160 HD
HETATM   21  H   UNL     1      24.283  43.952  48.924  1.00  0.00     0.165 HD
ENDBRANCH   1  15
BRANCH   1  22
HETATM   22  C   UNL     1      24.322  44.955  51.382  1.00  0.00     0.134 C 
BRANCH  22  23
HETATM   23  C   UNL     1      25.195  44.700  52.592  1.00  0.00     0.238 C 
HETATM   24  N   UNL     1      26.527  45.010  52.407  1.00  0.00    -0.267 N 
HETATM   25  H   UNL     1      26.814  45.686  51.699  1.00  0.00     0.190 HD
HETATM   26  O   UNL     1      24.748  44.240  53.644  1.00  0.00    -0.272 OA
BRANCH  24  27
HETATM   27  N   UNL     1      27.362  44.947  53.526  1.00  0.00    -0.262 N 
HETATM   28  C   UNL     1      28.328  43.961  53.583  1.00  0.00     0.288 C 
HETATM   29  O   UNL     1      28.393  43.032  52.782  1.00  0.00    -0.264 OA
HETATM   30  H   UNL     1      27.461  45.784  54.106  1.00  0.00     0.190 HD
BRANCH  28  31
HETATM   31  C   UNL     1      29.297  44.123  54.711  1.00  0.00     0.125 A 
HETATM   32  N   UNL     1      29.207  45.282  55.421  1.00  0.00    -0.255 NA
HETATM   33  C   UNL     1      30.070  45.427  56.448  1.00  0.00     0.117 A 
HETATM   34  C   UNL     1      31.017  44.477  56.800  1.00  0.00     0.019 A 
HETATM   35  C   UNL     1      31.089  43.302  56.054  1.00  0.00     0.004 A 
HETATM   36  C   UNL     1      30.215  43.116  54.988  1.00  0.00     0.037 A 
ENDBRANCH  28  31
ENDBRANCH  24  27
ENDBRANCH  22  23
ENDBRANCH   1  22
TORSDOF 8
ENDMDL
MODEL 5
REMARK VINA RESULT:      -9.3      2.345      9.235
REMARK  8 active torsions:
REMARK  status: ('A' for Active; 'I' for Inactive)
REMARK    1  A    between atoms: C_4  and  O_5 
REMARK    2  A    between atoms: O_5  and  C_6 
REMARK    3  A    between atoms: C_8  and  C_9 
REMARK    4  A    between atoms: C_9  and  N_10 
REMARK    5  A    between atoms: C_9  and  C_14 
REMARK       I    between atoms: N_10  and  C_11 
REMARK       I    between atoms: C_11  and  N_12 
REMARK    6  A    between atoms: C_14  and  C_15 
REMARK       I    between atoms: C_15  and  N_16 
REMARK    7  A    between atoms: N_16  and  N_17 
REMARK       I    between atoms: N_17  and  C_18 
REMARK    8  A    between atoms: C_18  and  C_19 
ROOT
HETATM    1  C   UNL     1      26.938  42.942  51.497  1.00  0.00     0.128 C 
ENDROOT
BRANCH   1   2
HETATM    2  C   UNL     1      26.868  43.835  52.733  1.00  0.00    -0.032 A 
HETATM    3  C   UNL     1      28.004  44.452  53.285  1.00  0.00     0.046 A 
HETATM    4  C   UNL     1      27.904  45.261  54.421  1.00  0.00     0.076 A 
HETATM    5  C   UNL     1      26.659  45.507  54.999  1.00  0.00     0.037 A 
HETATM    6  C   UNL     1      25.526  44.887  54.480  1.00  0.00     0.003 A 
HETATM    7  C   UNL     1      25.631  44.048  53.369  1.00  0.00     0.009 A 
BRANCH   4   8
HETATM    8  O   UNL     1      29.072  45.841  54.862  1.00  0.00    -0.311 OA
BRANCH   8   9
HETATM    9  C   UNL     1      29.820  45.176  55.806  1.00  0.00     0.076 A 
HETATM   10  C   UNL     1      30.557  44.020  55.532  1.00  0.00     0.037 A 
HETATM   11  C   UNL     1      31.316  43.427  56.543  1.00  0.00     0.003 A 
HETATM   12  C   UNL     1      31.360  44.000  57.814  1.00  0.00     0.000 A 
HETATM   13  C   UNL     1      30.650  45.172  58.077  1.00  0.00     0.003 A 
HETATM   14  C   UNL     1      29.885  45.763  57.071  1.00  0.00     0.037 A 
ENDBRANCH   8   9
ENDBRANCH   4   8
ENDBRANCH   1   2
BRANCH   1  15
HETATM   15  N   UNL     1      27.945  41.892  51.608  1.00  0.00    -0.334 N 
HETATM   16  C   UNL     1      27.739  40.667  51.049  1.00  0.00     0.314 C 
HETATM   17  N   UNL     1      28.833  39.873  51.145  1.00  0.00    -0.352 N 
HETATM   18  O   UNL     1      26.706  40.289  50.520  1.00  0.00    -0.248 OA
HETATM   19  H   UNL     1      29.414  39.989  51.963  1.00  0.00     0.160 HD
HETATM   20  H   UNL     1      28.671  38.915  50.860  1.00  0.00     0.160 HD
HETATM   21  H   UNL     1      28.905  42.212  51.527  1.00  0.00     0.165 HD
ENDBRANCH   1  15
BRANCH   1  22
HETATM   22  C   UNL     1      27.134  43.747  50.201  1.00  0.00     0.134 C 
BRANCH  22  23
HETATM   23  C   UNL     1      25.914  44.591  49.896  1.00  0.00     0.238 C 
HETATM   24  N   UNL     1      26.054  45.926  50.216  1.00  0.00    -0.267 N 
HETATM   25  H   UNL     1      26.976  46.358  50.275  1.00  0.00     0.190 HD
HETATM   26  O   UNL     1      24.885  44.114  49.417  1.00  0.00    -0.272 OA
BRANCH  24  27
HETATM   27  N   UNL     1      25.029  46.791  49.821  1.00  0.00    -0.262 N 
HETATM   28  C   UNL     1      25.349  48.086  49.462  1.00  0.00     0.288 C 
HETATM   29  O   UNL     1      26.464  48.576  49.623  1.00  0.00    -0.264 OA
HETATM   30  H   UNL     1      24.146  46.384  49.505  1.00  0.00     0.190 HD
BRANCH  28  31
HETATM   31  C   UNL     1      24.214  48.847  48.852  1.00  0.00     0.125 A 
HETATM   32  N   UNL     1      23.048  48.161  48.689  1.00  0.00    -0.255 NA
HETATM   33  C   UNL     1      22.017  48.847  48.153  1.00  0.00     0.117 A 
HETATM   34  C   UNL     1      22.092  50.177  47.770  1.00  0.00     0.019 A 
HETATM   35  C   UNL     1      23.298  50.853  47.945  1.00  0.00     0.004 A 
HETATM   36  C   UNL     1      24.384  50.179  48.497  1.00  0.00     0.037 A 
ENDBRANCH  28  31
ENDBRANCH  24  27
ENDBRANCH  22  23
ENDBRANCH   1  22
TORSDOF 8
ENDMDL
MODEL 6
REMARK VINA RESULT:      -9.2      2.854      9.690
REMARK  8 active torsions:
REMARK  status: ('A' for Active; 'I' for Inactive)
REMARK    1  A    between atoms: C_4  and  O_5 
REMARK    2  A    between atoms: O_5  and  C_6 
REMARK    3  A    between atoms: C_8  and  C_9 
REMARK    4  A    between atoms: C_9  and  N_10 
REMARK    5  A    between atoms: C_9  and  C_14 
REMARK       I    between atoms: N_10  and  C_11 
REMARK       I    between atoms: C_11  and  N_12 
REMARK    6  A    between atoms: C_14  and  C_15 
REMARK       I    between atoms: C_15  and  N_16 
REMARK    7  A    between atoms: N_16  and  N_17 
REMARK       I    between atoms: N_17  and  C_18 
REMARK    8  A    between atoms: C_18  and  C_19 
ROOT
HETATM    1  C   UNL     1      26.005  46.728  50.329  1.00  0.00     0.128 C 
ENDROOT
BRANCH   1   2
HETATM    2  C   UNL     1      26.043  46.503  51.839  1.00  0.00    -0.032 A 
HETATM    3  C   UNL     1      26.285  45.241  52.409  1.00  0.00     0.046 A 
HETATM    4  C   UNL     1      26.309  45.071  53.796  1.00  0.00     0.076 A 
HETATM    5  C   UNL     1      26.139  46.167  54.641  1.00  0.00     0.037 A 
HETATM    6  C   UNL     1      25.874  47.420  54.095  1.00  0.00     0.003 A 
HETATM    7  C   UNL     1      25.812  47.584  52.709  1.00  0.00     0.009 A 
BRANCH   4   8
HETATM    8  O   UNL     1      26.586  43.801  54.250  1.00  0.00    -0.311 OA
BRANCH   8   9
HETATM    9  C   UNL     1      27.817  43.255  53.965  1.00  0.00     0.076 A 
HETATM   10  C   UNL     1      28.008  42.224  53.041  1.00  0.00     0.037 A 
HETATM   11  C   UNL     1      29.297  41.751  52.788  1.00  0.00     0.003 A 
HETATM   12  C   UNL     1      30.393  42.322  53.437  1.00  0.00     0.000 A 
HETATM   13  C   UNL     1      30.204  43.372  54.335  1.00  0.00     0.003 A 
HETATM   14  C   UNL     1      28.916  43.843  54.595  1.00  0.00     0.037 A 
ENDBRANCH   8   9
ENDBRANCH   4   8
ENDBRANCH   1   2
BRANCH   1  15
HETATM   15  N   UNL     1      26.466  48.056  49.939  1.00  0.00    -0.334 N 
HETATM   16  C   UNL     1      27.543  48.207  49.118  1.00  0.00     0.314 C 
HETATM   17  N   UNL     1      27.738  49.502  48.767  1.00  0.00    -0.352 N 
HETATM   18  O   UNL     1      28.274  47.310  48.727  1.00  0.00    -0.248 OA
HETATM   19  H   UNL     1      27.491  50.204  49.448  1.00  0.00     0.160 HD
HETATM   20  H   UNL     1      28.604  49.665  48.268  1.00  0.00     0.160 HD
HETATM   21  H   UNL     1      25.727  48.727  49.755  1.00  0.00     0.165 HD
ENDBRANCH   1  15
BRANCH   1  22
HETATM   22  C   UNL     1      24.621  46.435  49.726  1.00  0.00     0.134 C 
BRANCH  22  23
HETATM   23  C   UNL     1      23.809  47.705  49.587  1.00  0.00     0.238 C 
HETATM   24  N   UNL     1      22.483  47.498  49.263  1.00  0.00    -0.267 N 
HETATM   25  H   UNL     1      22.023  46.614  49.479  1.00  0.00     0.190 HD
HETATM   26  O   UNL     1      24.302  48.823  49.738  1.00  0.00    -0.272 OA
BRANCH  24  27
HETATM   27  N   UNL     1      21.640  48.612  49.270  1.00  0.00    -0.262 N 
HETATM   28  C   UNL     1      20.283  48.424  49.094  1.00  0.00     0.288 C 
HETATM   29  O   UNL     1      19.787  47.348  48.767  1.00  0.00    -0.264 OA
HETATM   30  H   UNL     1      21.976  49.473  49.709  1.00  0.00     0.190 HD
BRANCH  28  31
HETATM   31  C   UNL     1      19.461  49.650  49.336  1.00  0.00     0.125 A 
HETATM   32  N   UNL     1      18.125  49.453  49.519  1.00  0.00    -0.255 NA
HETATM   33  C   UNL     1      17.382  50.555  49.752  1.00  0.00     0.117 A 
HETATM   34  C   UNL     1      17.902  51.839  49.809  1.00  0.00     0.019 A 
HETATM   35  C   UNL     1      19.271  52.011  49.615  1.00  0.00     0.004 A 
HETATM   36  C   UNL     1      20.071  50.898  49.373  1.00  0.00     0.037 A 
ENDBRANCH  28  31
ENDBRANCH  24  27
ENDBRANCH  22  23
ENDBRANCH   1  22
TORSDOF 8
ENDMDL
MODEL 7
REMARK VINA RESULT:      -9.2      2.900      9.492
REMARK  8 active torsions:
REMARK  status: ('A' for Active; 'I' for Inactive)
REMARK    1  A    between atoms: C_4  and  O_5 
REMARK    2  A    between atoms: O_5  and  C_6 
REMARK    3  A    between atoms: C_8  and  C_9 
REMARK    4  A    between atoms: C_9  and  N_10 
REMARK    5  A    between atoms: C_9  and  C_14 
REMARK       I    between atoms: N_10  and  C_11 
REMARK       I    between atoms: C_11  and  N_12 
REMARK    6  A    between atoms: C_14  and  C_15 
REMARK       I    between atoms: C_15  and  N_16 
REMARK    7  A    between atoms: N_16  and  N_17 
REMARK       I    between atoms: N_17  and  C_18 
REMARK    8  A    between atoms: C_18  and  C_19 
ROOT
HETATM    1  C   UNL     1      25.030  44.652  50.270  1.00  0.00     0.128 C 
ENDROOT
BRANCH   1   2
HETATM    2  C   UNL     1      26.081  43.695  50.827  1.00  0.00    -0.032 A 
HETATM    3  C   UNL     1      26.369  43.604  52.199  1.00  0.00     0.046 A 
HETATM    4  C   UNL     1      27.341  42.718  52.674  1.00  0.00     0.076 A 
HETATM    5  C   UNL     1      28.011  41.872  51.790  1.00  0.00     0.037 A 
HETATM    6  C   UNL     1      27.756  41.964  50.424  1.00  0.00     0.003 A 
HETATM    7  C   UNL     1      26.813  42.876  49.946  1.00  0.00     0.009 A 
BRANCH   4   8
HETATM    8  O   UNL     1      27.523  42.685  54.038  1.00  0.00    -0.311 OA
BRANCH   8   9
HETATM    9  C   UNL     1      28.474  43.511  54.594  1.00  0.00     0.076 A 
HETATM   10  C   UNL     1      28.226  44.837  54.956  1.00  0.00     0.037 A 
HETATM   11  C   UNL     1      29.240  45.596  55.546  1.00  0.00     0.003 A 
HETATM   12  C   UNL     1      30.488  45.024  55.794  1.00  0.00     0.000 A 
HETATM   13  C   UNL     1      30.724  43.690  55.462  1.00  0.00     0.003 A 
HETATM   14  C   UNL     1      29.714  42.932  54.866  1.00  0.00     0.037 A 
ENDBRANCH   8   9
ENDBRANCH   4   8
ENDBRANCH   1   2
BRANCH   1  15
HETATM   15  N   UNL     1      24.263  44.080  49.170  1.00  0.00    -0.334 N 
HETATM   16  C   UNL     1      22.975  43.676  49.354  1.00  0.00     0.314 C 
HETATM   17  N   UNL     1      22.389  43.294  48.192  1.00  0.00    -0.352 N 
HETATM   18  O   UNL     1      22.383  43.642  50.421  1.00  0.00    -0.248 OA
HETATM   19  H   UNL     1      22.984  42.863  47.500  1.00  0.00     0.160 HD
HETATM   20  H   UNL     1      21.481  42.864  48.313  1.00  0.00     0.160 HD
HETATM   21  H   UNL     1      24.419  44.518  48.267  1.00  0.00     0.165 HD
ENDBRANCH   1  15
BRANCH   1  22
HETATM   22  C   UNL     1      25.629  46.010  49.866  1.00  0.00     0.134 C 
BRANCH  22  23
HETATM   23  C   UNL     1      24.687  47.144  50.212  1.00  0.00     0.238 C 
HETATM   24  N   UNL     1      23.730  47.400  49.251  1.00  0.00    -0.267 N 
HETATM   25  H   UNL     1      23.445  46.679  48.590  1.00  0.00     0.190 HD
HETATM   26  O   UNL     1      24.783  47.786  51.259  1.00  0.00    -0.272 OA
BRANCH  24  27
HETATM   27  N   UNL     1      22.734  48.328  49.569  1.00  0.00    -0.262 N 
HETATM   28  C   UNL     1      22.351  49.250  48.615  1.00  0.00     0.288 C 
HETATM   29  O   UNL     1      22.948  49.412  47.554  1.00  0.00    -0.264 OA
HETATM   30  H   UNL     1      22.104  48.115  50.346  1.00  0.00     0.190 HD
BRANCH  28  31
HETATM   31  C   UNL     1      21.137  50.041  48.985  1.00  0.00     0.125 A 
HETATM   32  N   UNL     1      20.320  49.486  49.924  1.00  0.00    -0.255 NA
HETATM   33  C   UNL     1      19.230  50.202  50.272  1.00  0.00     0.117 A 
HETATM   34  C   UNL     1      18.914  51.438  49.730  1.00  0.00     0.019 A 
HETATM   35  C   UNL     1      19.765  51.980  48.769  1.00  0.00     0.004 A 
HETATM   36  C   UNL     1      20.900  51.272  48.385  1.00  0.00     0.037 A 
ENDBRANCH  28  31
ENDBRANCH  24  27
ENDBRANCH  22  23
ENDBRANCH   1  22
TORSDOF 8
ENDMDL
MODEL 8
REMARK VINA RESULT:      -9.1      1.810      2.245
REMARK  8 active torsions:
REMARK  status: ('A' for Active; 'I' for Inactive)
REMARK    1  A    between atoms: C_4  and  O_5 
REMARK    2  A    between atoms: O_5  and  C_6 
REMARK    3  A    between atoms: C_8  and  C_9 
REMARK    4  A    between atoms: C_9  and  N_10 
REMARK    5  A    between atoms: C_9  and  C_14 
REMARK       I    between atoms: N_10  and  C_11 
REMARK       I    between atoms: C_11  and  N_12 
REMARK    6  A    between atoms: C_14  and  C_15 
REMARK       I    between atoms: C_15  and  N_16 
REMARK    7  A    between atoms: N_16  and  N_17 
REMARK       I    between atoms: N_17  and  C_18 
REMARK    8  A    between atoms: C_18  and  C_19 
ROOT
HETATM    1  C   UNL     1      25.381  46.067  51.252  1.00  0.00     0.128 C 
ENDROOT
BRANCH   1   2
HETATM    2  C   UNL     1      24.384  46.485  50.174  1.00  0.00    -0.032 A 
HETATM    3  C   UNL     1      24.181  47.828  49.811  1.00  0.00     0.046 A 
HETATM    4  C   UNL     1      23.257  48.175  48.822  1.00  0.00     0.076 A 
HETATM    5  C   UNL     1      22.551  47.183  48.143  1.00  0.00     0.037 A 
HETATM    6  C   UNL     1      22.720  45.849  48.504  1.00  0.00     0.003 A 
HETATM    7  C   UNL     1      23.615  45.505  49.520  1.00  0.00     0.009 A 
BRANCH   4   8
HETATM    8  O   UNL     1      23.159  49.515  48.521  1.00  0.00    -0.311 OA
BRANCH   8   9
HETATM    9  C   UNL     1      21.964  50.155  48.758  1.00  0.00     0.076 A 
HETATM   10  C   UNL     1      21.558  50.587  50.023  1.00  0.00     0.037 A 
HETATM   11  C   UNL     1      20.343  51.260  50.169  1.00  0.00     0.003 A 
HETATM   12  C   UNL     1      19.549  51.522  49.051  1.00  0.00     0.000 A 
HETATM   13  C   UNL     1      19.971  51.119  47.785  1.00  0.00     0.003 A 
HETATM   14  C   UNL     1      21.182  50.440  47.637  1.00  0.00     0.037 A 
ENDBRANCH   8   9
ENDBRANCH   4   8
ENDBRANCH   1   2
BRANCH   1  15
HETATM   15  N   UNL     1      25.272  44.658  51.614  1.00  0.00    -0.334 N 
HETATM   16  C   UNL     1      26.282  43.787  51.337  1.00  0.00     0.314 C 
HETATM   17  N   UNL     1      26.053  42.558  51.862  1.00  0.00    -0.352 N 
HETATM   18  O   UNL     1      27.287  44.041  50.693  1.00  0.00    -0.248 OA
HETATM   19  H   UNL     1      25.092  42.254  51.914  1.00  0.00     0.160 HD
HETATM   20  H   UNL     1      26.717  41.854  51.564  1.00  0.00     0.160 HD
HETATM   21  H   UNL     1      24.825  44.481  52.509  1.00  0.00     0.165 HD
ENDBRANCH   1  15
BRANCH   1  22
HETATM   22  C   UNL     1      25.300  46.958  52.503  1.00  0.00     0.134 C 
BRANCH  22  23
HETATM   23  C   UNL     1      26.039  46.329  53.666  1.00  0.00     0.238 C 
HETATM   24  N   UNL     1      27.409  46.494  53.624  1.00  0.00    -0.267 N 
HETATM   25  H   UNL     1      27.828  47.264  53.104  1.00  0.00     0.190 HD
HETATM   26  O   UNL     1      25.459  45.712  54.560  1.00  0.00    -0.272 OA
BRANCH  24  27
HETATM   27  N   UNL     1      28.140  46.075  54.739  1.00  0.00    -0.262 N 
HETATM   28  C   UNL     1      28.938  44.953  54.631  1.00  0.00     0.288 C 
HETATM   29  O   UNL     1      28.920  44.202  53.659  1.00  0.00    -0.264 OA
HETATM   30  H   UNL     1      28.322  46.754  55.482  1.00  0.00     0.190 HD
BRANCH  28  31
HETATM   31  C   UNL     1      29.835  44.729  55.807  1.00  0.00     0.125 A 
HETATM   32  N   UNL     1      29.714  45.615  56.835  1.00  0.00    -0.255 NA
HETATM   33  C   UNL     1      30.511  45.409  57.904  1.00  0.00     0.117 A 
HETATM   34  C   UNL     1      31.421  44.368  57.998  1.00  0.00     0.019 A 
HETATM   35  C   UNL     1      31.527  43.479  56.931  1.00  0.00     0.004 A 
HETATM   36  C   UNL     1      30.720  43.658  55.811  1.00  0.00     0.037 A 
ENDBRANCH  28  31
ENDBRANCH  24  27
ENDBRANCH  22  23
ENDBRANCH   1  22
TORSDOF 8
ENDMDL
MODEL 9
REMARK VINA RESULT:      -9.0      1.771      2.530
REMARK  8 active torsions:
REMARK  status: ('A' for Active; 'I' for Inactive)
REMARK    1  A    between atoms: C_4  and  O_5 
REMARK    2  A    between atoms: O_5  and  C_6 
REMARK    3  A    between atoms: C_8  and  C_9 
REMARK    4  A    between atoms: C_9  and  N_10 
REMARK    5  A    between atoms: C_9  and  C_14 
REMARK       I    between atoms: N_10  and  C_11 
REMARK       I    between atoms: C_11  and  N_12 
REMARK    6  A    between atoms: C_14  and  C_15 
REMARK       I    between atoms: C_15  and  N_16 
REMARK    7  A    between atoms: N_16  and  N_17 
REMARK       I    between atoms: N_17  and  C_18 
REMARK    8  A    between atoms: C_18  and  C_19 
ROOT
HETATM    1  C   UNL     1      24.392  46.706  49.966  1.00  0.00     0.128 C 
ENDROOT
BRANCH   1   2
HETATM    2  C   UNL     1      23.954  47.947  49.192  1.00  0.00    -0.032 A 
HETATM    3  C   UNL     1      22.636  48.130  48.741  1.00  0.00     0.046 A 
HETATM    4  C   UNL     1      22.270  49.277  48.031  1.00  0.00     0.076 A 
HETATM    5  C   UNL     1      23.205  50.285  47.798  1.00  0.00     0.037 A 
HETATM    6  C   UNL     1      24.522  50.112  48.216  1.00  0.00     0.003 A 
HETATM    7  C   UNL     1      24.896  48.948  48.892  1.00  0.00     0.009 A 
BRANCH   4   8
HETATM    8  O   UNL     1      20.947  49.372  47.664  1.00  0.00    -0.311 OA
BRANCH   8   9
HETATM    9  C   UNL     1      20.132  50.237  48.359  1.00  0.00     0.076 A 
HETATM   10  C   UNL     1      19.883  51.552  47.958  1.00  0.00     0.037 A 
HETATM   11  C   UNL     1      19.016  52.353  48.705  1.00  0.00     0.003 A 
HETATM   12  C   UNL     1      18.382  51.833  49.834  1.00  0.00     0.000 A 
HETATM   13  C   UNL     1      18.607  50.511  50.215  1.00  0.00     0.003 A 
HETATM   14  C   UNL     1      19.478  49.711  49.474  1.00  0.00     0.037 A 
ENDBRANCH   8   9
ENDBRANCH   4   8
ENDBRANCH   1   2
BRANCH   1  15
HETATM   15  N   UNL     1      23.413  45.627  49.916  1.00  0.00    -0.334 N 
HETATM   16  C   UNL     1      23.767  44.382  49.490  1.00  0.00     0.314 C 
HETATM   17  N   UNL     1      22.760  43.487  49.636  1.00  0.00    -0.352 N 
HETATM   18  O   UNL     1      24.851  44.070  49.022  1.00  0.00    -0.248 OA
HETATM   19  H   UNL     1      21.819  43.835  49.525  1.00  0.00     0.160 HD
HETATM   20  H   UNL     1      22.944  42.588  49.208  1.00  0.00     0.160 HD
HETATM   21  H   UNL     1      22.754  45.612  50.689  1.00  0.00     0.165 HD
ENDBRANCH   1  15
BRANCH   1  22
HETATM   22  C   UNL     1      24.773  47.027  51.422  1.00  0.00     0.134 C 
BRANCH  22  23
HETATM   23  C   UNL     1      26.056  46.325  51.815  1.00  0.00     0.238 C 
HETATM   24  N   UNL     1      26.300  46.309  53.173  1.00  0.00    -0.267 N 
HETATM   25  H   UNL     1      25.538  46.401  53.844  1.00  0.00     0.190 HD
HETATM   26  O   UNL     1      26.817  45.828  50.985  1.00  0.00    -0.272 OA
BRANCH  24  27
HETATM   27  N   UNL     1      27.383  45.547  53.621  1.00  0.00    -0.262 N 
HETATM   28  C   UNL     1      28.199  46.063  54.609  1.00  0.00     0.288 C 
HETATM   29  O   UNL     1      28.127  47.223  55.007  1.00  0.00    -0.264 OA
HETATM   30  H   UNL     1      27.368  44.538  53.455  1.00  0.00     0.190 HD
BRANCH  28  31
HETATM   31  C   UNL     1      29.184  45.081  55.160  1.00  0.00     0.125 A 
HETATM   32  N   UNL     1      29.234  43.867  54.542  1.00  0.00    -0.255 NA
HETATM   33  C   UNL     1      30.131  42.983  55.026  1.00  0.00     0.117 A 
HETATM   34  C   UNL     1      30.975  43.246  56.094  1.00  0.00     0.019 A 
HETATM   35  C   UNL     1      30.899  44.494  56.709  1.00  0.00     0.004 A 
HETATM   36  C   UNL     1      29.988  45.434  56.237  1.00  0.00     0.037 A 
ENDBRANCH  28  31
ENDBRANCH  24  27
ENDBRANCH  22  23
ENDBRANCH   1  22
TORSDOF 8
ENDMDL
MODEL 10
REMARK VINA RESULT:      -8.9      2.396      9.976
REMARK  8 active torsions:
REMARK  status: ('A' for Active; 'I' for Inactive)
REMARK    1  A    between atoms: C_4  and  O_5 
REMARK    2  A    between atoms: O_5  and  C_6 
REMARK    3  A    between atoms: C_8  and  C_9 
REMARK    4  A    between atoms: C_9  and  N_10 
REMARK    5  A    between atoms: C_9  and  C_14 
REMARK       I    between atoms: N_10  and  C_11 
REMARK       I    between atoms: C_11  and  N_12 
REMARK    6  A    between atoms: C_14  and  C_15 
REMARK       I    between atoms: C_15  and  N_16 
REMARK    7  A    between atoms: N_16  and  N_17 
REMARK       I    between atoms: N_17  and  C_18 
REMARK    8  A    between atoms: C_18  and  C_19 
ROOT
HETATM    1  C   UNL     1      26.861  45.599  52.658  1.00  0.00     0.128 C 
ENDROOT
BRANCH   1   2
HETATM    2  C   UNL     1      27.599  44.329  53.073  1.00  0.00    -0.032 A 
HETATM    3  C   UNL     1      28.850  44.357  53.713  1.00  0.00     0.046 A 
HETATM    4  C   UNL     1      29.500  43.173  54.076  1.00  0.00     0.076 A 
HETATM    5  C   UNL     1      28.890  41.940  53.847  1.00  0.00     0.037 A 
HETATM    6  C   UNL     1      27.662  41.891  53.192  1.00  0.00     0.003 A 
HETATM    7  C   UNL     1      27.031  43.072  52.795  1.00  0.00     0.009 A 
BRANCH   4   8
HETATM    8  O   UNL     1      30.705  43.313  54.726  1.00  0.00    -0.311 OA
BRANCH   8   9
HETATM    9  C   UNL     1      30.728  43.979  55.931  1.00  0.00     0.076 A 
HETATM   10  C   UNL     1      31.575  43.633  56.987  1.00  0.00     0.037 A 
HETATM   11  C   UNL     1      31.557  44.384  58.164  1.00  0.00     0.003 A 
HETATM   12  C   UNL     1      30.714  45.490  58.276  1.00  0.00     0.000 A 
HETATM   13  C   UNL     1      29.892  45.853  57.209  1.00  0.00     0.003 A 
HETATM   14  C   UNL     1      29.904  45.101  56.034  1.00  0.00     0.037 A 
ENDBRANCH   8   9
ENDBRANCH   4   8
ENDBRANCH   1   2
BRANCH   1  15
HETATM   15  N   UNL     1      26.230  46.285  53.780  1.00  0.00    -0.334 N 
HETATM   16  C   UNL     1      26.866  47.305  54.421  1.00  0.00     0.314 C 
HETATM   17  N   UNL     1      26.073  47.898  55.347  1.00  0.00    -0.352 N 
HETATM   18  O   UNL     1      28.013  47.670  54.219  1.00  0.00    -0.248 OA
HETATM   19  H   UNL     1      25.406  47.309  55.824  1.00  0.00     0.160 HD
HETATM   20  H   UNL     1      26.556  48.569  55.932  1.00  0.00     0.160 HD
HETATM   21  H   UNL     1      25.231  46.437  53.680  1.00  0.00     0.165 HD
ENDBRANCH   1  15
BRANCH   1  22
HETATM   22  C   UNL     1      25.842  45.346  51.534  1.00  0.00     0.134 C 
BRANCH  22  23
HETATM   23  C   UNL     1      25.295  46.649  50.992  1.00  0.00     0.238 C 
HETATM   24  N   UNL     1      24.077  46.532  50.356  1.00  0.00    -0.267 N 
HETATM   25  H   UNL     1      23.447  45.759  50.567  1.00  0.00     0.190 HD
HETATM   26  O   UNL     1      25.901  47.716  51.103  1.00  0.00    -0.272 OA
BRANCH  24  27
HETATM   27  N   UNL     1      23.440  47.714  49.967  1.00  0.00    -0.262 N 
HETATM   28  C   UNL     1      22.655  47.708  48.830  1.00  0.00     0.288 C 
HETATM   29  O   UNL     1      22.613  46.765  48.044  1.00  0.00    -0.264 OA
HETATM   30  H   UNL     1      23.302  48.445  50.670  1.00  0.00     0.190 HD
BRANCH  28  31
HETATM   31  C   UNL     1      21.854  48.956  48.635  1.00  0.00     0.125 A 
HETATM   32  N   UNL     1      22.127  49.985  49.486  1.00  0.00    -0.255 NA
HETATM   33  C   UNL     1      21.416  51.118  49.306  1.00  0.00     0.117 A 
HETATM   34  C   UNL     1      20.449  51.275  48.325  1.00  0.00     0.019 A 
HETATM   35  C   UNL     1      20.189  50.205  47.471  1.00  0.00     0.004 A 
HETATM   36  C   UNL     1      20.903  49.020  47.625  1.00  0.00     0.037 A 
ENDBRANCH  28  31
ENDBRANCH  24  27
ENDBRANCH  22  23
ENDBRANCH   1  22
TORSDOF 8
ENDMDL
