MODEL 1
REMARK VINA RESULT:      -8.8      0.000      0.000
REMARK  6 active torsions:
REMARK  status: ('A' for Active; 'I' for Inactive)
REMARK    1  A    between atoms: C_2  and  O_3 
REMARK    2  A    between atoms: O_3  and  C_4 
REMARK    3  A    between atoms: C_8  and  C_9 
REMARK    4  A    between atoms: C_9  and  N_10 
REMARK       I    between atoms: N_10  and  C_11 
REMARK       I    between atoms: C_11  and  N_12 
REMARK    5  A    between atoms: N_12  and  C_13 
REMARK    6  A    between atoms: C_14  and  C_15 
ROOT
HETATM    1  N   UNL     1      25.818  47.129  51.661  1.00  0.00    -0.339 N 
HETATM    2  C   UNL     1      26.194  46.281  52.674  1.00  0.00     0.316 C 
HETATM    3  N   UNL     1      27.087  46.881  53.531  1.00  0.00    -0.338 N 
HETATM    4  O   UNL     1      25.767  45.141  52.805  1.00  0.00    -0.247 OA
HETATM    5  H   UNL     1      25.882  48.115  51.866  1.00  0.00     0.164 HD
HETATM    6  H   UNL     1      27.650  47.621  53.137  1.00  0.00     0.164 HD
ENDROOT
BRANCH   1   7
HETATM    7  C   UNL     1      24.809  46.736  50.702  1.00  0.00     0.163 C 
BRANCH   7   8
HETATM    8  C   UNL     1      24.571  47.801  49.664  1.00  0.00    -0.035 A 
HETATM    9  C   UNL     1      25.603  48.649  49.253  1.00  0.00     0.028 A 
HETATM   10  C   UNL     1      25.332  49.621  48.304  1.00  0.00     0.120 A 
HETATM   11  N   UNL     1      24.115  49.814  47.755  1.00  0.00    -0.237 NA
HETATM   12  C   UNL     1      23.126  49.006  48.173  1.00  0.00     0.165 A 
HETATM   13  C   UNL     1      23.307  47.985  49.098  1.00  0.00     0.066 A 
BRANCH  12  14
HETATM   14  O   UNL     1      21.853  49.139  47.667  1.00  0.00    -0.324 OA
BRANCH  14  15
HETATM   15  C   UNL     1      20.839  49.786  48.459  1.00  0.00     0.058 C 
HETATM   16  C   UNL     1      21.418  50.843  49.409  1.00  0.00     0.045 C 
HETATM   17  C   UNL     1      19.919  48.791  49.185  1.00  0.00     0.045 C 
HETATM   18  C   UNL     1      19.979  50.527  47.415  1.00  0.00     0.045 C 
ENDBRANCH  14  15
ENDBRANCH  12  14
ENDBRANCH   7   8
ENDBRANCH   1   7
BRANCH   3  19
HETATM   19  C   UNL     1      27.569  46.224  54.710  1.00  0.00     0.095 A 
HETATM   20  C   UNL     1      28.946  46.513  55.274  1.00  0.00     0.043 A 
HETATM   21  C   UNL     1      27.707  47.006  55.983  1.00  0.00     0.037 A 
BRANCH  20  22
HETATM   22  C   UNL     1      29.760  45.399  55.893  1.00  0.00    -0.052 A 
HETATM   23  C   UNL     1      30.049  44.222  55.182  1.00  0.00     0.007 A 
HETATM   24  C   UNL     1      30.800  43.191  55.754  1.00  0.00     0.001 A 
HETATM   25  C   UNL     1      31.284  43.320  57.053  1.00  0.00     0.000 A 
HETATM   26  C   UNL     1      31.023  44.481  57.774  1.00  0.00     0.001 A 
HETATM   27  C   UNL     1      30.272  45.508  57.196  1.00  0.00     0.007 A 
ENDBRANCH  20  22
ENDBRANCH   3  19
TORSDOF 6
ENDMDL
MODEL 2
REMARK VINA RESULT:      -8.5      1.618      2.234
REMARK  6 active torsions:
REMARK  status: ('A' for Active; 'I' for Inactive)
REMARK    1  A    between atoms: C_2  and  O_3 
REMARK    2  A    between atoms: O_3  and  C_4 
REMARK    3  A    between atoms: C_8  and  C_9 
REMARK    4  A    between atoms: C_9  and  N_10 
REMARK       I    between atoms: N_10  and  C_11 
REMARK       I    between atoms: C_11  and  N_12 
REMARK    5  A    between atoms: N_12  and  C_13 
REMARK    6  A    between atoms: C_14  and  C_15 
ROOT
HETATM    1  N   UNL     1      24.563  47.126  50.735  1.00  0.00    -0.339 N 
HETATM    2  C   UNL     1      25.499  46.153  50.984  1.00  0.00     0.316 C 
HETATM    3  N   UNL     1      25.948  46.203  52.283  1.00  0.00    -0.338 N 
HETATM    4  O   UNL     1      25.869  45.331  50.155  1.00  0.00    -0.247 OA
HETATM    5  H   UNL     1      24.043  47.451  51.536  1.00  0.00     0.164 HD
HETATM    6  H   UNL     1      25.895  47.104  52.736  1.00  0.00     0.164 HD
ENDROOT
BRANCH   1   7
HETATM    7  C   UNL     1      23.885  47.192  49.459  1.00  0.00     0.163 C 
BRANCH   7   8
HETATM    8  C   UNL     1      23.474  48.598  49.110  1.00  0.00    -0.035 A 
HETATM    9  C   UNL     1      24.277  49.402  48.296  1.00  0.00     0.028 A 
HETATM   10  C   UNL     1      23.861  50.692  48.014  1.00  0.00     0.120 A 
HETATM   11  N   UNL     1      22.723  51.237  48.493  1.00  0.00    -0.237 NA
HETATM   12  C   UNL     1      21.971  50.461  49.292  1.00  0.00     0.165 A 
HETATM   13  C   UNL     1      22.289  49.146  49.608  1.00  0.00     0.066 A 
BRANCH  12  14
HETATM   14  O   UNL     1      20.796  50.940  49.827  1.00  0.00    -0.324 OA
BRANCH  14  15
HETATM   15  C   UNL     1      19.608  50.973  49.013  1.00  0.00     0.058 C 
HETATM   16  C   UNL     1      19.629  49.919  47.897  1.00  0.00     0.045 C 
HETATM   17  C   UNL     1      19.284  52.379  48.482  1.00  0.00     0.045 C 
HETATM   18  C   UNL     1      18.484  50.583  49.994  1.00  0.00     0.045 C 
ENDBRANCH  14  15
ENDBRANCH  12  14
ENDBRANCH   7   8
ENDBRANCH   1   7
BRANCH   3  19
HETATM   19  C   UNL     1      26.875  45.242  52.807  1.00  0.00     0.095 A 
HETATM   20  C   UNL     1      27.057  45.044  54.298  1.00  0.00     0.043 A 
HETATM   21  C   UNL     1      26.351  44.000  53.466  1.00  0.00     0.037 A 
BRANCH  20  22
HETATM   22  C   UNL     1      28.428  44.742  54.860  1.00  0.00    -0.052 A 
HETATM   23  C   UNL     1      29.102  43.550  54.546  1.00  0.00     0.007 A 
HETATM   24  C   UNL     1      30.368  43.270  55.066  1.00  0.00     0.001 A 
HETATM   25  C   UNL     1      30.992  44.185  55.910  1.00  0.00     0.000 A 
HETATM   26  C   UNL     1      30.352  45.379  56.227  1.00  0.00     0.001 A 
HETATM   27  C   UNL     1      29.086  45.653  55.703  1.00  0.00     0.007 A 
ENDBRANCH  20  22
ENDBRANCH   3  19
TORSDOF 6
ENDMDL
MODEL 3
REMARK VINA RESULT:      -8.1      2.633     10.285
REMARK  6 active torsions:
REMARK  status: ('A' for Active; 'I' for Inactive)
REMARK    1  A    between atoms: C_2  and  O_3 
REMARK    2  A    between atoms: O_3  and  C_4 
REMARK    3  A    between atoms: C_8  and  C_9 
REMARK    4  A    between atoms: C_9  and  N_10 
REMARK       I    between atoms: N_10  and  C_11 
REMARK       I    between atoms: C_11  and  N_12 
REMARK    5  A    between atoms: N_12  and  C_13 
REMARK    6  A    between atoms: C_14  and  C_15 
ROOT
HETATM    1  N   UNL     1      23.533  46.263  49.500  1.00  0.00    -0.339 N 
HETATM    2  C   UNL     1      22.790  47.167  48.782  1.00  0.00     0.316 C 
HETATM    3  N   UNL     1      22.517  48.296  49.519  1.00  0.00    -0.338 N 
HETATM    4  O   UNL     1      22.435  46.994  47.623  1.00  0.00    -0.247 OA
HETATM    5  H   UNL     1      24.103  46.649  50.237  1.00  0.00     0.164 HD
HETATM    6  H   UNL     1      22.499  48.177  50.521  1.00  0.00     0.164 HD
ENDROOT
BRANCH   1   7
HETATM    7  C   UNL     1      24.017  45.047  48.883  1.00  0.00     0.163 C 
BRANCH   7   8
HETATM    8  C   UNL     1      24.900  44.256  49.813  1.00  0.00    -0.035 A 
HETATM    9  C   UNL     1      24.895  42.858  49.796  1.00  0.00     0.028 A 
HETATM   10  C   UNL     1      25.716  42.176  50.678  1.00  0.00     0.120 A 
HETATM   11  N   UNL     1      26.520  42.782  51.577  1.00  0.00    -0.237 NA
HETATM   12  C   UNL     1      26.499  44.125  51.599  1.00  0.00     0.165 A 
HETATM   13  C   UNL     1      25.733  44.897  50.734  1.00  0.00     0.066 A 
BRANCH  12  14
HETATM   14  O   UNL     1      27.286  44.822  52.488  1.00  0.00    -0.324 OA
BRANCH  14  15
HETATM   15  C   UNL     1      26.949  44.816  53.888  1.00  0.00     0.058 C 
HETATM   16  C   UNL     1      27.899  43.942  54.719  1.00  0.00     0.045 C 
HETATM   17  C   UNL     1      25.471  44.481  54.148  1.00  0.00     0.045 C 
HETATM   18  C   UNL     1      27.171  46.279  54.322  1.00  0.00     0.045 C 
ENDBRANCH  14  15
ENDBRANCH  12  14
ENDBRANCH   7   8
ENDBRANCH   1   7
BRANCH   3  19
HETATM   19  C   UNL     1      21.818  49.418  48.963  1.00  0.00     0.095 A 
HETATM   20  C   UNL     1      21.248  50.514  49.841  1.00  0.00     0.043 A 
HETATM   21  C   UNL     1      22.465  50.770  48.985  1.00  0.00     0.037 A 
BRANCH  20  22
HETATM   22  C   UNL     1      19.934  51.168  49.477  1.00  0.00    -0.052 A 
HETATM   23  C   UNL     1      18.745  50.851  50.156  1.00  0.00     0.007 A 
HETATM   24  C   UNL     1      17.531  51.455  49.818  1.00  0.00     0.001 A 
HETATM   25  C   UNL     1      17.482  52.397  48.794  1.00  0.00     0.000 A 
HETATM   26  C   UNL     1      18.647  52.737  48.114  1.00  0.00     0.001 A 
HETATM   27  C   UNL     1      19.858  52.131  48.457  1.00  0.00     0.007 A 
ENDBRANCH  20  22
ENDBRANCH   3  19
TORSDOF 6
ENDMDL
MODEL 4
REMARK VINA RESULT:      -8.1      2.088     10.730
REMARK  6 active torsions:
REMARK  status: ('A' for Active; 'I' for Inactive)
REMARK    1  A    between atoms: C_2  and  O_3 
REMARK    2  A    between atoms: O_3  and  C_4 
REMARK    3  A    between atoms: C_8  and  C_9 
REMARK    4  A    between atoms: C_9  and  N_10 
REMARK       I    between atoms: N_10  and  C_11 
REMARK       I    between atoms: C_11  and  N_12 
REMARK    5  A    between atoms: N_12  and  C_13 
REMARK    6  A    between atoms: C_14  and  C_15 
ROOT
HETATM    1  N   UNL     1      24.328  46.801  50.328  1.00  0.00    -0.339 N 
HETATM    2  C   UNL     1      24.043  47.922  49.588  1.00  0.00     0.316 C 
HETATM    3  N   UNL     1      22.721  48.282  49.702  1.00  0.00    -0.338 N 
HETATM    4  O   UNL     1      24.872  48.534  48.926  1.00  0.00    -0.247 OA
HETATM    5  H   UNL     1      23.729  46.635  51.122  1.00  0.00     0.164 HD
HETATM    6  H   UNL     1      22.076  47.536  49.921  1.00  0.00     0.164 HD
ENDROOT
BRANCH   1   7
HETATM    7  C   UNL     1      25.683  46.307  50.431  1.00  0.00     0.163 C 
BRANCH   7   8
HETATM    8  C   UNL     1      26.078  46.034  51.859  1.00  0.00    -0.035 A 
HETATM    9  C   UNL     1      26.080  47.055  52.813  1.00  0.00     0.028 A 
HETATM   10  C   UNL     1      26.462  46.757  54.110  1.00  0.00     0.120 A 
HETATM   11  N   UNL     1      26.853  45.530  54.515  1.00  0.00    -0.237 NA
HETATM   12  C   UNL     1      26.867  44.561  53.583  1.00  0.00     0.165 A 
HETATM   13  C   UNL     1      26.474  44.756  52.265  1.00  0.00     0.066 A 
BRANCH  12  14
HETATM   14  O   UNL     1      27.256  43.282  53.910  1.00  0.00    -0.324 OA
BRANCH  14  15
HETATM   15  C   UNL     1      28.617  42.873  53.672  1.00  0.00     0.058 C 
HETATM   16  C   UNL     1      29.536  43.158  54.868  1.00  0.00     0.045 C 
HETATM   17  C   UNL     1      29.186  43.422  52.354  1.00  0.00     0.045 C 
HETATM   18  C   UNL     1      28.515  41.341  53.525  1.00  0.00     0.045 C 
ENDBRANCH  14  15
ENDBRANCH  12  14
ENDBRANCH   7   8
ENDBRANCH   1   7
BRANCH   3  19
HETATM   19  C   UNL     1      22.196  49.464  49.082  1.00  0.00     0.095 A 
HETATM   20  C   UNL     1      20.987  50.186  49.642  1.00  0.00     0.043 A 
HETATM   21  C   UNL     1      22.366  50.788  49.764  1.00  0.00     0.037 A 
BRANCH  20  22
HETATM   22  C   UNL     1      19.982  50.817  48.705  1.00  0.00    -0.052 A 
HETATM   23  C   UNL     1      19.357  52.036  49.015  1.00  0.00     0.007 A 
HETATM   24  C   UNL     1      18.426  52.619  48.150  1.00  0.00     0.001 A 
HETATM   25  C   UNL     1      18.106  51.993  46.948  1.00  0.00     0.000 A 
HETATM   26  C   UNL     1      18.720  50.790  46.611  1.00  0.00     0.001 A 
HETATM   27  C   UNL     1      19.649  50.214  47.480  1.00  0.00     0.007 A 
ENDBRANCH  20  22
ENDBRANCH   3  19
TORSDOF 6
ENDMDL
MODEL 5
REMARK VINA RESULT:      -8.1      1.961      3.111
REMARK  6 active torsions:
REMARK  status: ('A' for Active; 'I' for Inactive)
REMARK    1  A    between atoms: C_2  and  O_3 
REMARK    2  A    between atoms: O_3  and  C_4 
REMARK    3  A    between atoms: C_8  and  C_9 
REMARK    4  A    between atoms: C_9  and  N_10 
REMARK       I    between atoms: N_10  and  C_11 
REMARK       I    between atoms: C_11  and  N_12 
REMARK    5  A    between atoms: N_12  and  C_13 
REMARK    6  A    between atoms: C_14  and  C_15 
ROOT
HETATM    1  N   UNL     1      24.267  47.456  50.639  1.00  0.00    -0.339 N 
HETATM    2  C   UNL     1      25.450  46.778  50.806  1.00  0.00     0.316 C 
HETATM    3  N   UNL     1      25.463  46.063  51.981  1.00  0.00    -0.338 N 
HETATM    4  O   UNL     1      26.368  46.795  49.995  1.00  0.00    -0.247 OA
HETATM    5  H   UNL     1      23.466  47.064  51.110  1.00  0.00     0.164 HD
HETATM    6  H   UNL     1      24.873  46.416  52.720  1.00  0.00     0.164 HD
ENDROOT
BRANCH   1   7
HETATM    7  C   UNL     1      24.001  48.192  49.423  1.00  0.00     0.163 C 
BRANCH   7   8
HETATM    8  C   UNL     1      22.603  47.956  48.915  1.00  0.00    -0.035 A 
HETATM    9  C   UNL     1      22.306  46.855  48.107  1.00  0.00     0.028 A 
HETATM   10  C   UNL     1      21.008  46.687  47.656  1.00  0.00     0.120 A 
HETATM   11  N   UNL     1      19.999  47.539  47.936  1.00  0.00    -0.237 NA
HETATM   12  C   UNL     1      20.302  48.606  48.696  1.00  0.00     0.165 A 
HETATM   13  C   UNL     1      21.566  48.843  49.220  1.00  0.00     0.066 A 
BRANCH  12  14
HETATM   14  O   UNL     1      19.333  49.526  49.027  1.00  0.00    -0.324 OA
BRANCH  14  15
HETATM   15  C   UNL     1      19.084  50.639  48.147  1.00  0.00     0.058 C 
HETATM   16  C   UNL     1      19.457  50.334  46.690  1.00  0.00     0.045 C 
HETATM   17  C   UNL     1      19.711  51.951  48.648  1.00  0.00     0.045 C 
HETATM   18  C   UNL     1      17.552  50.812  48.204  1.00  0.00     0.045 C 
ENDBRANCH  14  15
ENDBRANCH  12  14
ENDBRANCH   7   8
ENDBRANCH   1   7
BRANCH   3  19
HETATM   19  C   UNL     1      26.560  45.215  52.344  1.00  0.00     0.095 A 
HETATM   20  C   UNL     1      26.661  44.592  53.722  1.00  0.00     0.043 A 
HETATM   21  C   UNL     1      26.324  43.744  52.519  1.00  0.00     0.037 A 
BRANCH  20  22
HETATM   22  C   UNL     1      28.011  44.436  54.385  1.00  0.00    -0.052 A 
HETATM   23  C   UNL     1      28.496  45.392  55.293  1.00  0.00     0.007 A 
HETATM   24  C   UNL     1      29.745  45.248  55.904  1.00  0.00     0.001 A 
HETATM   25  C   UNL     1      30.534  44.136  55.623  1.00  0.00     0.000 A 
HETATM   26  C   UNL     1      30.072  43.169  54.736  1.00  0.00     0.001 A 
HETATM   27  C   UNL     1      28.823  43.318  54.129  1.00  0.00     0.007 A 
ENDBRANCH  20  22
ENDBRANCH   3  19
TORSDOF 6
ENDMDL
MODEL 6
REMARK VINA RESULT:      -8.0      4.238      6.448
REMARK  6 active torsions:
REMARK  status: ('A' for Active; 'I' for Inactive)
REMARK    1  A    between atoms: C_2  and  O_3 
REMARK    2  A    between atoms: O_3  and  C_4 
REMARK    3  A    between atoms: C_8  and  C_9 
REMARK    4  A    between atoms: C_9  and  N_10 
REMARK       I    between atoms: N_10  and  C_11 
REMARK       I    between atoms: C_11  and  N_12 
REMARK    5  A    between atoms: N_12  and  C_13 
REMARK    6  A    between atoms: C_14  and  C_15 
ROOT
HETATM    1  N   UNL     1      25.446  44.939  51.597  1.00  0.00    -0.339 N 
HETATM    2  C   UNL     1      25.740  44.769  52.928  1.00  0.00     0.316 C 
HETATM    3  N   UNL     1      26.972  45.291  53.245  1.00  0.00    -0.338 N 
HETATM    4  O   UNL     1      24.985  44.238  53.733  1.00  0.00    -0.247 OA
HETATM    5  H   UNL     1      25.903  45.714  51.141  1.00  0.00     0.164 HD
HETATM    6  H   UNL     1      27.642  45.333  52.490  1.00  0.00     0.164 HD
ENDROOT
BRANCH   1   7
HETATM    7  C   UNL     1      24.155  44.553  51.069  1.00  0.00     0.163 C 
BRANCH   7   8
HETATM    8  C   UNL     1      24.245  43.327  50.201  1.00  0.00    -0.035 A 
HETATM    9  C   UNL     1      23.453  43.194  49.056  1.00  0.00     0.028 A 
HETATM   10  C   UNL     1      23.564  42.042  48.296  1.00  0.00     0.120 A 
HETATM   11  N   UNL     1      24.387  41.017  48.602  1.00  0.00    -0.237 NA
HETATM   12  C   UNL     1      25.127  41.146  49.717  1.00  0.00     0.165 A 
HETATM   13  C   UNL     1      25.107  42.275  50.526  1.00  0.00     0.066 A 
BRANCH  12  14
HETATM   14  O   UNL     1      25.989  40.146  50.104  1.00  0.00    -0.324 OA
BRANCH  14  15
HETATM   15  C   UNL     1      27.374  40.213  49.713  1.00  0.00     0.058 C 
HETATM   16  C   UNL     1      28.295  40.613  50.874  1.00  0.00     0.045 C 
HETATM   17  C   UNL     1      27.602  41.077  48.463  1.00  0.00     0.045 C 
HETATM   18  C   UNL     1      27.716  38.758  49.334  1.00  0.00     0.045 C 
ENDBRANCH  14  15
ENDBRANCH  12  14
ENDBRANCH   7   8
ENDBRANCH   1   7
BRANCH   3  19
HETATM   19  C   UNL     1      27.473  45.302  54.588  1.00  0.00     0.095 A 
HETATM   20  C   UNL     1      28.788  45.967  54.941  1.00  0.00     0.043 A 
HETATM   21  C   UNL     1      27.478  46.589  55.358  1.00  0.00     0.037 A 
BRANCH  20  22
HETATM   22  C   UNL     1      29.687  45.355  55.991  1.00  0.00    -0.052 A 
HETATM   23  C   UNL     1      30.507  44.251  55.702  1.00  0.00     0.007 A 
HETATM   24  C   UNL     1      31.336  43.685  56.674  1.00  0.00     0.001 A 
HETATM   25  C   UNL     1      31.368  44.218  57.959  1.00  0.00     0.000 A 
HETATM   26  C   UNL     1      30.574  45.319  58.269  1.00  0.00     0.001 A 
HETATM   27  C   UNL     1      29.748  45.881  57.293  1.00  0.00     0.007 A 
ENDBRANCH  20  22
ENDBRANCH   3  19
TORSDOF 6
ENDMDL
MODEL 7
REMARK VINA RESULT:      -8.0      2.838     10.824
REMARK  6 active torsions:
REMARK  status: ('A' for Active; 'I' for Inactive)
REMARK    1  A    between atoms: C_2  and  O_3 
REMARK    2  A    between atoms: O_3  and  C_4 
REMARK    3  A    between atoms: C_8  and  C_9 
REMARK    4  A    between atoms: C_9  and  N_10 
REMARK       I    between atoms: N_10  and  C_11 
REMARK       I    between atoms: C_11  and  N_12 
REMARK    5  A    between atoms: N_12  and  C_13 
REMARK    6  A    between atoms: C_14  and  C_15 
ROOT
HETATM    1  N   UNL     1      24.260  46.978  50.278  1.00  0.00    -0.339 N 
HETATM    2  C   UNL     1      23.938  48.184  49.706  1.00  0.00     0.316 C 
HETATM    3  N   UNL     1      22.576  48.359  49.627  1.00  0.00    -0.338 N 
HETATM    4  O   UNL     1      24.764  49.007  49.334  1.00  0.00    -0.247 OA
HETATM    5  H   UNL     1      23.569  46.588  50.901  1.00  0.00     0.164 HD
HETATM    6  H   UNL     1      22.023  47.515  49.583  1.00  0.00     0.164 HD
ENDROOT
BRANCH   1   7
HETATM    7  C   UNL     1      25.638  46.632  50.550  1.00  0.00     0.163 C 
BRANCH   7   8
HETATM    8  C   UNL     1      25.808  45.160  50.817  1.00  0.00    -0.035 A 
HETATM    9  C   UNL     1      24.717  44.287  50.765  1.00  0.00     0.028 A 
HETATM   10  C   UNL     1      24.923  42.944  51.030  1.00  0.00     0.120 A 
HETATM   11  N   UNL     1      26.122  42.417  51.356  1.00  0.00    -0.237 NA
HETATM   12  C   UNL     1      27.159  43.269  51.423  1.00  0.00     0.165 A 
HETATM   13  C   UNL     1      27.058  44.627  51.146  1.00  0.00     0.066 A 
BRANCH  12  14
HETATM   14  O   UNL     1      28.417  42.816  51.752  1.00  0.00    -0.324 OA
BRANCH  14  15
HETATM   15  C   UNL     1      28.703  42.446  53.114  1.00  0.00     0.058 C 
HETATM   16  C   UNL     1      28.564  40.937  53.357  1.00  0.00     0.045 C 
HETATM   17  C   UNL     1      27.914  43.276  54.139  1.00  0.00     0.045 C 
HETATM   18  C   UNL     1      30.193  42.804  53.283  1.00  0.00     0.045 C 
ENDBRANCH  14  15
ENDBRANCH  12  14
ENDBRANCH   7   8
ENDBRANCH   1   7
BRANCH   3  19
HETATM   19  C   UNL     1      21.991  49.572  49.135  1.00  0.00     0.095 A 
HETATM   20  C   UNL     1      20.622  50.036  49.591  1.00  0.00     0.043 A 
HETATM   21  C   UNL     1      21.868  50.752  50.052  1.00  0.00     0.037 A 
BRANCH  20  22
HETATM   22  C   UNL     1      19.691  50.720  48.615  1.00  0.00    -0.052 A 
HETATM   23  C   UNL     1      19.134  50.029  47.526  1.00  0.00     0.007 A 
HETATM   24  C   UNL     1      18.276  50.662  46.623  1.00  0.00     0.001 A 
HETATM   25  C   UNL     1      17.950  52.005  46.796  1.00  0.00     0.000 A 
HETATM   26  C   UNL     1      18.479  52.710  47.873  1.00  0.00     0.001 A 
HETATM   27  C   UNL     1      19.336  52.071  48.772  1.00  0.00     0.007 A 
ENDBRANCH  20  22
ENDBRANCH   3  19
TORSDOF 6
ENDMDL
MODEL 8
REMARK VINA RESULT:      -7.9      2.135      2.997
REMARK  6 active torsions:
REMARK  status: ('A' for Active; 'I' for Inactive)
REMARK    1  A    between atoms: C_2  and  O_3 
REMARK    2  A    between atoms: O_3  and  C_4 
REMARK    3  A    between atoms: C_8  and  C_9 
REMARK    4  A    between atoms: C_9  and  N_10 
REMARK       I    between atoms: N_10  and  C_11 
REMARK       I    between atoms: C_11  and  N_12 
REMARK    5  A    between atoms: N_12  and  C_13 
REMARK    6  A    between atoms: C_14  and  C_15 
ROOT
HETATM    1  N   UNL     1      23.760  45.497  50.165  1.00  0.00    -0.339 N 
HETATM    2  C   UNL     1      25.109  45.310  50.341  1.00  0.00     0.316 C 
HETATM    3  N   UNL     1      25.398  44.877  51.614  1.00  0.00    -0.338 N 
HETATM    4  O   UNL     1      25.944  45.488  49.464  1.00  0.00    -0.247 OA
HETATM    5  H   UNL     1      23.158  44.951  50.762  1.00  0.00     0.164 HD
HETATM    6  H   UNL     1      24.736  45.138  52.331  1.00  0.00     0.164 HD
ENDROOT
BRANCH   1   7
HETATM    7  C   UNL     1      23.225  45.856  48.869  1.00  0.00     0.163 C 
BRANCH   7   8
HETATM    8  C   UNL     1      22.544  47.199  48.892  1.00  0.00    -0.035 A 
HETATM    9  C   UNL     1      23.217  48.341  49.336  1.00  0.00     0.028 A 
HETATM   10  C   UNL     1      22.543  49.551  49.349  1.00  0.00     0.120 A 
HETATM   11  N   UNL     1      21.256  49.698  48.972  1.00  0.00    -0.237 NA
HETATM   12  C   UNL     1      20.613  48.589  48.568  1.00  0.00     0.165 A 
HETATM   13  C   UNL     1      21.212  47.338  48.492  1.00  0.00     0.066 A 
BRANCH  12  14
HETATM   14  O   UNL     1      19.297  48.649  48.170  1.00  0.00    -0.324 OA
BRANCH  14  15
HETATM   15  C   UNL     1      18.255  48.655  49.165  1.00  0.00     0.058 C 
HETATM   16  C   UNL     1      18.803  48.531  50.593  1.00  0.00     0.045 C 
HETATM   17  C   UNL     1      17.144  47.633  48.876  1.00  0.00     0.045 C 
HETATM   18  C   UNL     1      17.632  50.060  49.031  1.00  0.00     0.045 C 
ENDBRANCH  14  15
ENDBRANCH  12  14
ENDBRANCH   7   8
ENDBRANCH   1   7
BRANCH   3  19
HETATM   19  C   UNL     1      26.731  44.539  52.020  1.00  0.00     0.095 A 
HETATM   20  C   UNL     1      26.996  43.676  53.237  1.00  0.00     0.043 A 
HETATM   21  C   UNL     1      27.216  43.131  51.846  1.00  0.00     0.037 A 
BRANCH  20  22
HETATM   22  C   UNL     1      28.191  43.960  54.119  1.00  0.00    -0.052 A 
HETATM   23  C   UNL     1      29.289  43.084  54.170  1.00  0.00     0.007 A 
HETATM   24  C   UNL     1      30.392  43.346  54.988  1.00  0.00     0.001 A 
HETATM   25  C   UNL     1      30.422  44.498  55.769  1.00  0.00     0.000 A 
HETATM   26  C   UNL     1      29.353  45.388  55.728  1.00  0.00     0.001 A 
HETATM   27  C   UNL     1      28.254  45.121  54.908  1.00  0.00     0.007 A 
ENDBRANCH  20  22
ENDBRANCH   3  19
TORSDOF 6
ENDMDL
MODEL 9
REMARK VINA RESULT:      -7.9      1.723      2.047
REMARK  6 active torsions:
REMARK  status: ('A' for Active; 'I' for Inactive)
REMARK    1  A    between atoms: C_2  and  O_3 
REMARK    2  A    between atoms: O_3  and  C_4 
REMARK    3  A    between atoms: C_8  and  C_9 
REMARK    4  A    between atoms: C_9  and  N_10 
REMARK       I    between atoms: N_10  and  C_11 
REMARK       I    between atoms: C_11  and  N_12 
REMARK    5  A    between atoms: N_12  and  C_13 
REMARK    6  A    between atoms: C_14  and  C_15 
ROOT
HETATM    1  N   UNL     1      25.569  44.445  51.033  1.00  0.00    -0.339 N 
HETATM    2  C   UNL     1      25.741  44.395  52.394  1.00  0.00     0.316 C 
HETATM    3  N   UNL     1      27.062  44.552  52.744  1.00  0.00    -0.338 N 
HETATM    4  O   UNL     1      24.825  44.249  53.195  1.00  0.00    -0.247 OA
HETATM    5  H   UNL     1      26.266  44.963  50.521  1.00  0.00     0.164 HD
HETATM    6  H   UNL     1      27.740  44.272  52.050  1.00  0.00     0.164 HD
ENDROOT
BRANCH   1   7
HETATM    7  C   UNL     1      24.245  44.401  50.452  1.00  0.00     0.163 C 
BRANCH   7   8
HETATM    8  C   UNL     1      23.871  45.706  49.801  1.00  0.00    -0.035 A 
HETATM    9  C   UNL     1      24.499  46.900  50.167  1.00  0.00     0.028 A 
HETATM   10  C   UNL     1      24.111  48.076  49.548  1.00  0.00     0.120 A 
HETATM   11  N   UNL     1      23.142  48.149  48.612  1.00  0.00    -0.237 NA
HETATM   12  C   UNL     1      22.531  46.997  48.283  1.00  0.00     0.165 A 
HETATM   13  C   UNL     1      22.869  45.765  48.827  1.00  0.00     0.066 A 
BRANCH  12  14
HETATM   14  O   UNL     1      21.528  46.982  47.340  1.00  0.00    -0.324 OA
BRANCH  14  15
HETATM   15  C   UNL     1      20.171  47.244  47.745  1.00  0.00     0.058 C 
HETATM   16  C   UNL     1      20.081  47.845  49.155  1.00  0.00     0.045 C 
HETATM   17  C   UNL     1      19.247  46.028  47.569  1.00  0.00     0.045 C 
HETATM   18  C   UNL     1      19.698  48.327  46.753  1.00  0.00     0.045 C 
ENDBRANCH  14  15
ENDBRANCH  12  14
ENDBRANCH   7   8
ENDBRANCH   1   7
BRANCH   3  19
HETATM   19  C   UNL     1      27.486  44.611  54.112  1.00  0.00     0.095 A 
HETATM   20  C   UNL     1      28.657  45.470  54.545  1.00  0.00     0.043 A 
HETATM   21  C   UNL     1      27.243  45.862  54.903  1.00  0.00     0.037 A 
BRANCH  20  22
HETATM   22  C   UNL     1      29.590  44.986  55.632  1.00  0.00    -0.052 A 
HETATM   23  C   UNL     1      30.400  43.852  55.451  1.00  0.00     0.007 A 
HETATM   24  C   UNL     1      31.260  43.403  56.456  1.00  0.00     0.001 A 
HETATM   25  C   UNL     1      31.334  44.087  57.667  1.00  0.00     0.000 A 
HETATM   26  C   UNL     1      30.552  45.220  57.867  1.00  0.00     0.001 A 
HETATM   27  C   UNL     1      29.694  45.664  56.858  1.00  0.00     0.007 A 
ENDBRANCH  20  22
ENDBRANCH   3  19
TORSDOF 6
ENDMDL
MODEL 10
REMARK VINA RESULT:      -7.9      2.091      3.455
REMARK  6 active torsions:
REMARK  status: ('A' for Active; 'I' for Inactive)
REMARK    1  A    between atoms: C_2  and  O_3 
REMARK    2  A    between atoms: O_3  and  C_4 
REMARK    3  A    between atoms: C_8  and  C_9 
REMARK    4  A    between atoms: C_9  and  N_10 
REMARK       I    between atoms: N_10  and  C_11 
REMARK       I    between atoms: C_11  and  N_12 
REMARK    5  A    between atoms: N_12  and  C_13 
REMARK    6  A    between atoms: C_14  and  C_15 
ROOT
HETATM    1  N   UNL     1      23.900  47.841  50.277  1.00  0.00    -0.339 N 
HETATM    2  C   UNL     1      24.899  46.925  50.498  1.00  0.00     0.316 C 
HETATM    3  N   UNL     1      25.053  46.657  51.838  1.00  0.00    -0.338 N 
HETATM    4  O   UNL     1      25.555  46.400  49.607  1.00  0.00    -0.247 OA
HETATM    5  H   UNL     1      23.181  47.885  50.982  1.00  0.00     0.164 HD
HETATM    6  H   UNL     1      24.770  47.391  52.472  1.00  0.00     0.164 HD
ENDROOT
BRANCH   1   7
HETATM    7  C   UNL     1      23.503  48.193  48.931  1.00  0.00     0.163 C 
BRANCH   7   8
HETATM    8  C   UNL     1      22.250  49.028  48.912  1.00  0.00    -0.035 A 
HETATM    9  C   UNL     1      22.303  50.401  48.652  1.00  0.00     0.028 A 
HETATM   10  C   UNL     1      21.125  51.128  48.658  1.00  0.00     0.120 A 
HETATM   11  N   UNL     1      19.913  50.593  48.918  1.00  0.00    -0.237 NA
HETATM   12  C   UNL     1      19.878  49.277  49.188  1.00  0.00     0.165 A 
HETATM   13  C   UNL     1      21.001  48.459  49.177  1.00  0.00     0.066 A 
BRANCH  12  14
HETATM   14  O   UNL     1      18.684  48.652  49.469  1.00  0.00    -0.324 OA
BRANCH  14  15
HETATM   15  C   UNL     1      17.688  48.530  48.435  1.00  0.00     0.058 C 
HETATM   16  C   UNL     1      18.296  48.179  47.069  1.00  0.00     0.045 C 
HETATM   17  C   UNL     1      16.750  49.745  48.360  1.00  0.00     0.045 C 
HETATM   18  C   UNL     1      16.841  47.323  48.886  1.00  0.00     0.045 C 
ENDBRANCH  14  15
ENDBRANCH  12  14
ENDBRANCH   7   8
ENDBRANCH   1   7
BRANCH   3  19
HETATM   19  C   UNL     1      25.984  45.678  52.317  1.00  0.00     0.095 A 
HETATM   20  C   UNL     1      26.122  45.369  53.795  1.00  0.00     0.043 A 
HETATM   21  C   UNL     1      25.467  44.379  52.862  1.00  0.00     0.037 A 
BRANCH  20  22
HETATM   22  C   UNL     1      27.481  45.052  54.377  1.00  0.00    -0.052 A 
HETATM   23  C   UNL     1      28.164  45.974  55.188  1.00  0.00     0.007 A 
HETATM   24  C   UNL     1      29.421  45.682  55.724  1.00  0.00     0.001 A 
HETATM   25  C   UNL     1      30.020  44.452  55.465  1.00  0.00     0.000 A 
HETATM   26  C   UNL     1      29.360  43.516  54.674  1.00  0.00     0.001 A 
HETATM   27  C   UNL     1      28.104  43.814  54.142  1.00  0.00     0.007 A 
ENDBRANCH  20  22
ENDBRANCH   3  19
TORSDOF 6
ENDMDL
