MODEL 1
REMARK VINA RESULT:      -9.8      0.000      0.000
REMARK  5 active torsions:
REMARK  status: ('A' for Active; 'I' for Inactive)
REMARK    1  A    between atoms: C_4  and  C_5 
REMARK    2  A    between atoms: C_5  and  C_6 
REMARK    3  A    between atoms: C_6  and  C_7 
REMARK       I    between atoms: C_7  and  N_8 
REMARK    4  A    between atoms: N_8  and  C_9 
REMARK    5  A    between atoms: C_11  and  C_12 
ROOT
HETATM    1  C   UNL     1      26.548  46.338  53.261  1.00  0.00     0.222 C 
HETATM    2  N   UNL     1      27.035  45.081  52.970  1.00  0.00    -0.327 N 
HETATM    3  O   UNL     1      26.988  47.087  54.133  1.00  0.00    -0.273 OA
HETATM    4  H   UNL     1      26.544  44.537  52.273  1.00  0.00     0.169 HD
ENDROOT
BRANCH   2   5
HETATM    5  C   UNL     1      28.180  44.450  53.503  1.00  0.00     0.035 A 
HETATM    6  C   UNL     1      28.734  44.746  54.752  1.00  0.00     0.042 A 
HETATM    7  C   UNL     1      29.906  44.109  55.196  1.00  0.00    -0.021 A 
HETATM    8  C   UNL     1      30.510  43.152  54.371  1.00  0.00     0.012 A 
HETATM    9  C   UNL     1      29.962  42.844  53.127  1.00  0.00     0.003 A 
HETATM   10  C   UNL     1      28.806  43.493  52.694  1.00  0.00     0.029 A 
BRANCH   7  11
HETATM   11  C   UNL     1      30.497  44.436  56.485  1.00  0.00     0.010 A 
HETATM   12  C   UNL     1      31.477  43.765  57.255  1.00  0.00     0.152 A 
HETATM   13  N   UNL     1      31.778  44.405  58.388  1.00  0.00    -0.187 NA
HETATM   14  N   UNL     1      30.987  45.489  58.353  1.00  0.00    -0.289 N 
HETATM   15  H   UNL     1      31.033  46.146  59.125  1.00  0.00     0.188 HD
HETATM   16  C   UNL     1      30.209  45.558  57.234  1.00  0.00     0.123 A 
ENDBRANCH   7  11
ENDBRANCH   2   5
BRANCH   1  17
HETATM   17  C   UNL     1      25.425  46.855  52.363  1.00  0.00     0.108 C 
BRANCH  17  18
HETATM   18  C   UNL     1      25.503  46.589  50.860  1.00  0.00     0.048 C 
BRANCH  18  19
HETATM   19  C   UNL     1      25.705  47.769  49.929  1.00  0.00    -0.057 A 
HETATM   20  C   UNL     1      24.656  48.471  49.316  1.00  0.00     0.013 A 
HETATM   21  C   UNL     1      24.907  49.585  48.501  1.00  0.00    -0.061 A 
HETATM   22  C   UNL     1      23.777  50.366  47.896  1.00  0.00     0.048 C 
HETATM   23  C   UNL     1      26.228  49.984  48.276  1.00  0.00     0.007 A 
HETATM   24  C   UNL     1      27.281  49.281  48.854  1.00  0.00     0.001 A 
HETATM   25  C   UNL     1      27.022  48.185  49.677  1.00  0.00     0.007 A 
ENDBRANCH  18  19
ENDBRANCH  17  18
ENDBRANCH   1  17
TORSDOF 5
ENDMDL
MODEL 2
REMARK VINA RESULT:      -9.5      2.692      8.806
REMARK  5 active torsions:
REMARK  status: ('A' for Active; 'I' for Inactive)
REMARK    1  A    between atoms: C_4  and  C_5 
REMARK    2  A    between atoms: C_5  and  C_6 
REMARK    3  A    between atoms: C_6  and  C_7 
REMARK       I    between atoms: C_7  and  N_8 
REMARK    4  A    between atoms: N_8  and  C_9 
REMARK    5  A    between atoms: C_11  and  C_12 
ROOT
HETATM    1  C   UNL     1      26.177  47.240  54.101  1.00  0.00     0.222 C 
HETATM    2  N   UNL     1      26.321  46.418  53.004  1.00  0.00    -0.327 N 
HETATM    3  O   UNL     1      25.387  48.180  54.186  1.00  0.00    -0.273 OA
HETATM    4  H   UNL     1      27.053  45.720  53.033  1.00  0.00     0.169 HD
ENDROOT
BRANCH   2   5
HETATM    5  C   UNL     1      25.539  46.393  51.829  1.00  0.00     0.035 A 
HETATM    6  C   UNL     1      25.399  47.473  50.953  1.00  0.00     0.042 A 
HETATM    7  C   UNL     1      24.564  47.391  49.826  1.00  0.00    -0.021 A 
HETATM    8  C   UNL     1      23.877  46.196  49.578  1.00  0.00     0.012 A 
HETATM    9  C   UNL     1      24.015  45.110  50.441  1.00  0.00     0.003 A 
HETATM   10  C   UNL     1      24.838  45.210  51.562  1.00  0.00     0.029 A 
BRANCH   7  11
HETATM   11  C   UNL     1      24.398  48.525  48.928  1.00  0.00     0.010 A 
HETATM   12  C   UNL     1      23.277  48.965  48.184  1.00  0.00     0.152 A 
HETATM   13  N   UNL     1      23.518  50.078  47.487  1.00  0.00    -0.187 NA
HETATM   14  N   UNL     1      24.799  50.356  47.777  1.00  0.00    -0.289 N 
HETATM   15  H   UNL     1      25.222  51.175  47.355  1.00  0.00     0.188 HD
HETATM   16  C   UNL     1      25.366  49.463  48.639  1.00  0.00     0.123 A 
ENDBRANCH   7  11
ENDBRANCH   2   5
BRANCH   1  17
HETATM   17  C   UNL     1      27.018  46.889  55.328  1.00  0.00     0.108 C 
BRANCH  17  18
HETATM   18  C   UNL     1      28.539  46.845  55.189  1.00  0.00     0.048 C 
BRANCH  18  19
HETATM   19  C   UNL     1      29.229  45.496  55.241  1.00  0.00    -0.057 A 
HETATM   20  C   UNL     1      30.263  45.178  56.135  1.00  0.00     0.013 A 
HETATM   21  C   UNL     1      30.829  43.895  56.165  1.00  0.00    -0.061 A 
HETATM   22  C   UNL     1      31.895  43.548  57.164  1.00  0.00     0.048 C 
HETATM   23  C   UNL     1      30.372  42.925  55.269  1.00  0.00     0.007 A 
HETATM   24  C   UNL     1      29.365  43.231  54.357  1.00  0.00     0.001 A 
HETATM   25  C   UNL     1      28.796  44.505  54.346  1.00  0.00     0.007 A 
ENDBRANCH  18  19
ENDBRANCH  17  18
ENDBRANCH   1  17
TORSDOF 5
ENDMDL
MODEL 3
REMARK VINA RESULT:      -9.3      3.128      9.545
REMARK  5 active torsions:
REMARK  status: ('A' for Active; 'I' for Inactive)
REMARK    1  A    between atoms: C_4  and  C_5 
REMARK    2  A    between atoms: C_5  and  C_6 
REMARK    3  A    between atoms: C_6  and  C_7 
REMARK       I    between atoms: C_7  and  N_8 
REMARK    4  A    between atoms: N_8  and  C_9 
REMARK    5  A    between atoms: C_11  and  C_12 
ROOT
HETATM    1  C   UNL     1      25.905  46.759  51.920  1.00  0.00     0.222 C 
HETATM    2  N   UNL     1      26.013  46.865  50.550  1.00  0.00    -0.327 N 
HETATM    3  O   UNL     1      25.570  47.667  52.680  1.00  0.00    -0.273 OA
HETATM    4  H   UNL     1      26.362  46.062  50.042  1.00  0.00     0.169 HD
ENDROOT
BRANCH   2   5
HETATM    5  C   UNL     1      25.655  47.960  49.734  1.00  0.00     0.035 A 
HETATM    6  C   UNL     1      24.339  48.355  49.477  1.00  0.00     0.042 A 
HETATM    7  C   UNL     1      24.058  49.429  48.614  1.00  0.00    -0.021 A 
HETATM    8  C   UNL     1      25.124  50.117  48.021  1.00  0.00     0.012 A 
HETATM    9  C   UNL     1      26.441  49.735  48.275  1.00  0.00     0.003 A 
HETATM   10  C   UNL     1      26.704  48.661  49.124  1.00  0.00     0.029 A 
BRANCH   7  11
HETATM   11  C   UNL     1      22.687  49.823  48.327  1.00  0.00     0.010 A 
HETATM   12  C   UNL     1      21.617  49.104  47.742  1.00  0.00     0.152 A 
HETATM   13  N   UNL     1      20.489  49.817  47.669  1.00  0.00    -0.187 NA
HETATM   14  N   UNL     1      20.833  51.000  48.203  1.00  0.00    -0.289 N 
HETATM   15  H   UNL     1      20.128  51.727  48.259  1.00  0.00     0.188 HD
HETATM   16  C   UNL     1      22.132  51.051  48.617  1.00  0.00     0.123 A 
ENDBRANCH   7  11
ENDBRANCH   2   5
BRANCH   1  17
HETATM   17  C   UNL     1      26.149  45.372  52.515  1.00  0.00     0.108 C 
BRANCH  17  18
HETATM   18  C   UNL     1      26.912  45.260  53.834  1.00  0.00     0.048 C 
BRANCH  18  19
HETATM   19  C   UNL     1      28.188  44.441  53.860  1.00  0.00    -0.057 A 
HETATM   20  C   UNL     1      29.038  44.350  54.973  1.00  0.00     0.013 A 
HETATM   21  C   UNL     1      30.181  43.537  54.950  1.00  0.00    -0.061 A 
HETATM   22  C   UNL     1      31.053  43.402  56.165  1.00  0.00     0.048 C 
HETATM   23  C   UNL     1      30.490  42.825  53.787  1.00  0.00     0.007 A 
HETATM   24  C   UNL     1      29.672  42.925  52.665  1.00  0.00     0.001 A 
HETATM   25  C   UNL     1      28.529  43.723  52.703  1.00  0.00     0.007 A 
ENDBRANCH  18  19
ENDBRANCH  17  18
ENDBRANCH   1  17
TORSDOF 5
ENDMDL
MODEL 4
REMARK VINA RESULT:      -8.8      4.024     10.086
REMARK  5 active torsions:
REMARK  status: ('A' for Active; 'I' for Inactive)
REMARK    1  A    between atoms: C_4  and  C_5 
REMARK    2  A    between atoms: C_5  and  C_6 
REMARK    3  A    between atoms: C_6  and  C_7 
REMARK       I    between atoms: C_7  and  N_8 
REMARK    4  A    between atoms: N_8  and  C_9 
REMARK    5  A    between atoms: C_11  and  C_12 
ROOT
HETATM    1  C   UNL     1      24.856  47.028  50.762  1.00  0.00     0.222 C 
HETATM    2  N   UNL     1      23.824  47.336  49.900  1.00  0.00    -0.327 N 
HETATM    3  O   UNL     1      25.736  47.807  51.124  1.00  0.00    -0.273 OA
HETATM    4  H   UNL     1      23.200  46.587  49.628  1.00  0.00     0.169 HD
ENDROOT
BRANCH   2   5
HETATM    5  C   UNL     1      23.490  48.598  49.363  1.00  0.00     0.035 A 
HETATM    6  C   UNL     1      22.266  49.241  49.562  1.00  0.00     0.042 A 
HETATM    7  C   UNL     1      21.986  50.477  48.955  1.00  0.00    -0.021 A 
HETATM    8  C   UNL     1      22.966  51.073  48.151  1.00  0.00     0.012 A 
HETATM    9  C   UNL     1      24.195  50.444  47.951  1.00  0.00     0.003 A 
HETATM   10  C   UNL     1      24.453  49.212  48.551  1.00  0.00     0.029 A 
BRANCH   7  11
HETATM   11  C   UNL     1      20.701  51.133  49.141  1.00  0.00     0.010 A 
HETATM   12  C   UNL     1      19.961  51.988  48.289  1.00  0.00     0.152 A 
HETATM   13  N   UNL     1      18.797  52.372  48.818  1.00  0.00    -0.187 NA
HETATM   14  N   UNL     1      18.785  51.768  50.017  1.00  0.00    -0.289 N 
HETATM   15  H   UNL     1      17.984  51.912  50.622  1.00  0.00     0.188 HD
HETATM   16  C   UNL     1      19.896  51.012  50.255  1.00  0.00     0.123 A 
ENDBRANCH   7  11
ENDBRANCH   2   5
BRANCH   1  17
HETATM   17  C   UNL     1      24.839  45.624  51.366  1.00  0.00     0.108 C 
BRANCH  17  18
HETATM   18  C   UNL     1      26.050  44.717  51.153  1.00  0.00     0.048 C 
BRANCH  18  19
HETATM   19  C   UNL     1      27.038  44.554  52.292  1.00  0.00    -0.057 A 
HETATM   20  C   UNL     1      28.150  43.699  52.248  1.00  0.00     0.013 A 
HETATM   21  C   UNL     1      29.054  43.628  53.319  1.00  0.00    -0.061 A 
HETATM   22  C   UNL     1      30.272  42.754  53.240  1.00  0.00     0.048 C 
HETATM   23  C   UNL     1      28.825  44.404  54.459  1.00  0.00     0.007 A 
HETATM   24  C   UNL     1      27.712  45.237  54.530  1.00  0.00     0.001 A 
HETATM   25  C   UNL     1      26.828  45.314  53.453  1.00  0.00     0.007 A 
ENDBRANCH  18  19
ENDBRANCH  17  18
ENDBRANCH   1  17
TORSDOF 5
ENDMDL
MODEL 5
REMARK VINA RESULT:      -8.7      3.291      9.321
REMARK  5 active torsions:
REMARK  status: ('A' for Active; 'I' for Inactive)
REMARK    1  A    between atoms: C_4  and  C_5 
REMARK    2  A    between atoms: C_5  and  C_6 
REMARK    3  A    between atoms: C_6  and  C_7 
REMARK       I    between atoms: C_7  and  N_8 
REMARK    4  A    between atoms: N_8  and  C_9 
REMARK    5  A    between atoms: C_11  and  C_12 
ROOT
HETATM    1  C   UNL     1      26.478  45.334  50.118  1.00  0.00     0.222 C 
HETATM    2  N   UNL     1      26.638  46.665  50.444  1.00  0.00    -0.327 N 
HETATM    3  O   UNL     1      25.796  44.908  49.187  1.00  0.00    -0.273 OA
HETATM    4  H   UNL     1      27.174  46.883  51.275  1.00  0.00     0.169 HD
ENDROOT
BRANCH   2   5
HETATM    5  C   UNL     1      26.175  47.794  49.735  1.00  0.00     0.035 A 
HETATM    6  C   UNL     1      24.826  48.098  49.533  1.00  0.00     0.042 A 
HETATM    7  C   UNL     1      24.439  49.216  48.774  1.00  0.00    -0.021 A 
HETATM    8  C   UNL     1      25.432  50.041  48.230  1.00  0.00     0.012 A 
HETATM    9  C   UNL     1      26.781  49.751  48.432  1.00  0.00     0.003 A 
HETATM   10  C   UNL     1      27.149  48.631  49.177  1.00  0.00     0.029 A 
BRANCH   7  11
HETATM   11  C   UNL     1      23.034  49.518  48.541  1.00  0.00     0.010 A 
HETATM   12  C   UNL     1      22.377  50.746  48.287  1.00  0.00     0.152 A 
HETATM   13  N   UNL     1      21.063  50.604  48.100  1.00  0.00    -0.187 NA
HETATM   14  N   UNL     1      20.868  49.283  48.237  1.00  0.00    -0.289 N 
HETATM   15  H   UNL     1      19.926  48.920  48.138  1.00  0.00     0.188 HD
HETATM   16  C   UNL     1      22.015  48.590  48.494  1.00  0.00     0.123 A 
ENDBRANCH   7  11
ENDBRANCH   2   5
BRANCH   1  17
HETATM   17  C   UNL     1      27.286  44.332  50.942  1.00  0.00     0.108 C 
BRANCH  17  18
HETATM   18  C   UNL     1      27.000  44.209  52.438  1.00  0.00     0.048 C 
BRANCH  18  19
HETATM   19  C   UNL     1      28.176  44.124  53.392  1.00  0.00    -0.057 A 
HETATM   20  C   UNL     1      28.355  44.975  54.493  1.00  0.00     0.013 A 
HETATM   21  C   UNL     1      29.441  44.815  55.366  1.00  0.00    -0.061 A 
HETATM   22  C   UNL     1      29.593  45.694  56.573  1.00  0.00     0.048 C 
HETATM   23  C   UNL     1      30.375  43.804  55.117  1.00  0.00     0.007 A 
HETATM   24  C   UNL     1      30.227  42.968  54.014  1.00  0.00     0.001 A 
HETATM   25  C   UNL     1      29.134  43.124  53.161  1.00  0.00     0.007 A 
ENDBRANCH  18  19
ENDBRANCH  17  18
ENDBRANCH   1  17
TORSDOF 5
ENDMDL
MODEL 6
REMARK VINA RESULT:      -8.4      3.395      5.283
REMARK  5 active torsions:
REMARK  status: ('A' for Active; 'I' for Inactive)
REMARK    1  A    between atoms: C_4  and  C_5 
REMARK    2  A    between atoms: C_5  and  C_6 
REMARK    3  A    between atoms: C_6  and  C_7 
REMARK       I    between atoms: C_7  and  N_8 
REMARK    4  A    between atoms: N_8  and  C_9 
REMARK    5  A    between atoms: C_11  and  C_12 
ROOT
HETATM    1  C   UNL     1      28.555  41.364  52.664  1.00  0.00     0.222 C 
HETATM    2  N   UNL     1      29.224  42.570  52.694  1.00  0.00    -0.327 N 
HETATM    3  O   UNL     1      27.916  40.882  53.599  1.00  0.00    -0.273 OA
HETATM    4  H   UNL     1      29.768  42.826  51.880  1.00  0.00     0.169 HD
ENDROOT
BRANCH   2   5
HETATM    5  C   UNL     1      29.222  43.537  53.723  1.00  0.00     0.035 A 
HETATM    6  C   UNL     1      28.304  44.587  53.814  1.00  0.00     0.042 A 
HETATM    7  C   UNL     1      28.394  45.542  54.842  1.00  0.00    -0.021 A 
HETATM    8  C   UNL     1      29.414  45.419  55.793  1.00  0.00     0.012 A 
HETATM    9  C   UNL     1      30.331  44.371  55.715  1.00  0.00     0.003 A 
HETATM   10  C   UNL     1      30.237  43.438  54.683  1.00  0.00     0.029 A 
BRANCH   7  11
HETATM   11  C   UNL     1      27.454  46.651  54.922  1.00  0.00     0.010 A 
HETATM   12  C   UNL     1      26.420  47.058  54.046  1.00  0.00     0.152 A 
HETATM   13  N   UNL     1      25.752  48.127  54.487  1.00  0.00    -0.187 NA
HETATM   14  N   UNL     1      26.360  48.415  55.649  1.00  0.00    -0.289 N 
HETATM   15  H   UNL     1      26.025  49.208  56.186  1.00  0.00     0.188 HD
HETATM   16  C   UNL     1      27.377  47.559  55.957  1.00  0.00     0.123 A 
ENDBRANCH   7  11
ENDBRANCH   2   5
BRANCH   1  17
HETATM   17  C   UNL     1      28.551  40.624  51.327  1.00  0.00     0.108 C 
BRANCH  17  18
HETATM   18  C   UNL     1      27.307  40.709  50.443  1.00  0.00     0.048 C 
BRANCH  18  19
HETATM   19  C   UNL     1      26.538  42.015  50.403  1.00  0.00    -0.057 A 
HETATM   20  C   UNL     1      27.122  43.260  50.123  1.00  0.00     0.013 A 
HETATM   21  C   UNL     1      26.347  44.427  50.055  1.00  0.00    -0.061 A 
HETATM   22  C   UNL     1      26.972  45.745  49.697  1.00  0.00     0.048 C 
HETATM   23  C   UNL     1      24.973  44.351  50.298  1.00  0.00     0.007 A 
HETATM   24  C   UNL     1      24.382  43.128  50.605  1.00  0.00     0.001 A 
HETATM   25  C   UNL     1      25.157  41.970  50.653  1.00  0.00     0.007 A 
ENDBRANCH  18  19
ENDBRANCH  17  18
ENDBRANCH   1  17
TORSDOF 5
ENDMDL
MODEL 7
REMARK VINA RESULT:      -8.3      1.865      2.725
REMARK  5 active torsions:
REMARK  status: ('A' for Active; 'I' for Inactive)
REMARK    1  A    between atoms: C_4  and  C_5 
REMARK    2  A    between atoms: C_5  and  C_6 
REMARK    3  A    between atoms: C_6  and  C_7 
REMARK       I    between atoms: C_7  and  N_8 
REMARK    4  A    between atoms: N_8  and  C_9 
REMARK    5  A    between atoms: C_11  and  C_12 
ROOT
HETATM    1  C   UNL     1      26.489  45.561  50.296  1.00  0.00     0.222 C 
HETATM    2  N   UNL     1      26.283  45.129  51.589  1.00  0.00    -0.327 N 
HETATM    3  O   UNL     1      27.471  45.293  49.605  1.00  0.00    -0.273 OA
HETATM    4  H   UNL     1      25.464  45.473  52.075  1.00  0.00     0.169 HD
ENDROOT
BRANCH   2   5
HETATM    5  C   UNL     1      27.062  44.216  52.333  1.00  0.00     0.035 A 
HETATM    6  C   UNL     1      27.943  44.582  53.355  1.00  0.00     0.042 A 
HETATM    7  C   UNL     1      28.722  43.621  54.021  1.00  0.00    -0.021 A 
HETATM    8  C   UNL     1      28.593  42.274  53.657  1.00  0.00     0.012 A 
HETATM    9  C   UNL     1      27.711  41.897  52.645  1.00  0.00     0.003 A 
HETATM   10  C   UNL     1      26.953  42.864  51.985  1.00  0.00     0.029 A 
BRANCH   7  11
HETATM   11  C   UNL     1      29.660  44.005  55.066  1.00  0.00     0.010 A 
HETATM   12  C   UNL     1      29.734  45.171  55.865  1.00  0.00     0.152 A 
HETATM   13  N   UNL     1      30.739  45.138  56.743  1.00  0.00    -0.187 NA
HETATM   14  N   UNL     1      31.320  43.950  56.508  1.00  0.00    -0.289 N 
HETATM   15  H   UNL     1      32.128  43.690  57.062  1.00  0.00     0.188 HD
HETATM   16  C   UNL     1      30.708  43.233  55.521  1.00  0.00     0.123 A 
ENDBRANCH   7  11
ENDBRANCH   2   5
BRANCH   1  17
HETATM   17  C   UNL     1      25.358  46.370  49.663  1.00  0.00     0.108 C 
BRANCH  17  18
HETATM   18  C   UNL     1      25.425  47.896  49.716  1.00  0.00     0.048 C 
BRANCH  18  19
HETATM   19  C   UNL     1      24.293  48.689  49.093  1.00  0.00    -0.057 A 
HETATM   20  C   UNL     1      22.937  48.349  49.217  1.00  0.00     0.013 A 
HETATM   21  C   UNL     1      21.932  49.151  48.655  1.00  0.00    -0.061 A 
HETATM   22  C   UNL     1      20.482  48.811  48.842  1.00  0.00     0.048 C 
HETATM   23  C   UNL     1      22.293  50.296  47.938  1.00  0.00     0.007 A 
HETATM   24  C   UNL     1      23.634  50.633  47.783  1.00  0.00     0.001 A 
HETATM   25  C   UNL     1      24.626  49.839  48.359  1.00  0.00     0.007 A 
ENDBRANCH  18  19
ENDBRANCH  17  18
ENDBRANCH   1  17
TORSDOF 5
ENDMDL
MODEL 8
REMARK VINA RESULT:      -8.3      4.576      8.395
REMARK  5 active torsions:
REMARK  status: ('A' for Active; 'I' for Inactive)
REMARK    1  A    between atoms: C_4  and  C_5 
REMARK    2  A    between atoms: C_5  and  C_6 
REMARK    3  A    between atoms: C_6  and  C_7 
REMARK       I    between atoms: C_7  and  N_8 
REMARK    4  A    between atoms: N_8  and  C_9 
REMARK    5  A    between atoms: C_11  and  C_12 
ROOT
HETATM    1  C   UNL     1      26.801  44.023  52.545  1.00  0.00     0.222 C 
HETATM    2  N   UNL     1      26.610  42.660  52.468  1.00  0.00    -0.327 N 
HETATM    3  O   UNL     1      26.927  44.779  51.582  1.00  0.00    -0.273 OA
HETATM    4  H   UNL     1      26.587  42.139  53.335  1.00  0.00     0.169 HD
ENDROOT
BRANCH   2   5
HETATM    5  C   UNL     1      26.400  41.877  51.312  1.00  0.00     0.035 A 
HETATM    6  C   UNL     1      27.280  40.891  50.857  1.00  0.00     0.042 A 
HETATM    7  C   UNL     1      27.027  40.184  49.669  1.00  0.00    -0.021 A 
HETATM    8  C   UNL     1      25.862  40.470  48.946  1.00  0.00     0.012 A 
HETATM    9  C   UNL     1      24.973  41.446  49.395  1.00  0.00     0.003 A 
HETATM   10  C   UNL     1      25.244  42.148  50.569  1.00  0.00     0.029 A 
BRANCH   7  11
HETATM   11  C   UNL     1      27.957  39.176  49.181  1.00  0.00     0.010 A 
HETATM   12  C   UNL     1      28.136  38.624  47.890  1.00  0.00     0.152 A 
HETATM   13  N   UNL     1      29.124  37.727  47.839  1.00  0.00    -0.187 NA
HETATM   14  N   UNL     1      29.582  37.696  49.100  1.00  0.00    -0.289 N 
HETATM   15  H   UNL     1      30.352  37.073  49.319  1.00  0.00     0.188 HD
HETATM   16  C   UNL     1      28.923  38.548  49.938  1.00  0.00     0.123 A 
ENDBRANCH   7  11
ENDBRANCH   2   5
BRANCH   1  17
HETATM   17  C   UNL     1      26.770  44.634  53.946  1.00  0.00     0.108 C 
BRANCH  17  18
HETATM   18  C   UNL     1      27.919  45.545  54.377  1.00  0.00     0.048 C 
BRANCH  18  19
HETATM   19  C   UNL     1      29.067  44.935  55.159  1.00  0.00    -0.057 A 
HETATM   20  C   UNL     1      29.548  45.449  56.373  1.00  0.00     0.013 A 
HETATM   21  C   UNL     1      30.583  44.811  57.072  1.00  0.00    -0.061 A 
HETATM   22  C   UNL     1      31.051  45.334  58.399  1.00  0.00     0.048 C 
HETATM   23  C   UNL     1      31.162  43.658  56.534  1.00  0.00     0.007 A 
HETATM   24  C   UNL     1      30.716  43.151  55.317  1.00  0.00     0.001 A 
HETATM   25  C   UNL     1      29.674  43.782  54.637  1.00  0.00     0.007 A 
ENDBRANCH  18  19
ENDBRANCH  17  18
ENDBRANCH   1  17
TORSDOF 5
ENDMDL
MODEL 9
REMARK VINA RESULT:      -8.2      2.968      5.434
REMARK  5 active torsions:
REMARK  status: ('A' for Active; 'I' for Inactive)
REMARK    1  A    between atoms: C_4  and  C_5 
REMARK    2  A    between atoms: C_5  and  C_6 
REMARK    3  A    between atoms: C_6  and  C_7 
REMARK       I    between atoms: C_7  and  N_8 
REMARK    4  A    between atoms: N_8  and  C_9 
REMARK    5  A    between atoms: C_11  and  C_12 
ROOT
HETATM    1  C   UNL     1      25.191  48.966  48.943  1.00  0.00     0.222 C 
HETATM    2  N   UNL     1      24.462  48.118  49.750  1.00  0.00    -0.327 N 
HETATM    3  O   UNL     1      26.417  48.965  48.835  1.00  0.00    -0.273 OA
HETATM    4  H   UNL     1      23.461  48.263  49.801  1.00  0.00     0.169 HD
ENDROOT
BRANCH   2   5
HETATM    5  C   UNL     1      24.932  47.022  50.506  1.00  0.00     0.035 A 
HETATM    6  C   UNL     1      25.584  47.136  51.737  1.00  0.00     0.042 A 
HETATM    7  C   UNL     1      26.068  46.001  52.410  1.00  0.00    -0.021 A 
HETATM    8  C   UNL     1      25.871  44.739  51.836  1.00  0.00     0.012 A 
HETATM    9  C   UNL     1      25.215  44.613  50.612  1.00  0.00     0.003 A 
HETATM   10  C   UNL     1      24.752  45.750  49.950  1.00  0.00     0.029 A 
BRANCH   7  11
HETATM   11  C   UNL     1      26.771  46.122  53.679  1.00  0.00     0.010 A 
HETATM   12  C   UNL     1      27.463  45.160  54.453  1.00  0.00     0.152 A 
HETATM   13  N   UNL     1      28.003  45.674  55.561  1.00  0.00    -0.187 NA
HETATM   14  N   UNL     1      27.655  46.970  55.506  1.00  0.00    -0.289 N 
HETATM   15  H   UNL     1      27.955  47.582  56.256  1.00  0.00     0.188 HD
HETATM   16  C   UNL     1      26.925  47.289  54.398  1.00  0.00     0.123 A 
ENDBRANCH   7  11
ENDBRANCH   2   5
BRANCH   1  17
HETATM   17  C   UNL     1      24.387  49.920  48.060  1.00  0.00     0.108 C 
BRANCH  17  18
HETATM   18  C   UNL     1      23.364  50.845  48.717  1.00  0.00     0.048 C 
BRANCH  18  19
HETATM   19  C   UNL     1      21.898  50.657  48.374  1.00  0.00    -0.057 A 
HETATM   20  C   UNL     1      20.903  51.610  48.640  1.00  0.00     0.013 A 
HETATM   21  C   UNL     1      19.571  51.396  48.255  1.00  0.00    -0.061 A 
HETATM   22  C   UNL     1      18.524  52.446  48.491  1.00  0.00     0.048 C 
HETATM   23  C   UNL     1      19.227  50.199  47.619  1.00  0.00     0.007 A 
HETATM   24  C   UNL     1      20.197  49.232  47.373  1.00  0.00     0.001 A 
HETATM   25  C   UNL     1      21.522  49.460  47.744  1.00  0.00     0.007 A 
ENDBRANCH  18  19
ENDBRANCH  17  18
ENDBRANCH   1  17
TORSDOF 5
ENDMDL
MODEL 10
REMARK VINA RESULT:      -8.1      7.310     12.750
REMARK  5 active torsions:
REMARK  status: ('A' for Active; 'I' for Inactive)
REMARK    1  A    between atoms: C_4  and  C_5 
REMARK    2  A    between atoms: C_5  and  C_6 
REMARK    3  A    between atoms: C_6  and  C_7 
REMARK       I    between atoms: C_7  and  N_8 
REMARK    4  A    between atoms: N_8  and  C_9 
REMARK    5  A    between atoms: C_11  and  C_12 
ROOT
HETATM    1  C   UNL     1      21.145  50.865  48.887  1.00  0.00     0.222 C 
HETATM    2  N   UNL     1      20.215  51.849  48.625  1.00  0.00    -0.327 N 
HETATM    3  O   UNL     1      20.883  49.716  49.241  1.00  0.00    -0.273 OA
HETATM    4  H   UNL     1      20.560  52.775  48.404  1.00  0.00     0.169 HD
ENDROOT
BRANCH   2   5
HETATM    5  C   UNL     1      18.809  51.726  48.585  1.00  0.00     0.035 A 
HETATM    6  C   UNL     1      17.927  52.531  49.311  1.00  0.00     0.042 A 
HETATM    7  C   UNL     1      16.539  52.318  49.259  1.00  0.00    -0.021 A 
HETATM    8  C   UNL     1      16.042  51.290  48.448  1.00  0.00     0.012 A 
HETATM    9  C   UNL     1      16.913  50.486  47.713  1.00  0.00     0.003 A 
HETATM   10  C   UNL     1      18.289  50.701  47.786  1.00  0.00     0.029 A 
BRANCH   7  11
HETATM   11  C   UNL     1      15.622  53.139  50.035  1.00  0.00     0.010 A 
HETATM   12  C   UNL     1      15.627  54.527  50.316  1.00  0.00     0.152 A 
HETATM   13  N   UNL     1      14.585  54.913  51.056  1.00  0.00    -0.187 NA
HETATM   14  N   UNL     1      13.907  53.772  51.259  1.00  0.00    -0.289 N 
HETATM   15  H   UNL     1      13.056  53.807  51.810  1.00  0.00     0.188 HD
HETATM   16  C   UNL     1      14.482  52.686  50.665  1.00  0.00     0.123 A 
ENDBRANCH   7  11
ENDBRANCH   2   5
BRANCH   1  17
HETATM   17  C   UNL     1      22.608  51.228  48.632  1.00  0.00     0.108 C 
BRANCH  17  18
HETATM   18  C   UNL     1      23.463  50.286  47.787  1.00  0.00     0.048 C 
BRANCH  18  19
HETATM   19  C   UNL     1      24.624  49.573  48.454  1.00  0.00    -0.057 A 
HETATM   20  C   UNL     1      24.475  48.498  49.345  1.00  0.00     0.013 A 
HETATM   21  C   UNL     1      25.592  47.850  49.893  1.00  0.00    -0.061 A 
HETATM   22  C   UNL     1      25.424  46.665  50.799  1.00  0.00     0.048 C 
HETATM   23  C   UNL     1      26.874  48.300  49.565  1.00  0.00     0.007 A 
HETATM   24  C   UNL     1      27.038  49.382  48.704  1.00  0.00     0.001 A 
HETATM   25  C   UNL     1      25.922  50.011  48.150  1.00  0.00     0.007 A 
ENDBRANCH  18  19
ENDBRANCH  17  18
ENDBRANCH   1  17
TORSDOF 5
ENDMDL
