MODEL 1
REMARK VINA RESULT:      -8.9      0.000      0.000
REMARK  4 active torsions:
REMARK  status: ('A' for Active; 'I' for Inactive)
REMARK    1  A    between atoms: C_5  and  C_6 
REMARK    2  A    between atoms: C_12  and  C_13 
REMARK    3  A    between atoms: C_13  and  N_14 
REMARK       I    between atoms: N_14  and  C_15 
REMARK       I    between atoms: C_15  and  N_16 
REMARK    4  A    between atoms: N_16  and  C_17 
ROOT
HETATM    1  C   UNL     1      25.918  45.715  52.985  1.00  0.00     0.168 C 
ENDROOT
BRANCH   1   2
HETATM    2  C   UNL     1      26.314  45.591  51.556  1.00  0.00     0.023 A 
HETATM    3  C   UNL     1      25.983  46.368  50.460  1.00  0.00     0.085 A 
HETATM    4  C   UNL     1      25.163  47.577  50.241  1.00  0.00     0.079 C 
HETATM    5  O   UNL     1      26.558  45.851  49.346  1.00  0.00    -0.217 OA
HETATM    6  N   UNL     1      27.269  44.721  49.669  1.00  0.00    -0.127 NA
HETATM    7  C   UNL     1      27.141  44.558  50.993  1.00  0.00     0.105 A 
BRANCH   7   8
HETATM    8  C   UNL     1      27.772  43.422  51.658  1.00  0.00    -0.004 A 
HETATM    9  C   UNL     1      28.993  43.557  52.331  1.00  0.00     0.014 A 
HETATM   10  C   UNL     1      29.573  42.460  52.972  1.00  0.00     0.001 A 
HETATM   11  C   UNL     1      28.944  41.216  52.938  1.00  0.00     0.000 A 
HETATM   12  C   UNL     1      27.738  41.065  52.256  1.00  0.00     0.001 A 
HETATM   13  C   UNL     1      27.155  42.162  51.617  1.00  0.00     0.014 A 
ENDBRANCH   7   8
ENDBRANCH   1   2
BRANCH   1  14
HETATM   14  N   UNL     1      26.547  46.854  53.616  1.00  0.00    -0.338 N 
HETATM   15  C   UNL     1      27.519  46.910  54.566  1.00  0.00     0.320 C 
HETATM   16  N   UNL     1      27.773  45.749  55.239  1.00  0.00    -0.309 N 
HETATM   17  O   UNL     1      28.075  47.990  54.732  1.00  0.00    -0.247 OA
HETATM   18  H   UNL     1      27.058  45.043  55.199  1.00  0.00     0.170 HD
HETATM   19  H   UNL     1      26.447  47.744  53.145  1.00  0.00     0.164 HD
BRANCH  16  20
HETATM   20  C   UNL     1      28.827  45.498  56.145  1.00  0.00     0.036 A 
HETATM   21  C   UNL     1      28.898  46.043  57.429  1.00  0.00     0.029 A 
HETATM   22  C   UNL     1      29.985  45.759  58.263  1.00  0.00     0.002 A 
HETATM   23  C   UNL     1      31.014  44.933  57.817  1.00  0.00     0.000 A 
HETATM   24  C   UNL     1      30.958  44.390  56.537  1.00  0.00     0.002 A 
HETATM   25  C   UNL     1      29.870  44.671  55.706  1.00  0.00     0.029 A 
ENDBRANCH  16  20
ENDBRANCH   1  14
TORSDOF 4
ENDMDL
MODEL 2
REMARK VINA RESULT:      -8.4      1.198      4.191
REMARK  4 active torsions:
REMARK  status: ('A' for Active; 'I' for Inactive)
REMARK    1  A    between atoms: C_5  and  C_6 
REMARK    2  A    between atoms: C_12  and  C_13 
REMARK    3  A    between atoms: C_13  and  N_14 
REMARK       I    between atoms: N_14  and  C_15 
REMARK       I    between atoms: C_15  and  N_16 
REMARK    4  A    between atoms: N_16  and  C_17 
ROOT
HETATM    1  C   UNL     1      25.570  46.073  52.770  1.00  0.00     0.168 C 
ENDROOT
BRANCH   1   2
HETATM    2  C   UNL     1      26.323  45.446  51.649  1.00  0.00     0.023 A 
HETATM    3  C   UNL     1      27.034  44.261  51.596  1.00  0.00     0.085 A 
HETATM    4  C   UNL     1      27.329  43.171  52.549  1.00  0.00     0.079 C 
HETATM    5  O   UNL     1      27.583  44.115  50.365  1.00  0.00    -0.217 OA
HETATM    6  N   UNL     1      27.263  45.195  49.580  1.00  0.00    -0.127 NA
HETATM    7  C   UNL     1      26.499  45.998  50.334  1.00  0.00     0.105 A 
BRANCH   7   8
HETATM    8  C   UNL     1      26.001  47.260  49.792  1.00  0.00    -0.004 A 
HETATM    9  C   UNL     1      26.877  48.260  49.352  1.00  0.00     0.014 A 
HETATM   10  C   UNL     1      26.380  49.454  48.825  1.00  0.00     0.001 A 
HETATM   11  C   UNL     1      25.004  49.664  48.743  1.00  0.00     0.000 A 
HETATM   12  C   UNL     1      24.123  48.684  49.195  1.00  0.00     0.001 A 
HETATM   13  C   UNL     1      24.618  47.487  49.720  1.00  0.00     0.014 A 
ENDBRANCH   7   8
ENDBRANCH   1   2
BRANCH   1  14
HETATM   14  N   UNL     1      26.331  47.129  53.399  1.00  0.00    -0.338 N 
HETATM   15  C   UNL     1      27.364  47.065  54.283  1.00  0.00     0.320 C 
HETATM   16  N   UNL     1      27.563  45.859  54.893  1.00  0.00    -0.309 N 
HETATM   17  O   UNL     1      28.018  48.088  54.451  1.00  0.00    -0.247 OA
HETATM   18  H   UNL     1      26.790  45.215  54.875  1.00  0.00     0.170 HD
HETATM   19  H   UNL     1      26.276  48.044  52.970  1.00  0.00     0.164 HD
BRANCH  16  20
HETATM   20  C   UNL     1      28.648  45.484  55.715  1.00  0.00     0.036 A 
HETATM   21  C   UNL     1      28.881  46.012  56.988  1.00  0.00     0.029 A 
HETATM   22  C   UNL     1      29.989  45.600  57.735  1.00  0.00     0.002 A 
HETATM   23  C   UNL     1      30.879  44.665  57.214  1.00  0.00     0.000 A 
HETATM   24  C   UNL     1      30.662  44.138  55.945  1.00  0.00     0.002 A 
HETATM   25  C   UNL     1      29.552  44.546  55.199  1.00  0.00     0.029 A 
ENDBRANCH  16  20
ENDBRANCH   1  14
TORSDOF 4
ENDMDL
MODEL 3
REMARK VINA RESULT:      -8.4      3.564      7.218
REMARK  4 active torsions:
REMARK  status: ('A' for Active; 'I' for Inactive)
REMARK    1  A    between atoms: C_5  and  C_6 
REMARK    2  A    between atoms: C_12  and  C_13 
REMARK    3  A    between atoms: C_13  and  N_14 
REMARK       I    between atoms: N_14  and  C_15 
REMARK       I    between atoms: C_15  and  N_16 
REMARK    4  A    between atoms: N_16  and  C_17 
ROOT
HETATM    1  C   UNL     1      24.477  48.004  50.211  1.00  0.00     0.168 C 
ENDROOT
BRANCH   1   2
HETATM    2  C   UNL     1      25.021  48.849  49.113  1.00  0.00     0.023 A 
HETATM    3  C   UNL     1      26.326  49.073  48.712  1.00  0.00     0.085 A 
HETATM    4  C   UNL     1      27.654  48.599  49.153  1.00  0.00     0.079 C 
HETATM    5  O   UNL     1      26.340  49.949  47.677  1.00  0.00    -0.217 OA
HETATM    6  N   UNL     1      25.058  50.335  47.375  1.00  0.00    -0.127 NA
HETATM    7  C   UNL     1      24.254  49.676  48.221  1.00  0.00     0.105 A 
BRANCH   7   8
HETATM    8  C   UNL     1      22.809  49.881  48.174  1.00  0.00    -0.004 A 
HETATM    9  C   UNL     1      21.944  48.870  47.736  1.00  0.00     0.014 A 
HETATM   10  C   UNL     1      20.563  49.083  47.711  1.00  0.00     0.001 A 
HETATM   11  C   UNL     1      20.036  50.310  48.111  1.00  0.00     0.000 A 
HETATM   12  C   UNL     1      20.889  51.329  48.530  1.00  0.00     0.001 A 
HETATM   13  C   UNL     1      22.269  51.118  48.560  1.00  0.00     0.014 A 
ENDBRANCH   7   8
ENDBRANCH   1   2
BRANCH   1  14
HETATM   14  N   UNL     1      24.489  46.602  49.860  1.00  0.00    -0.338 N 
HETATM   15  C   UNL     1      24.994  45.530  50.528  1.00  0.00     0.320 C 
HETATM   16  N   UNL     1      25.857  45.806  51.550  1.00  0.00    -0.309 N 
HETATM   17  O   UNL     1      24.631  44.419  50.155  1.00  0.00    -0.247 OA
HETATM   18  H   UNL     1      26.273  46.723  51.548  1.00  0.00     0.170 HD
HETATM   19  H   UNL     1      23.835  46.310  49.145  1.00  0.00     0.164 HD
BRANCH  16  20
HETATM   20  C   UNL     1      26.388  44.899  52.492  1.00  0.00     0.036 A 
HETATM   21  C   UNL     1      25.818  44.652  53.744  1.00  0.00     0.029 A 
HETATM   22  C   UNL     1      26.415  43.748  54.630  1.00  0.00     0.002 A 
HETATM   23  C   UNL     1      27.590  43.091  54.276  1.00  0.00     0.000 A 
HETATM   24  C   UNL     1      28.171  43.334  53.035  1.00  0.00     0.002 A 
HETATM   25  C   UNL     1      27.572  44.233  52.148  1.00  0.00     0.029 A 
ENDBRANCH  16  20
ENDBRANCH   1  14
TORSDOF 4
ENDMDL
MODEL 4
REMARK VINA RESULT:      -8.3      2.635      4.410
REMARK  4 active torsions:
REMARK  status: ('A' for Active; 'I' for Inactive)
REMARK    1  A    between atoms: C_5  and  C_6 
REMARK    2  A    between atoms: C_12  and  C_13 
REMARK    3  A    between atoms: C_13  and  N_14 
REMARK       I    between atoms: N_14  and  C_15 
REMARK       I    between atoms: C_15  and  N_16 
REMARK    4  A    between atoms: N_16  and  C_17 
ROOT
HETATM    1  C   UNL     1      27.285  42.742  50.713  1.00  0.00     0.168 C 
ENDROOT
BRANCH   1   2
HETATM    2  C   UNL     1      25.801  42.812  50.608  1.00  0.00     0.023 A 
HETATM    3  C   UNL     1      24.915  42.053  49.865  1.00  0.00     0.085 A 
HETATM    4  C   UNL     1      25.037  40.917  48.928  1.00  0.00     0.079 C 
HETATM    5  O   UNL     1      23.652  42.502  50.066  1.00  0.00    -0.217 OA
HETATM    6  N   UNL     1      23.668  43.569  50.930  1.00  0.00    -0.127 NA
HETATM    7  C   UNL     1      24.949  43.760  51.273  1.00  0.00     0.105 A 
BRANCH   7   8
HETATM    8  C   UNL     1      25.314  44.846  52.179  1.00  0.00    -0.004 A 
HETATM    9  C   UNL     1      25.321  44.663  53.568  1.00  0.00     0.014 A 
HETATM   10  C   UNL     1      25.686  45.711  54.417  1.00  0.00     0.001 A 
HETATM   11  C   UNL     1      26.037  46.952  53.887  1.00  0.00     0.000 A 
HETATM   12  C   UNL     1      26.016  47.150  52.508  1.00  0.00     0.001 A 
HETATM   13  C   UNL     1      25.654  46.103  51.657  1.00  0.00     0.014 A 
ENDBRANCH   7   8
ENDBRANCH   1   2
BRANCH   1  14
HETATM   14  N   UNL     1      27.704  41.791  51.717  1.00  0.00    -0.338 N 
HETATM   15  C   UNL     1      28.348  41.985  52.900  1.00  0.00     0.320 C 
HETATM   16  N   UNL     1      28.937  43.204  53.075  1.00  0.00    -0.309 N 
HETATM   17  O   UNL     1      28.341  41.053  53.697  1.00  0.00    -0.247 OA
HETATM   18  H   UNL     1      29.104  43.744  52.242  1.00  0.00     0.170 HD
HETATM   19  H   UNL     1      27.270  40.878  51.685  1.00  0.00     0.164 HD
BRANCH  16  20
HETATM   20  C   UNL     1      29.520  43.713  54.256  1.00  0.00     0.036 A 
HETATM   21  C   UNL     1      30.582  43.104  54.927  1.00  0.00     0.029 A 
HETATM   22  C   UNL     1      31.094  43.662  56.103  1.00  0.00     0.002 A 
HETATM   23  C   UNL     1      30.542  44.829  56.623  1.00  0.00     0.000 A 
HETATM   24  C   UNL     1      29.478  45.442  55.969  1.00  0.00     0.002 A 
HETATM   25  C   UNL     1      28.969  44.886  54.791  1.00  0.00     0.029 A 
ENDBRANCH  16  20
ENDBRANCH   1  14
TORSDOF 4
ENDMDL
MODEL 5
REMARK VINA RESULT:      -8.2      2.316      6.533
REMARK  4 active torsions:
REMARK  status: ('A' for Active; 'I' for Inactive)
REMARK    1  A    between atoms: C_5  and  C_6 
REMARK    2  A    between atoms: C_12  and  C_13 
REMARK    3  A    between atoms: C_13  and  N_14 
REMARK       I    between atoms: N_14  and  C_15 
REMARK       I    between atoms: C_15  and  N_16 
REMARK    4  A    between atoms: N_16  and  C_17 
ROOT
HETATM    1  C   UNL     1      26.893  44.033  54.734  1.00  0.00     0.168 C 
ENDROOT
BRANCH   1   2
HETATM    2  C   UNL     1      27.398  45.433  54.709  1.00  0.00     0.023 A 
HETATM    3  C   UNL     1      26.867  46.570  54.127  1.00  0.00     0.085 A 
HETATM    4  C   UNL     1      25.652  46.878  53.345  1.00  0.00     0.079 C 
HETATM    5  O   UNL     1      27.698  47.620  54.341  1.00  0.00    -0.217 OA
HETATM    6  N   UNL     1      28.797  47.209  55.052  1.00  0.00    -0.127 NA
HETATM    7  C   UNL     1      28.627  45.901  55.290  1.00  0.00     0.105 A 
BRANCH   7   8
HETATM    8  C   UNL     1      29.644  45.147  56.020  1.00  0.00    -0.004 A 
HETATM    9  C   UNL     1      30.277  44.037  55.448  1.00  0.00     0.014 A 
HETATM   10  C   UNL     1      31.257  43.338  56.158  1.00  0.00     0.001 A 
HETATM   11  C   UNL     1      31.603  43.736  57.449  1.00  0.00     0.000 A 
HETATM   12  C   UNL     1      30.966  44.828  58.035  1.00  0.00     0.001 A 
HETATM   13  C   UNL     1      29.989  45.530  57.325  1.00  0.00     0.014 A 
ENDBRANCH   7   8
ENDBRANCH   1   2
BRANCH   1  14
HETATM   14  N   UNL     1      27.358  43.278  53.592  1.00  0.00    -0.338 N 
HETATM   15  C   UNL     1      26.818  43.134  52.351  1.00  0.00     0.320 C 
HETATM   16  N   UNL     1      25.517  43.524  52.210  1.00  0.00    -0.309 N 
HETATM   17  O   UNL     1      27.544  42.670  51.479  1.00  0.00    -0.247 OA
HETATM   18  H   UNL     1      24.980  43.607  53.057  1.00  0.00     0.170 HD
HETATM   19  H   UNL     1      28.330  42.998  53.600  1.00  0.00     0.164 HD
BRANCH  16  20
HETATM   20  C   UNL     1      24.780  43.630  51.010  1.00  0.00     0.036 A 
HETATM   21  C   UNL     1      23.944  42.626  50.516  1.00  0.00     0.029 A 
HETATM   22  C   UNL     1      23.260  42.801  49.309  1.00  0.00     0.002 A 
HETATM   23  C   UNL     1      23.412  43.978  48.580  1.00  0.00     0.000 A 
HETATM   24  C   UNL     1      24.248  44.983  49.058  1.00  0.00     0.002 A 
HETATM   25  C   UNL     1      24.929  44.809  50.267  1.00  0.00     0.029 A 
ENDBRANCH  16  20
ENDBRANCH   1  14
TORSDOF 4
ENDMDL
MODEL 6
REMARK VINA RESULT:      -8.1     12.837     14.363
REMARK  4 active torsions:
REMARK  status: ('A' for Active; 'I' for Inactive)
REMARK    1  A    between atoms: C_5  and  C_6 
REMARK    2  A    between atoms: C_12  and  C_13 
REMARK    3  A    between atoms: C_13  and  N_14 
REMARK       I    between atoms: N_14  and  C_15 
REMARK       I    between atoms: C_15  and  N_16 
REMARK    4  A    between atoms: N_16  and  C_17 
ROOT
HETATM    1  C   UNL     1      30.560  48.302  39.091  1.00  0.00     0.168 C 
ENDROOT
BRANCH   1   2
HETATM    2  C   UNL     1      29.235  48.175  39.758  1.00  0.00     0.023 A 
HETATM    3  C   UNL     1      28.475  47.055  40.042  1.00  0.00     0.085 A 
HETATM    4  C   UNL     1      28.634  45.601  39.838  1.00  0.00     0.079 C 
HETATM    5  O   UNL     1      27.316  47.431  40.635  1.00  0.00    -0.217 OA
HETATM    6  N   UNL     1      27.271  48.799  40.748  1.00  0.00    -0.127 NA
HETATM    7  C   UNL     1      28.421  49.259  40.235  1.00  0.00     0.105 A 
BRANCH   7   8
HETATM    8  C   UNL     1      28.682  50.695  40.187  1.00  0.00    -0.004 A 
HETATM    9  C   UNL     1      29.063  51.405  41.333  1.00  0.00     0.014 A 
HETATM   10  C   UNL     1      29.320  52.776  41.262  1.00  0.00     0.001 A 
HETATM   11  C   UNL     1      29.189  53.452  40.049  1.00  0.00     0.000 A 
HETATM   12  C   UNL     1      28.792  52.760  38.907  1.00  0.00     0.001 A 
HETATM   13  C   UNL     1      28.537  51.388  38.975  1.00  0.00     0.014 A 
ENDBRANCH   7   8
ENDBRANCH   1   2
BRANCH   1  14
HETATM   14  N   UNL     1      31.616  47.722  39.889  1.00  0.00    -0.338 N 
HETATM   15  C   UNL     1      32.366  48.262  40.887  1.00  0.00     0.320 C 
HETATM   16  N   UNL     1      32.331  49.623  40.999  1.00  0.00    -0.309 N 
HETATM   17  O   UNL     1      33.001  47.485  41.591  1.00  0.00    -0.247 OA
HETATM   18  H   UNL     1      32.008  50.130  40.193  1.00  0.00     0.170 HD
HETATM   19  H   UNL     1      31.673  46.711  39.898  1.00  0.00     0.164 HD
BRANCH  16  20
HETATM   20  C   UNL     1      32.880  50.411  42.035  1.00  0.00     0.036 A 
HETATM   21  C   UNL     1      34.213  50.827  42.076  1.00  0.00     0.029 A 
HETATM   22  C   UNL     1      34.685  51.594  43.147  1.00  0.00     0.002 A 
HETATM   23  C   UNL     1      33.831  51.945  44.189  1.00  0.00     0.000 A 
HETATM   24  C   UNL     1      32.503  51.530  44.163  1.00  0.00     0.002 A 
HETATM   25  C   UNL     1      32.030  50.767  43.091  1.00  0.00     0.029 A 
ENDBRANCH  16  20
ENDBRANCH   1  14
TORSDOF 4
ENDMDL
MODEL 7
REMARK VINA RESULT:      -8.0      2.359      6.538
REMARK  4 active torsions:
REMARK  status: ('A' for Active; 'I' for Inactive)
REMARK    1  A    between atoms: C_5  and  C_6 
REMARK    2  A    between atoms: C_12  and  C_13 
REMARK    3  A    between atoms: C_13  and  N_14 
REMARK       I    between atoms: N_14  and  C_15 
REMARK       I    between atoms: C_15  and  N_16 
REMARK    4  A    between atoms: N_16  and  C_17 
ROOT
HETATM    1  C   UNL     1      27.548  44.420  51.701  1.00  0.00     0.168 C 
ENDROOT
BRANCH   1   2
HETATM    2  C   UNL     1      27.794  43.047  52.223  1.00  0.00     0.023 A 
HETATM    3  C   UNL     1      27.401  41.815  51.733  1.00  0.00     0.085 A 
HETATM    4  C   UNL     1      26.631  41.349  50.561  1.00  0.00     0.079 C 
HETATM    5  O   UNL     1      27.834  40.836  52.565  1.00  0.00    -0.217 OA
HETATM    6  N   UNL     1      28.510  41.389  53.625  1.00  0.00    -0.127 NA
HETATM    7  C   UNL     1      28.503  42.715  53.428  1.00  0.00     0.105 A 
BRANCH   7   8
HETATM    8  C   UNL     1      29.133  43.606  54.399  1.00  0.00    -0.004 A 
HETATM    9  C   UNL     1      28.508  44.788  54.816  1.00  0.00     0.014 A 
HETATM   10  C   UNL     1      29.121  45.619  55.756  1.00  0.00     0.001 A 
HETATM   11  C   UNL     1      30.369  45.283  56.280  1.00  0.00     0.000 A 
HETATM   12  C   UNL     1      31.009  44.119  55.859  1.00  0.00     0.001 A 
HETATM   13  C   UNL     1      30.395  43.284  54.921  1.00  0.00     0.014 A 
ENDBRANCH   7   8
ENDBRANCH   1   2
BRANCH   1  14
HETATM   14  N   UNL     1      26.137  44.674  51.514  1.00  0.00    -0.338 N 
HETATM   15  C   UNL     1      25.501  45.684  50.861  1.00  0.00     0.320 C 
HETATM   16  N   UNL     1      26.261  46.777  50.554  1.00  0.00    -0.309 N 
HETATM   17  O   UNL     1      24.312  45.524  50.609  1.00  0.00    -0.247 OA
HETATM   18  H   UNL     1      27.120  46.884  51.068  1.00  0.00     0.170 HD
HETATM   19  H   UNL     1      25.512  43.893  51.672  1.00  0.00     0.164 HD
BRANCH  16  20
HETATM   20  C   UNL     1      25.894  47.876  49.748  1.00  0.00     0.036 A 
HETATM   21  C   UNL     1      24.573  48.217  49.448  1.00  0.00     0.029 A 
HETATM   22  C   UNL     1      24.290  49.313  48.627  1.00  0.00     0.002 A 
HETATM   23  C   UNL     1      25.326  50.074  48.092  1.00  0.00     0.000 A 
HETATM   24  C   UNL     1      26.647  49.741  48.377  1.00  0.00     0.002 A 
HETATM   25  C   UNL     1      26.929  48.647  49.201  1.00  0.00     0.029 A 
ENDBRANCH  16  20
ENDBRANCH   1  14
TORSDOF 4
ENDMDL
MODEL 8
REMARK VINA RESULT:      -8.0      4.809      8.931
REMARK  4 active torsions:
REMARK  status: ('A' for Active; 'I' for Inactive)
REMARK    1  A    between atoms: C_5  and  C_6 
REMARK    2  A    between atoms: C_12  and  C_13 
REMARK    3  A    between atoms: C_13  and  N_14 
REMARK       I    between atoms: N_14  and  C_15 
REMARK       I    between atoms: C_15  and  N_16 
REMARK    4  A    between atoms: N_16  and  C_17 
ROOT
HETATM    1  C   UNL     1      23.597  47.976  49.864  1.00  0.00     0.168 C 
ENDROOT
BRANCH   1   2
HETATM    2  C   UNL     1      24.914  48.420  49.330  1.00  0.00     0.023 A 
HETATM    3  C   UNL     1      25.236  49.469  48.488  1.00  0.00     0.085 A 
HETATM    4  C   UNL     1      24.477  50.539  47.809  1.00  0.00     0.079 C 
HETATM    5  O   UNL     1      26.571  49.467  48.249  1.00  0.00    -0.217 OA
HETATM    6  N   UNL     1      27.161  48.418  48.909  1.00  0.00    -0.127 NA
HETATM    7  C   UNL     1      26.182  47.786  49.570  1.00  0.00     0.105 A 
BRANCH   7   8
HETATM    8  C   UNL     1      26.480  46.599  50.368  1.00  0.00    -0.004 A 
HETATM    9  C   UNL     1      27.016  45.445  49.782  1.00  0.00     0.014 A 
HETATM   10  C   UNL     1      27.306  44.325  50.565  1.00  0.00     0.001 A 
HETATM   11  C   UNL     1      27.053  44.344  51.936  1.00  0.00     0.000 A 
HETATM   12  C   UNL     1      26.502  45.480  52.526  1.00  0.00     0.001 A 
HETATM   13  C   UNL     1      26.214  46.602  51.745  1.00  0.00     0.014 A 
ENDBRANCH   7   8
ENDBRANCH   1   2
BRANCH   1  14
HETATM   14  N   UNL     1      22.621  47.815  48.810  1.00  0.00    -0.338 N 
HETATM   15  C   UNL     1      21.501  48.534  48.527  1.00  0.00     0.320 C 
HETATM   16  N   UNL     1      21.054  49.368  49.513  1.00  0.00    -0.309 N 
HETATM   17  O   UNL     1      20.997  48.369  47.422  1.00  0.00    -0.247 OA
HETATM   18  H   UNL     1      21.392  49.183  50.442  1.00  0.00     0.170 HD
HETATM   19  H   UNL     1      22.901  47.251  48.017  1.00  0.00     0.164 HD
BRANCH  16  20
HETATM   20  C   UNL     1      20.025  50.330  49.419  1.00  0.00     0.036 A 
HETATM   21  C   UNL     1      18.780  50.204  50.039  1.00  0.00     0.029 A 
HETATM   22  C   UNL     1      17.805  51.195  49.884  1.00  0.00     0.002 A 
HETATM   23  C   UNL     1      18.063  52.316  49.101  1.00  0.00     0.000 A 
HETATM   24  C   UNL     1      19.297  52.450  48.471  1.00  0.00     0.002 A 
HETATM   25  C   UNL     1      20.273  51.462  48.630  1.00  0.00     0.029 A 
ENDBRANCH  16  20
ENDBRANCH   1  14
TORSDOF 4
ENDMDL
MODEL 9
REMARK VINA RESULT:      -7.8      2.750      6.496
REMARK  4 active torsions:
REMARK  status: ('A' for Active; 'I' for Inactive)
REMARK    1  A    between atoms: C_5  and  C_6 
REMARK    2  A    between atoms: C_12  and  C_13 
REMARK    3  A    between atoms: C_13  and  N_14 
REMARK       I    between atoms: N_14  and  C_15 
REMARK       I    between atoms: C_15  and  N_16 
REMARK    4  A    between atoms: N_16  and  C_17 
ROOT
HETATM    1  C   UNL     1      24.526  44.473  52.163  1.00  0.00     0.168 C 
ENDROOT
BRANCH   1   2
HETATM    2  C   UNL     1      25.840  43.798  51.975  1.00  0.00     0.023 A 
HETATM    3  C   UNL     1      26.187  42.706  51.201  1.00  0.00     0.085 A 
HETATM    4  C   UNL     1      25.467  41.802  50.279  1.00  0.00     0.079 C 
HETATM    5  O   UNL     1      27.503  42.428  51.371  1.00  0.00    -0.217 OA
HETATM    6  N   UNL     1      28.055  43.313  52.263  1.00  0.00    -0.127 NA
HETATM    7  C   UNL     1      27.072  44.148  52.627  1.00  0.00     0.105 A 
BRANCH   7   8
HETATM    8  C   UNL     1      27.331  45.211  53.595  1.00  0.00    -0.004 A 
HETATM    9  C   UNL     1      26.688  46.452  53.502  1.00  0.00     0.014 A 
HETATM   10  C   UNL     1      26.939  47.451  54.445  1.00  0.00     0.001 A 
HETATM   11  C   UNL     1      27.842  47.222  55.483  1.00  0.00     0.000 A 
HETATM   12  C   UNL     1      28.501  45.998  55.575  1.00  0.00     0.001 A 
HETATM   13  C   UNL     1      28.249  44.997  54.634  1.00  0.00     0.014 A 
ENDBRANCH   7   8
ENDBRANCH   1   2
BRANCH   1  14
HETATM   14  N   UNL     1      23.911  44.802  50.897  1.00  0.00    -0.338 N 
HETATM   15  C   UNL     1      24.183  45.804  50.018  1.00  0.00     0.320 C 
HETATM   16  N   UNL     1      24.961  46.824  50.487  1.00  0.00    -0.309 N 
HETATM   17  O   UNL     1      23.708  45.703  48.892  1.00  0.00    -0.247 OA
HETATM   18  H   UNL     1      25.030  46.911  51.487  1.00  0.00     0.170 HD
HETATM   19  H   UNL     1      23.359  44.075  50.459  1.00  0.00     0.164 HD
BRANCH  16  20
HETATM   20  C   UNL     1      25.518  47.888  49.744  1.00  0.00     0.036 A 
HETATM   21  C   UNL     1      26.889  48.134  49.641  1.00  0.00     0.029 A 
HETATM   22  C   UNL     1      27.362  49.221  48.898  1.00  0.00     0.002 A 
HETATM   23  C   UNL     1      26.469  50.075  48.258  1.00  0.00     0.000 A 
HETATM   24  C   UNL     1      25.100  49.845  48.359  1.00  0.00     0.002 A 
HETATM   25  C   UNL     1      24.627  48.757  49.098  1.00  0.00     0.029 A 
ENDBRANCH  16  20
ENDBRANCH   1  14
TORSDOF 4
ENDMDL
MODEL 10
REMARK VINA RESULT:      -7.7     13.336     15.791
REMARK  4 active torsions:
REMARK  status: ('A' for Active; 'I' for Inactive)
REMARK    1  A    between atoms: C_5  and  C_6 
REMARK    2  A    between atoms: C_12  and  C_13 
REMARK    3  A    between atoms: C_13  and  N_14 
REMARK       I    between atoms: N_14  and  C_15 
REMARK       I    between atoms: C_15  and  N_16 
REMARK    4  A    between atoms: N_16  and  C_17 
ROOT
HETATM    1  C   UNL     1      33.850  50.466  41.940  1.00  0.00     0.168 C 
ENDROOT
BRANCH   1   2
HETATM    2  C   UNL     1      34.172  51.121  40.643  1.00  0.00     0.023 A 
HETATM    3  C   UNL     1      35.380  51.262  39.983  1.00  0.00     0.085 A 
HETATM    4  C   UNL     1      36.773  50.848  40.245  1.00  0.00     0.079 C 
HETATM    5  O   UNL     1      35.192  51.964  38.837  1.00  0.00    -0.217 OA
HETATM    6  N   UNL     1      33.870  52.313  38.715  1.00  0.00    -0.127 NA
HETATM    7  C   UNL     1      33.243  51.805  39.786  1.00  0.00     0.105 A 
BRANCH   7   8
HETATM    8  C   UNL     1      31.810  52.018  39.968  1.00  0.00    -0.004 A 
HETATM    9  C   UNL     1      31.296  52.526  41.168  1.00  0.00     0.014 A 
HETATM   10  C   UNL     1      29.923  52.735  41.317  1.00  0.00     0.001 A 
HETATM   11  C   UNL     1      29.051  52.428  40.274  1.00  0.00     0.000 A 
HETATM   12  C   UNL     1      29.549  51.905  39.082  1.00  0.00     0.001 A 
HETATM   13  C   UNL     1      30.922  51.698  38.930  1.00  0.00     0.014 A 
ENDBRANCH   7   8
ENDBRANCH   1   2
BRANCH   1  14
HETATM   14  N   UNL     1      33.733  49.032  41.799  1.00  0.00    -0.338 N 
HETATM   15  C   UNL     1      32.718  48.274  41.304  1.00  0.00     0.320 C 
HETATM   16  N   UNL     1      31.513  48.900  41.158  1.00  0.00    -0.309 N 
HETATM   17  O   UNL     1      32.974  47.105  41.036  1.00  0.00    -0.247 OA
HETATM   18  H   UNL     1      31.385  49.752  41.678  1.00  0.00     0.170 HD
HETATM   19  H   UNL     1      34.594  48.502  41.843  1.00  0.00     0.164 HD
BRANCH  16  20
HETATM   20  C   UNL     1      30.356  48.395  40.523  1.00  0.00     0.036 A 
HETATM   21  C   UNL     1      30.287  48.079  39.165  1.00  0.00     0.029 A 
HETATM   22  C   UNL     1      29.098  47.598  38.607  1.00  0.00     0.002 A 
HETATM   23  C   UNL     1      27.965  47.437  39.400  1.00  0.00     0.000 A 
HETATM   24  C   UNL     1      28.020  47.757  40.754  1.00  0.00     0.002 A 
HETATM   25  C   UNL     1      29.209  48.233  41.312  1.00  0.00     0.029 A 
ENDBRANCH  16  20
ENDBRANCH   1  14
TORSDOF 4
ENDMDL
