MODEL 1
REMARK VINA RESULT:      -8.2      0.000      0.000
REMARK  8 active torsions:
REMARK  status: ('A' for Active; 'I' for Inactive)
REMARK    1  A    between atoms: C_2  and  C_3 
REMARK    2  A    between atoms: C_3  and  O_4 
REMARK    3  A    between atoms: O_4  and  C_5 
REMARK    4  A    between atoms: C_6  and  O_7 
REMARK    5  A    between atoms: C_11  and  C_12 
REMARK    6  A    between atoms: C_12  and  N_13 
REMARK    7  A    between atoms: N_13  and  C_14 
REMARK    8  A    between atoms: C_21  and  C_22 
REMARK       I    between atoms: C_22  and  N_23 
ROOT
HETATM    1  C   UNL     1      27.766  42.005  51.090  1.00  0.00     0.009 A 
HETATM    2  C   UNL     1      28.368  40.739  50.995  1.00  0.00     0.039 A 
HETATM    3  C   UNL     1      28.334  40.020  49.781  1.00  0.00     0.030 A 
HETATM    4  C   UNL     1      27.674  40.575  48.694  1.00  0.00     0.063 A 
HETATM    5  N   UNL     1      27.805  39.659  47.686  1.00  0.00    -0.277 N 
HETATM    6  H   UNL     1      27.443  39.731  46.742  1.00  0.00     0.189 HD
HETATM    7  N   UNL     1      28.486  38.550  48.026  1.00  0.00    -0.168 NA
HETATM    8  C   UNL     1      28.816  38.759  49.321  1.00  0.00     0.156 A 
HETATM    9  C   UNL     1      27.031  41.812  48.747  1.00  0.00     0.034 A 
HETATM   10  C   UNL     1      27.079  42.498  49.969  1.00  0.00     0.026 A 
ENDROOT
BRANCH   1  11
HETATM   11  N   UNL     1      27.689  42.727  52.288  1.00  0.00    -0.289 NA
HETATM   12  H   UNL     1      28.016  43.684  52.185  1.00  0.00     0.128 HD
BRANCH  11  13
HETATM   13  C   UNL     1      28.156  42.113  53.522  1.00  0.00     0.131 C 
BRANCH  13  14
HETATM   14  C   UNL     1      28.774  43.177  54.401  1.00  0.00    -0.042 A 
HETATM   15  C   UNL     1      30.048  42.982  54.949  1.00  0.00     0.011 A 
HETATM   16  C   UNL     1      30.636  43.964  55.751  1.00  0.00     0.040 A 
HETATM   17  C   UNL     1      29.952  45.150  56.031  1.00  0.00     0.101 A 
HETATM   18  C   UNL     1      28.650  45.330  55.529  1.00  0.00     0.102 A 
HETATM   19  C   UNL     1      28.075  44.354  54.706  1.00  0.00     0.048 A 
BRANCH  17  20
HETATM   20  O   UNL     1      30.451  46.165  56.810  1.00  0.00    -0.353 OA
HETATM   21  C   UNL     1      30.635  45.885  58.191  1.00  0.00     0.210 C 
ENDBRANCH  17  20
BRANCH  18  22
HETATM   22  O   UNL     1      28.025  46.513  55.836  1.00  0.00    -0.348 OA
BRANCH  22  23
HETATM   23  C   UNL     1      27.816  47.404  54.740  1.00  0.00     0.175 C 
BRANCH  23  24
HETATM   24  C   UNL     1      26.311  47.598  54.582  1.00  0.00     0.022 C 
HETATM   25  C   UNL     1      25.811  47.091  53.241  1.00  0.00     0.007 C 
ENDBRANCH  23  24
ENDBRANCH  22  23
ENDBRANCH  18  22
ENDBRANCH  13  14
ENDBRANCH  11  13
ENDBRANCH   1  11
BRANCH   8  26
HETATM   26  C   UNL     1      29.573  37.762  50.089  1.00  0.00     0.270 C 
HETATM   27  N   UNL     1      28.809  36.748  50.597  1.00  0.00    -0.365 N 
HETATM   28  H   UNL     1      27.811  36.758  50.420  1.00  0.00     0.159 HD
HETATM   29  H   UNL     1      29.238  36.024  51.149  1.00  0.00     0.159 HD
HETATM   30  O   UNL     1      30.785  37.805  50.282  1.00  0.00    -0.266 OA
ENDBRANCH   8  26
TORSDOF 8
ENDMDL
MODEL 2
REMARK VINA RESULT:      -8.1      3.182      4.663
REMARK  8 active torsions:
REMARK  status: ('A' for Active; 'I' for Inactive)
REMARK    1  A    between atoms: C_2  and  C_3 
REMARK    2  A    between atoms: C_3  and  O_4 
REMARK    3  A    between atoms: O_4  and  C_5 
REMARK    4  A    between atoms: C_6  and  O_7 
REMARK    5  A    between atoms: C_11  and  C_12 
REMARK    6  A    between atoms: C_12  and  N_13 
REMARK    7  A    between atoms: N_13  and  C_14 
REMARK    8  A    between atoms: C_21  and  C_22 
REMARK       I    between atoms: C_22  and  N_23 
ROOT
HETATM    1  C   UNL     1      27.985  42.857  51.263  1.00  0.00     0.009 A 
HETATM    2  C   UNL     1      27.598  44.202  51.141  1.00  0.00     0.039 A 
HETATM    3  C   UNL     1      26.582  44.575  50.235  1.00  0.00     0.030 A 
HETATM    4  C   UNL     1      25.992  43.594  49.451  1.00  0.00     0.063 A 
HETATM    5  N   UNL     1      25.068  44.251  48.686  1.00  0.00    -0.277 N 
HETATM    6  H   UNL     1      24.449  43.847  47.992  1.00  0.00     0.189 HD
HETATM    7  N   UNL     1      25.011  45.578  48.897  1.00  0.00    -0.168 NA
HETATM    8  C   UNL     1      25.945  45.792  49.851  1.00  0.00     0.156 A 
HETATM    9  C   UNL     1      26.365  42.251  49.509  1.00  0.00     0.034 A 
HETATM   10  C   UNL     1      27.381  41.915  50.415  1.00  0.00     0.026 A 
ENDROOT
BRANCH   1  11
HETATM   11  N   UNL     1      29.044  42.437  52.076  1.00  0.00    -0.289 NA
HETATM   12  H   UNL     1      29.669  41.793  51.598  1.00  0.00     0.128 HD
BRANCH  11  13
HETATM   13  C   UNL     1      28.773  42.028  53.447  1.00  0.00     0.131 C 
BRANCH  13  14
HETATM   14  C   UNL     1      29.256  43.106  54.389  1.00  0.00    -0.042 A 
HETATM   15  C   UNL     1      30.520  43.003  54.985  1.00  0.00     0.011 A 
HETATM   16  C   UNL     1      30.985  44.000  55.847  1.00  0.00     0.040 A 
HETATM   17  C   UNL     1      30.186  45.109  56.140  1.00  0.00     0.101 A 
HETATM   18  C   UNL     1      28.895  45.192  55.590  1.00  0.00     0.102 A 
HETATM   19  C   UNL     1      28.443  44.203  54.707  1.00  0.00     0.048 A 
BRANCH  17  20
HETATM   20  O   UNL     1      30.560  46.131  56.977  1.00  0.00    -0.353 OA
HETATM   21  C   UNL     1      30.612  45.840  58.366  1.00  0.00     0.210 C 
ENDBRANCH  17  20
BRANCH  18  22
HETATM   22  O   UNL     1      28.154  46.303  55.912  1.00  0.00    -0.348 OA
BRANCH  22  23
HETATM   23  C   UNL     1      27.897  47.208  54.838  1.00  0.00     0.175 C 
BRANCH  23  24
HETATM   24  C   UNL     1      26.443  47.659  54.949  1.00  0.00     0.022 C 
HETATM   25  C   UNL     1      26.289  48.852  55.874  1.00  0.00     0.007 C 
ENDBRANCH  23  24
ENDBRANCH  22  23
ENDBRANCH  18  22
ENDBRANCH  13  14
ENDBRANCH  11  13
ENDBRANCH   1  11
BRANCH   8  26
HETATM   26  C   UNL     1      26.215  47.140  50.372  1.00  0.00     0.270 C 
HETATM   27  N   UNL     1      26.855  47.964  49.487  1.00  0.00    -0.365 N 
HETATM   28  H   UNL     1      27.095  47.599  48.573  1.00  0.00     0.159 HD
HETATM   29  H   UNL     1      27.093  48.903  49.759  1.00  0.00     0.159 HD
HETATM   30  O   UNL     1      25.909  47.526  51.496  1.00  0.00    -0.266 OA
ENDBRANCH   8  26
TORSDOF 8
ENDMDL
MODEL 3
REMARK VINA RESULT:      -8.0      5.041      8.059
REMARK  8 active torsions:
REMARK  status: ('A' for Active; 'I' for Inactive)
REMARK    1  A    between atoms: C_2  and  C_3 
REMARK    2  A    between atoms: C_3  and  O_4 
REMARK    3  A    between atoms: O_4  and  C_5 
REMARK    4  A    between atoms: C_6  and  O_7 
REMARK    5  A    between atoms: C_11  and  C_12 
REMARK    6  A    between atoms: C_12  and  N_13 
REMARK    7  A    between atoms: N_13  and  C_14 
REMARK    8  A    between atoms: C_21  and  C_22 
REMARK       I    between atoms: C_22  and  N_23 
ROOT
HETATM    1  C   UNL     1      25.698  47.462  50.210  1.00  0.00     0.009 A 
HETATM    2  C   UNL     1      24.423  47.810  49.735  1.00  0.00     0.039 A 
HETATM    3  C   UNL     1      24.270  48.856  48.799  1.00  0.00     0.030 A 
HETATM    4  C   UNL     1      25.396  49.547  48.377  1.00  0.00     0.063 A 
HETATM    5  N   UNL     1      24.936  50.485  47.495  1.00  0.00    -0.277 N 
HETATM    6  H   UNL     1      25.484  51.172  46.989  1.00  0.00     0.189 HD
HETATM    7  N   UNL     1      23.604  50.471  47.311  1.00  0.00    -0.168 NA
HETATM    8  C   UNL     1      23.178  49.469  48.114  1.00  0.00     0.156 A 
HETATM    9  C   UNL     1      26.679  49.263  48.845  1.00  0.00     0.034 A 
HETATM   10  C   UNL     1      26.797  48.223  49.779  1.00  0.00     0.026 A 
ENDROOT
BRANCH   1  11
HETATM   11  N   UNL     1      25.906  46.497  51.203  1.00  0.00    -0.289 NA
HETATM   12  H   UNL     1      25.719  45.554  50.872  1.00  0.00     0.128 HD
BRANCH  11  13
HETATM   13  C   UNL     1      25.386  46.727  52.542  1.00  0.00     0.131 C 
BRANCH  13  14
HETATM   14  C   UNL     1      26.491  46.500  53.548  1.00  0.00    -0.042 A 
HETATM   15  C   UNL     1      26.945  47.560  54.343  1.00  0.00     0.011 A 
HETATM   16  C   UNL     1      27.957  47.361  55.286  1.00  0.00     0.040 A 
HETATM   17  C   UNL     1      28.541  46.101  55.440  1.00  0.00     0.101 A 
HETATM   18  C   UNL     1      28.129  45.044  54.608  1.00  0.00     0.102 A 
HETATM   19  C   UNL     1      27.098  45.243  53.681  1.00  0.00     0.048 A 
BRANCH  17  20
HETATM   20  O   UNL     1      29.541  45.816  56.337  1.00  0.00    -0.353 OA
HETATM   21  C   UNL     1      29.245  46.007  57.713  1.00  0.00     0.210 C 
ENDBRANCH  17  20
BRANCH  18  22
HETATM   22  O   UNL     1      28.737  43.829  54.801  1.00  0.00    -0.348 OA
BRANCH  22  23
HETATM   23  C   UNL     1      28.068  42.705  54.229  1.00  0.00     0.175 C 
BRANCH  23  24
HETATM   24  C   UNL     1      29.095  41.915  53.422  1.00  0.00     0.022 C 
HETATM   25  C   UNL     1      30.343  42.731  53.139  1.00  0.00     0.007 C 
ENDBRANCH  23  24
ENDBRANCH  22  23
ENDBRANCH  18  22
ENDBRANCH  13  14
ENDBRANCH  11  13
ENDBRANCH   1  11
BRANCH   8  26
HETATM   26  C   UNL     1      21.755  49.121  48.218  1.00  0.00     0.270 C 
HETATM   27  N   UNL     1      20.954  50.155  48.620  1.00  0.00    -0.365 N 
HETATM   28  H   UNL     1      21.383  51.052  48.816  1.00  0.00     0.159 HD
HETATM   29  H   UNL     1      19.965  50.008  48.732  1.00  0.00     0.159 HD
HETATM   30  O   UNL     1      21.290  48.011  47.977  1.00  0.00    -0.266 OA
ENDBRANCH   8  26
TORSDOF 8
ENDMDL
MODEL 4
REMARK VINA RESULT:      -8.0      1.031      2.952
REMARK  8 active torsions:
REMARK  status: ('A' for Active; 'I' for Inactive)
REMARK    1  A    between atoms: C_2  and  C_3 
REMARK    2  A    between atoms: C_3  and  O_4 
REMARK    3  A    between atoms: O_4  and  C_5 
REMARK    4  A    between atoms: C_6  and  O_7 
REMARK    5  A    between atoms: C_11  and  C_12 
REMARK    6  A    between atoms: C_12  and  N_13 
REMARK    7  A    between atoms: N_13  and  C_14 
REMARK    8  A    between atoms: C_21  and  C_22 
REMARK       I    between atoms: C_22  and  N_23 
ROOT
HETATM    1  C   UNL     1      27.542  41.761  50.517  1.00  0.00     0.009 A 
HETATM    2  C   UNL     1      28.139  40.504  50.709  1.00  0.00     0.039 A 
HETATM    3  C   UNL     1      28.326  39.627  49.619  1.00  0.00     0.030 A 
HETATM    4  C   UNL     1      27.888  40.019  48.362  1.00  0.00     0.063 A 
HETATM    5  N   UNL     1      28.198  38.979  47.531  1.00  0.00    -0.277 N 
HETATM    6  H   UNL     1      28.020  38.916  46.534  1.00  0.00     0.189 HD
HETATM    7  N   UNL     1      28.792  37.937  48.139  1.00  0.00    -0.168 NA
HETATM    8  C   UNL     1      28.875  38.323  49.432  1.00  0.00     0.156 A 
HETATM    9  C   UNL     1      27.259  41.241  48.126  1.00  0.00     0.034 A 
HETATM   10  C   UNL     1      27.082  42.087  49.231  1.00  0.00     0.026 A 
ENDROOT
BRANCH   1  11
HETATM   11  N   UNL     1      27.248  42.636  51.570  1.00  0.00    -0.289 NA
HETATM   12  H   UNL     1      27.112  43.592  51.252  1.00  0.00     0.128 HD
BRANCH  11  13
HETATM   13  C   UNL     1      28.030  42.565  52.796  1.00  0.00     0.131 C 
BRANCH  13  14
HETATM   14  C   UNL     1      27.881  43.865  53.552  1.00  0.00    -0.042 A 
HETATM   15  C   UNL     1      26.861  44.763  53.213  1.00  0.00     0.011 A 
HETATM   16  C   UNL     1      26.704  45.962  53.914  1.00  0.00     0.040 A 
HETATM   17  C   UNL     1      27.575  46.289  54.956  1.00  0.00     0.101 A 
HETATM   18  C   UNL     1      28.635  45.419  55.267  1.00  0.00     0.102 A 
HETATM   19  C   UNL     1      28.774  44.208  54.578  1.00  0.00     0.048 A 
BRANCH  17  20
HETATM   20  O   UNL     1      27.497  47.445  55.694  1.00  0.00    -0.353 OA
HETATM   21  C   UNL     1      26.400  48.307  55.429  1.00  0.00     0.210 C 
ENDBRANCH  17  20
BRANCH  18  22
HETATM   22  O   UNL     1      29.461  45.792  56.300  1.00  0.00    -0.348 OA
BRANCH  22  23
HETATM   23  C   UNL     1      30.786  45.262  56.253  1.00  0.00     0.175 C 
BRANCH  23  24
HETATM   24  C   UNL     1      30.989  44.412  57.505  1.00  0.00     0.022 C 
HETATM   25  C   UNL     1      31.905  43.230  57.245  1.00  0.00     0.007 C 
ENDBRANCH  23  24
ENDBRANCH  22  23
ENDBRANCH  18  22
ENDBRANCH  13  14
ENDBRANCH  11  13
ENDBRANCH   1  11
BRANCH   8  26
HETATM   26  C   UNL     1      29.465  37.451  50.457  1.00  0.00     0.270 C 
HETATM   27  N   UNL     1      28.666  36.405  50.829  1.00  0.00    -0.365 N 
HETATM   28  H   UNL     1      27.756  36.312  50.393  1.00  0.00     0.159 HD
HETATM   29  H   UNL     1      28.980  35.761  51.535  1.00  0.00     0.159 HD
HETATM   30  O   UNL     1      30.572  37.618  50.960  1.00  0.00    -0.266 OA
ENDBRANCH   8  26
TORSDOF 8
ENDMDL
MODEL 5
REMARK VINA RESULT:      -7.9      4.494      8.223
REMARK  8 active torsions:
REMARK  status: ('A' for Active; 'I' for Inactive)
REMARK    1  A    between atoms: C_2  and  C_3 
REMARK    2  A    between atoms: C_3  and  O_4 
REMARK    3  A    between atoms: O_4  and  C_5 
REMARK    4  A    between atoms: C_6  and  O_7 
REMARK    5  A    between atoms: C_11  and  C_12 
REMARK    6  A    between atoms: C_12  and  N_13 
REMARK    7  A    between atoms: N_13  and  C_14 
REMARK    8  A    between atoms: C_21  and  C_22 
REMARK       I    between atoms: C_22  and  N_23 
ROOT
HETATM    1  C   UNL     1      28.374  44.222  53.616  1.00  0.00     0.009 A 
HETATM    2  C   UNL     1      28.651  44.842  54.847  1.00  0.00     0.039 A 
HETATM    3  C   UNL     1      29.782  44.461  55.600  1.00  0.00     0.030 A 
HETATM    4  C   UNL     1      30.598  43.449  55.116  1.00  0.00     0.063 A 
HETATM    5  N   UNL     1      31.586  43.304  56.050  1.00  0.00    -0.277 N 
HETATM    6  H   UNL     1      32.361  42.650  56.027  1.00  0.00     0.189 HD
HETATM    7  N   UNL     1      31.480  44.128  57.107  1.00  0.00    -0.168 NA
HETATM    8  C   UNL     1      30.365  44.848  56.843  1.00  0.00     0.156 A 
HETATM    9  C   UNL     1      30.347  42.779  53.918  1.00  0.00     0.034 A 
HETATM   10  C   UNL     1      29.212  43.178  53.197  1.00  0.00     0.026 A 
ENDROOT
BRANCH   1  11
HETATM   11  N   UNL     1      27.222  44.493  52.867  1.00  0.00    -0.289 NA
HETATM   12  H   UNL     1      27.322  44.223  51.892  1.00  0.00     0.128 HD
BRANCH  11  13
HETATM   13  C   UNL     1      26.557  45.779  53.020  1.00  0.00     0.131 C 
BRANCH  13  14
HETATM   14  C   UNL     1      25.612  45.988  51.859  1.00  0.00    -0.042 A 
HETATM   15  C   UNL     1      24.918  44.900  51.314  1.00  0.00     0.011 A 
HETATM   16  C   UNL     1      24.031  45.081  50.249  1.00  0.00     0.040 A 
HETATM   17  C   UNL     1      23.834  46.352  49.703  1.00  0.00     0.101 A 
HETATM   18  C   UNL     1      24.567  47.441  50.209  1.00  0.00     0.102 A 
HETATM   19  C   UNL     1      25.437  47.258  51.291  1.00  0.00     0.048 A 
BRANCH  17  20
HETATM   20  O   UNL     1      22.986  46.621  48.657  1.00  0.00    -0.353 OA
HETATM   21  C   UNL     1      22.610  45.526  47.835  1.00  0.00     0.210 C 
ENDBRANCH  17  20
BRANCH  18  22
HETATM   22  O   UNL     1      24.335  48.666  49.634  1.00  0.00    -0.348 OA
BRANCH  22  23
HETATM   23  C   UNL     1      25.393  49.179  48.824  1.00  0.00     0.175 C 
BRANCH  23  24
HETATM   24  C   UNL     1      24.816  50.300  47.964  1.00  0.00     0.022 C 
HETATM   25  C   UNL     1      23.310  50.184  47.815  1.00  0.00     0.007 C 
ENDBRANCH  23  24
ENDBRANCH  22  23
ENDBRANCH  18  22
ENDBRANCH  13  14
ENDBRANCH  11  13
ENDBRANCH   1  11
BRANCH   8  26
HETATM   26  C   UNL     1      29.879  45.877  57.772  1.00  0.00     0.270 C 
HETATM   27  N   UNL     1      30.857  46.442  58.543  1.00  0.00    -0.365 N 
HETATM   28  H   UNL     1      31.811  46.119  58.429  1.00  0.00     0.159 HD
HETATM   29  H   UNL     1      30.617  47.148  59.219  1.00  0.00     0.159 HD
HETATM   30  O   UNL     1      28.705  46.223  57.876  1.00  0.00    -0.266 OA
ENDBRANCH   8  26
TORSDOF 8
ENDMDL
MODEL 6
REMARK VINA RESULT:      -7.8      3.529      7.790
REMARK  8 active torsions:
REMARK  status: ('A' for Active; 'I' for Inactive)
REMARK    1  A    between atoms: C_2  and  C_3 
REMARK    2  A    between atoms: C_3  and  O_4 
REMARK    3  A    between atoms: O_4  and  C_5 
REMARK    4  A    between atoms: C_6  and  O_7 
REMARK    5  A    between atoms: C_11  and  C_12 
REMARK    6  A    between atoms: C_12  and  N_13 
REMARK    7  A    between atoms: N_13  and  C_14 
REMARK    8  A    between atoms: C_21  and  C_22 
REMARK       I    between atoms: C_22  and  N_23 
ROOT
HETATM    1  C   UNL     1      28.096  42.640  53.586  1.00  0.00     0.009 A 
HETATM    2  C   UNL     1      27.490  43.867  53.906  1.00  0.00     0.039 A 
HETATM    3  C   UNL     1      28.171  44.816  54.696  1.00  0.00     0.030 A 
HETATM    4  C   UNL     1      29.438  44.507  55.171  1.00  0.00     0.063 A 
HETATM    5  N   UNL     1      29.829  45.599  55.894  1.00  0.00    -0.277 N 
HETATM    6  H   UNL     1      30.705  45.725  56.390  1.00  0.00     0.189 HD
HETATM    7  N   UNL     1      28.923  46.592  55.941  1.00  0.00    -0.168 NA
HETATM    8  C   UNL     1      27.890  46.119  55.206  1.00  0.00     0.156 A 
HETATM    9  C   UNL     1      30.068  43.291  54.911  1.00  0.00     0.034 A 
HETATM   10  C   UNL     1      29.362  42.366  54.127  1.00  0.00     0.026 A 
ENDROOT
BRANCH   1  11
HETATM   11  N   UNL     1      27.439  41.623  52.883  1.00  0.00    -0.289 NA
HETATM   12  H   UNL     1      27.442  40.740  53.386  1.00  0.00     0.128 HD
BRANCH  11  13
HETATM   13  C   UNL     1      27.705  41.452  51.462  1.00  0.00     0.131 C 
BRANCH  13  14
HETATM   14  C   UNL     1      26.752  42.319  50.672  1.00  0.00    -0.042 A 
HETATM   15  C   UNL     1      25.516  41.807  50.257  1.00  0.00     0.011 A 
HETATM   16  C   UNL     1      24.620  42.603  49.538  1.00  0.00     0.040 A 
HETATM   17  C   UNL     1      24.951  43.920  49.210  1.00  0.00     0.101 A 
HETATM   18  C   UNL     1      26.212  44.424  49.576  1.00  0.00     0.102 A 
HETATM   19  C   UNL     1      27.097  43.631  50.316  1.00  0.00     0.048 A 
BRANCH  17  20
HETATM   20  O   UNL     1      24.135  44.770  48.505  1.00  0.00    -0.353 OA
HETATM   21  C   UNL     1      22.833  44.994  49.027  1.00  0.00     0.210 C 
ENDBRANCH  17  20
BRANCH  18  22
HETATM   22  O   UNL     1      26.485  45.724  49.226  1.00  0.00    -0.348 OA
BRANCH  22  23
HETATM   23  C   UNL     1      26.361  46.685  50.275  1.00  0.00     0.175 C 
BRANCH  23  24
HETATM   24  C   UNL     1      26.175  48.055  49.629  1.00  0.00     0.022 C 
HETATM   25  C   UNL     1      27.498  48.669  49.211  1.00  0.00     0.007 C 
ENDBRANCH  23  24
ENDBRANCH  22  23
ENDBRANCH  18  22
ENDBRANCH  13  14
ENDBRANCH  11  13
ENDBRANCH   1  11
BRANCH   8  26
HETATM   26  C   UNL     1      26.666  46.907  55.008  1.00  0.00     0.270 C 
HETATM   27  N   UNL     1      26.783  48.222  55.365  1.00  0.00    -0.365 N 
HETATM   28  H   UNL     1      27.670  48.547  55.732  1.00  0.00     0.159 HD
HETATM   29  H   UNL     1      25.992  48.838  55.277  1.00  0.00     0.159 HD
HETATM   30  O   UNL     1      25.612  46.457  54.568  1.00  0.00    -0.266 OA
ENDBRANCH   8  26
TORSDOF 8
ENDMDL
MODEL 7
REMARK VINA RESULT:      -7.7      3.752      5.269
REMARK  8 active torsions:
REMARK  status: ('A' for Active; 'I' for Inactive)
REMARK    1  A    between atoms: C_2  and  C_3 
REMARK    2  A    between atoms: C_3  and  O_4 
REMARK    3  A    between atoms: O_4  and  C_5 
REMARK    4  A    between atoms: C_6  and  O_7 
REMARK    5  A    between atoms: C_11  and  C_12 
REMARK    6  A    between atoms: C_12  and  N_13 
REMARK    7  A    between atoms: N_13  and  C_14 
REMARK    8  A    between atoms: C_21  and  C_22 
REMARK       I    between atoms: C_22  and  N_23 
ROOT
HETATM    1  C   UNL     1      26.557  44.876  50.697  1.00  0.00     0.009 A 
HETATM    2  C   UNL     1      25.604  44.361  49.801  1.00  0.00     0.039 A 
HETATM    3  C   UNL     1      24.469  45.123  49.449  1.00  0.00     0.030 A 
HETATM    4  C   UNL     1      24.300  46.376  50.021  1.00  0.00     0.063 A 
HETATM    5  N   UNL     1      23.131  46.856  49.500  1.00  0.00    -0.277 N 
HETATM    6  H   UNL     1      22.693  47.749  49.697  1.00  0.00     0.189 HD
HETATM    7  N   UNL     1      22.517  46.021  48.644  1.00  0.00    -0.168 NA
HETATM    8  C   UNL     1      23.333  44.943  48.605  1.00  0.00     0.156 A 
HETATM    9  C   UNL     1      25.199  46.917  50.941  1.00  0.00     0.034 A 
HETATM   10  C   UNL     1      26.313  46.132  51.274  1.00  0.00     0.026 A 
ENDROOT
BRANCH   1  11
HETATM   11  N   UNL     1      27.655  44.136  51.153  1.00  0.00    -0.289 NA
HETATM   12  H   UNL     1      28.211  43.758  50.390  1.00  0.00     0.128 HD
BRANCH  11  13
HETATM   13  C   UNL     1      27.470  43.177  52.232  1.00  0.00     0.131 C 
BRANCH  13  14
HETATM   14  C   UNL     1      28.435  43.500  53.350  1.00  0.00    -0.042 A 
HETATM   15  C   UNL     1      29.433  42.583  53.704  1.00  0.00     0.011 A 
HETATM   16  C   UNL     1      30.339  42.875  54.726  1.00  0.00     0.040 A 
HETATM   17  C   UNL     1      30.253  44.083  55.422  1.00  0.00     0.101 A 
HETATM   18  C   UNL     1      29.220  44.986  55.111  1.00  0.00     0.102 A 
HETATM   19  C   UNL     1      28.329  44.699  54.069  1.00  0.00     0.048 A 
BRANCH  17  20
HETATM   20  O   UNL     1      31.098  44.451  56.441  1.00  0.00    -0.353 OA
HETATM   21  C   UNL     1      31.794  43.408  57.108  1.00  0.00     0.210 C 
ENDBRANCH  17  20
BRANCH  18  22
HETATM   22  O   UNL     1      29.183  46.157  55.827  1.00  0.00    -0.348 OA
BRANCH  22  23
HETATM   23  C   UNL     1      27.882  46.694  56.065  1.00  0.00     0.175 C 
BRANCH  23  24
HETATM   24  C   UNL     1      27.634  47.786  55.028  1.00  0.00     0.022 C 
HETATM   25  C   UNL     1      26.169  47.885  54.647  1.00  0.00     0.007 C 
ENDBRANCH  23  24
ENDBRANCH  22  23
ENDBRANCH  18  22
ENDBRANCH  13  14
ENDBRANCH  11  13
ENDBRANCH   1  11
BRANCH   8  26
HETATM   26  C   UNL     1      23.017  43.770  47.778  1.00  0.00     0.270 C 
HETATM   27  N   UNL     1      23.810  43.636  46.672  1.00  0.00    -0.365 N 
HETATM   28  H   UNL     1      24.528  44.331  46.503  1.00  0.00     0.159 HD
HETATM   29  H   UNL     1      23.659  42.869  46.037  1.00  0.00     0.159 HD
HETATM   30  O   UNL     1      22.125  42.964  48.025  1.00  0.00    -0.266 OA
ENDBRANCH   8  26
TORSDOF 8
ENDMDL
MODEL 8
REMARK VINA RESULT:      -7.7      4.035      6.833
REMARK  8 active torsions:
REMARK  status: ('A' for Active; 'I' for Inactive)
REMARK    1  A    between atoms: C_2  and  C_3 
REMARK    2  A    between atoms: C_3  and  O_4 
REMARK    3  A    between atoms: O_4  and  C_5 
REMARK    4  A    between atoms: C_6  and  O_7 
REMARK    5  A    between atoms: C_11  and  C_12 
REMARK    6  A    between atoms: C_12  and  N_13 
REMARK    7  A    between atoms: N_13  and  C_14 
REMARK    8  A    between atoms: C_21  and  C_22 
REMARK       I    between atoms: C_22  and  N_23 
ROOT
HETATM    1  C   UNL     1      25.672  46.338  52.010  1.00  0.00     0.009 A 
HETATM    2  C   UNL     1      24.993  47.193  51.126  1.00  0.00     0.039 A 
HETATM    3  C   UNL     1      24.172  46.664  50.107  1.00  0.00     0.030 A 
HETATM    4  C   UNL     1      24.069  45.286  49.980  1.00  0.00     0.063 A 
HETATM    5  N   UNL     1      23.225  45.083  48.923  1.00  0.00    -0.277 N 
HETATM    6  H   UNL     1      22.923  44.193  48.542  1.00  0.00     0.189 HD
HETATM    7  N   UNL     1      22.777  46.210  48.343  1.00  0.00    -0.168 NA
HETATM    8  C   UNL     1      23.357  47.196  49.064  1.00  0.00     0.156 A 
HETATM    9  C   UNL     1      24.749  44.395  50.810  1.00  0.00     0.034 A 
HETATM   10  C   UNL     1      25.561  44.953  51.808  1.00  0.00     0.026 A 
ENDROOT
BRANCH   1  11
HETATM   11  N   UNL     1      26.568  46.799  52.982  1.00  0.00    -0.289 NA
HETATM   12  H   UNL     1      27.536  46.737  52.677  1.00  0.00     0.128 HD
BRANCH  11  13
HETATM   13  C   UNL     1      26.396  46.383  54.366  1.00  0.00     0.131 C 
BRANCH  13  14
HETATM   14  C   UNL     1      27.693  45.791  54.869  1.00  0.00    -0.042 A 
HETATM   15  C   UNL     1      28.328  46.341  55.990  1.00  0.00     0.011 A 
HETATM   16  C   UNL     1      29.520  45.794  56.473  1.00  0.00     0.040 A 
HETATM   17  C   UNL     1      30.104  44.698  55.834  1.00  0.00     0.101 A 
HETATM   18  C   UNL     1      29.502  44.173  54.676  1.00  0.00     0.102 A 
HETATM   19  C   UNL     1      28.295  44.709  54.210  1.00  0.00     0.048 A 
BRANCH  17  20
HETATM   20  O   UNL     1      31.273  44.100  56.237  1.00  0.00    -0.353 OA
HETATM   21  C   UNL     1      31.489  43.987  57.637  1.00  0.00     0.210 C 
ENDBRANCH  17  20
BRANCH  18  22
HETATM   22  O   UNL     1      30.119  43.097  54.089  1.00  0.00    -0.348 OA
BRANCH  22  23
HETATM   23  C   UNL     1      29.584  42.689  52.830  1.00  0.00     0.175 C 
BRANCH  23  24
HETATM   24  C   UNL     1      28.853  41.366  53.044  1.00  0.00     0.022 C 
HETATM   25  C   UNL     1      27.714  41.182  52.058  1.00  0.00     0.007 C 
ENDBRANCH  23  24
ENDBRANCH  22  23
ENDBRANCH  18  22
ENDBRANCH  13  14
ENDBRANCH  11  13
ENDBRANCH   1  11
BRANCH   8  26
HETATM   26  C   UNL     1      23.132  48.613  48.747  1.00  0.00     0.270 C 
HETATM   27  N   UNL     1      22.356  49.274  49.659  1.00  0.00    -0.365 N 
HETATM   28  H   UNL     1      21.999  48.758  50.455  1.00  0.00     0.159 HD
HETATM   29  H   UNL     1      22.135  50.246  49.519  1.00  0.00     0.159 HD
HETATM   30  O   UNL     1      23.581  49.185  47.758  1.00  0.00    -0.266 OA
ENDBRANCH   8  26
TORSDOF 8
ENDMDL
MODEL 9
REMARK VINA RESULT:      -7.5      5.192      8.778
REMARK  8 active torsions:
REMARK  status: ('A' for Active; 'I' for Inactive)
REMARK    1  A    between atoms: C_2  and  C_3 
REMARK    2  A    between atoms: C_3  and  O_4 
REMARK    3  A    between atoms: O_4  and  C_5 
REMARK    4  A    between atoms: C_6  and  O_7 
REMARK    5  A    between atoms: C_11  and  C_12 
REMARK    6  A    between atoms: C_12  and  N_13 
REMARK    7  A    between atoms: N_13  and  C_14 
REMARK    8  A    between atoms: C_21  and  C_22 
REMARK       I    between atoms: C_22  and  N_23 
ROOT
HETATM    1  C   UNL     1      26.238  46.897  53.355  1.00  0.00     0.009 A 
HETATM    2  C   UNL     1      27.050  45.750  53.345  1.00  0.00     0.039 A 
HETATM    3  C   UNL     1      27.954  45.506  54.401  1.00  0.00     0.030 A 
HETATM    4  C   UNL     1      28.042  46.428  55.434  1.00  0.00     0.063 A 
HETATM    5  N   UNL     1      28.987  45.927  56.286  1.00  0.00    -0.277 N 
HETATM    6  H   UNL     1      29.313  46.342  57.152  1.00  0.00     0.189 HD
HETATM    7  N   UNL     1      29.530  44.761  55.893  1.00  0.00    -0.168 NA
HETATM    8  C   UNL     1      28.902  44.490  54.726  1.00  0.00     0.156 A 
HETATM    9  C   UNL     1      27.283  47.598  55.473  1.00  0.00     0.034 A 
HETATM   10  C   UNL     1      26.399  47.814  54.405  1.00  0.00     0.026 A 
ENDROOT
BRANCH   1  11
HETATM   11  N   UNL     1      25.388  47.240  52.296  1.00  0.00    -0.289 NA
HETATM   12  H   UNL     1      24.512  46.725  52.320  1.00  0.00     0.128 HD
BRANCH  11  13
HETATM   13  C   UNL     1      25.932  47.346  50.950  1.00  0.00     0.131 C 
BRANCH  13  14
HETATM   14  C   UNL     1      24.792  47.405  49.960  1.00  0.00    -0.042 A 
HETATM   15  C   UNL     1      24.022  46.263  49.707  1.00  0.00     0.011 A 
HETATM   16  C   UNL     1      22.956  46.308  48.804  1.00  0.00     0.040 A 
HETATM   17  C   UNL     1      22.653  47.492  48.127  1.00  0.00     0.101 A 
HETATM   18  C   UNL     1      23.456  48.628  48.334  1.00  0.00     0.102 A 
HETATM   19  C   UNL     1      24.508  48.585  49.257  1.00  0.00     0.048 A 
BRANCH  17  20
HETATM   20  O   UNL     1      21.629  47.625  47.222  1.00  0.00    -0.353 OA
HETATM   21  C   UNL     1      20.308  47.442  47.711  1.00  0.00     0.210 C 
ENDBRANCH  17  20
BRANCH  18  22
HETATM   22  O   UNL     1      23.113  49.764  47.642  1.00  0.00    -0.348 OA
BRANCH  22  23
HETATM   23  C   UNL     1      22.915  50.934  48.435  1.00  0.00     0.175 C 
BRANCH  23  24
HETATM   24  C   UNL     1      21.604  50.762  49.195  1.00  0.00     0.022 C 
HETATM   25  C   UNL     1      20.487  51.598  48.598  1.00  0.00     0.007 C 
ENDBRANCH  23  24
ENDBRANCH  22  23
ENDBRANCH  18  22
ENDBRANCH  13  14
ENDBRANCH  11  13
ENDBRANCH   1  11
BRANCH   8  26
HETATM   26  C   UNL     1      29.216  43.285  53.948  1.00  0.00     0.270 C 
HETATM   27  N   UNL     1      28.248  42.319  53.996  1.00  0.00    -0.365 N 
HETATM   28  H   UNL     1      27.417  42.494  54.549  1.00  0.00     0.159 HD
HETATM   29  H   UNL     1      28.381  41.452  53.504  1.00  0.00     0.159 HD
HETATM   30  O   UNL     1      30.248  43.121  53.303  1.00  0.00    -0.266 OA
ENDBRANCH   8  26
TORSDOF 8
ENDMDL
MODEL 10
REMARK VINA RESULT:      -7.5      4.858      7.723
REMARK  8 active torsions:
REMARK  status: ('A' for Active; 'I' for Inactive)
REMARK    1  A    between atoms: C_2  and  C_3 
REMARK    2  A    between atoms: C_3  and  O_4 
REMARK    3  A    between atoms: O_4  and  C_5 
REMARK    4  A    between atoms: C_6  and  O_7 
REMARK    5  A    between atoms: C_11  and  C_12 
REMARK    6  A    between atoms: C_12  and  N_13 
REMARK    7  A    between atoms: N_13  and  C_14 
REMARK    8  A    between atoms: C_21  and  C_22 
REMARK       I    between atoms: C_22  and  N_23 
ROOT
HETATM    1  C   UNL     1      25.383  46.727  50.320  1.00  0.00     0.009 A 
HETATM    2  C   UNL     1      24.178  47.244  49.817  1.00  0.00     0.039 A 
HETATM    3  C   UNL     1      24.179  48.397  49.004  1.00  0.00     0.030 A 
HETATM    4  C   UNL     1      25.386  49.024  48.732  1.00  0.00     0.063 A 
HETATM    5  N   UNL     1      25.069  50.093  47.941  1.00  0.00    -0.277 N 
HETATM    6  H   UNL     1      25.707  50.779  47.553  1.00  0.00     0.189 HD
HETATM    7  N   UNL     1      23.756  50.224  47.681  1.00  0.00    -0.168 NA
HETATM    8  C   UNL     1      23.193  49.183  48.335  1.00  0.00     0.156 A 
HETATM    9  C   UNL     1      26.605  48.571  49.236  1.00  0.00     0.034 A 
HETATM   10  C   UNL     1      26.570  47.426  50.046  1.00  0.00     0.026 A 
ENDROOT
BRANCH   1  11
HETATM   11  N   UNL     1      25.440  45.641  51.203  1.00  0.00    -0.289 NA
HETATM   12  H   UNL     1      24.850  44.869  50.905  1.00  0.00     0.128 HD
BRANCH  11  13
HETATM   13  C   UNL     1      25.356  45.881  52.636  1.00  0.00     0.131 C 
BRANCH  13  14
HETATM   14  C   UNL     1      26.653  45.455  53.285  1.00  0.00    -0.042 A 
HETATM   15  C   UNL     1      27.283  44.270  52.884  1.00  0.00     0.011 A 
HETATM   16  C   UNL     1      28.490  43.872  53.466  1.00  0.00     0.040 A 
HETATM   17  C   UNL     1      29.079  44.646  54.470  1.00  0.00     0.101 A 
HETATM   18  C   UNL     1      28.425  45.808  54.917  1.00  0.00     0.102 A 
HETATM   19  C   UNL     1      27.228  46.216  54.314  1.00  0.00     0.048 A 
BRANCH  17  20
HETATM   20  O   UNL     1      30.258  44.330  55.098  1.00  0.00    -0.353 OA
HETATM   21  C   UNL     1      30.457  42.967  55.446  1.00  0.00     0.210 C 
ENDBRANCH  17  20
BRANCH  18  22
HETATM   22  O   UNL     1      29.048  46.529  55.906  1.00  0.00    -0.348 OA
BRANCH  22  23
HETATM   23  C   UNL     1      28.396  46.527  57.176  1.00  0.00     0.175 C 
BRANCH  23  24
HETATM   24  C   UNL     1      29.208  45.637  58.112  1.00  0.00     0.022 C 
HETATM   25  C   UNL     1      30.655  46.085  58.208  1.00  0.00     0.007 C 
ENDBRANCH  23  24
ENDBRANCH  22  23
ENDBRANCH  18  22
ENDBRANCH  13  14
ENDBRANCH  11  13
ENDBRANCH   1  11
BRANCH   8  26
HETATM   26  C   UNL     1      21.741  48.960  48.315  1.00  0.00     0.270 C 
HETATM   27  N   UNL     1      21.107  49.294  49.481  1.00  0.00    -0.365 N 
HETATM   28  H   UNL     1      21.663  49.652  50.249  1.00  0.00     0.159 HD
HETATM   29  H   UNL     1      20.113  49.163  49.566  1.00  0.00     0.159 HD
HETATM   30  O   UNL     1      21.118  48.512  47.357  1.00  0.00    -0.266 OA
ENDBRANCH   8  26
TORSDOF 8
ENDMDL
