MODEL 1
REMARK VINA RESULT:     -10.4      0.000      0.000
REMARK  7 active torsions:
REMARK  status: ('A' for Active; 'I' for Inactive)
REMARK    1  A    between atoms: O_2  and  C_3 
REMARK    2  A    between atoms: C_4  and  C_5 
REMARK    3  A    between atoms: N_10  and  C_12 
REMARK    4  A    between atoms: C_12  and  C_13 
REMARK       I    between atoms: C_13  and  N_14 
REMARK    5  A    between atoms: N_14  and  C_15 
REMARK    6  A    between atoms: C_15  and  C_16 
REMARK    7  A    between atoms: C_16  and  C_17 
ROOT
HETATM    1  C   UNL     1      25.273  46.633  50.578  1.00  0.00     0.190 C 
HETATM    2  O   UNL     1      26.500  46.090  51.098  1.00  0.00    -0.339 OA
HETATM    3  C   UNL     1      26.301  45.604  52.362  1.00  0.00     0.077 A 
HETATM    4  C   UNL     1      25.548  44.443  52.570  1.00  0.00     0.001 A 
HETATM    5  C   UNL     1      24.990  43.676  51.409  1.00  0.00     0.276 C 
HETATM    6  N   UNL     1      23.957  44.437  50.623  1.00  0.00    -0.056 N 
HETATM    7  H   UNL     1      23.319  44.891  51.299  1.00  0.00     0.280 HD
HETATM    8  C   UNL     1      24.546  45.551  49.750  1.00  0.00     0.273 C 
HETATM    9  C   UNL     1      26.886  46.291  53.423  1.00  0.00     0.037 A 
HETATM   10  C   UNL     1      26.688  45.841  54.725  1.00  0.00     0.003 A 
HETATM   11  C   UNL     1      25.920  44.701  54.958  1.00  0.00     0.001 A 
HETATM   12  C   UNL     1      25.356  44.001  53.887  1.00  0.00     0.012 A 
ENDROOT
BRANCH   6  13
HETATM   13  C   UNL     1      23.056  43.517  49.801  1.00  0.00     0.337 C 
BRANCH  13  14
HETATM   14  C   UNL     1      22.424  44.297  48.649  1.00  0.00     0.243 C 
HETATM   15  N   UNL     1      21.320  45.047  48.969  1.00  0.00    -0.359 N 
HETATM   16  H   UNL     1      20.855  44.883  49.858  1.00  0.00     0.162 HD
HETATM   17  O   UNL     1      22.855  44.146  47.506  1.00  0.00    -0.272 OA
BRANCH  15  18
HETATM   18  C   UNL     1      20.448  45.570  47.930  1.00  0.00     0.130 C 
BRANCH  18  19
HETATM   19  C   UNL     1      19.050  45.912  48.449  1.00  0.00     0.098 C 
BRANCH  19  20
HETATM   20  C   UNL     1      18.922  47.373  48.831  1.00  0.00     0.109 A 
HETATM   21  N   UNL     1      18.983  48.308  47.930  1.00  0.00    -0.234 NA
HETATM   22  C   UNL     1      18.849  49.642  48.371  1.00  0.00     0.074 A 
HETATM   23  C   UNL     1      18.699  49.981  49.720  1.00  0.00     0.061 A 
HETATM   24  C   UNL     1      18.853  50.671  47.426  1.00  0.00     0.032 A 
HETATM   25  C   UNL     1      18.679  48.883  50.697  1.00  0.00     0.259 A 
HETATM   26  C   UNL     1      18.560  51.311  50.130  1.00  0.00     0.019 A 
HETATM   27  O   UNL     1      18.580  49.076  51.902  1.00  0.00    -0.267 OA
HETATM   28  N   UNL     1      18.780  47.623  50.169  1.00  0.00    -0.311 N 
HETATM   29  H   UNL     1      18.766  46.876  50.852  1.00  0.00     0.170 HD
HETATM   30  C   UNL     1      18.568  52.323  49.176  1.00  0.00     0.001 A 
HETATM   31  C   UNL     1      18.713  52.005  47.824  1.00  0.00     0.002 A 
ENDBRANCH  19  20
ENDBRANCH  18  19
ENDBRANCH  15  18
ENDBRANCH  13  14
ENDBRANCH   6  13
BRANCH   1  32
HETATM   32  C   UNL     1      25.631  47.852  49.739  1.00  0.00     0.006 A 
HETATM   33  C   UNL     1      24.614  48.661  49.191  1.00  0.00     0.077 A 
HETATM   34  C   UNL     1      24.954  49.770  48.409  1.00  0.00     0.037 A 
HETATM   35  C   UNL     1      26.291  50.095  48.184  1.00  0.00     0.003 A 
HETATM   36  C   UNL     1      27.301  49.323  48.746  1.00  0.00     0.001 A 
HETATM   37  C   UNL     1      26.976  48.215  49.526  1.00  0.00     0.012 A 
BRANCH  33  38
HETATM   38  O   UNL     1      23.326  48.275  49.457  1.00  0.00    -0.355 OA
HETATM   39  C   UNL     1      22.298  49.233  49.223  1.00  0.00     0.210 C 
ENDBRANCH  33  38
ENDBRANCH   1  32
TORSDOF 7
ENDMDL
MODEL 2
REMARK VINA RESULT:     -10.3      1.671      4.221
REMARK  7 active torsions:
REMARK  status: ('A' for Active; 'I' for Inactive)
REMARK    1  A    between atoms: O_2  and  C_3 
REMARK    2  A    between atoms: C_4  and  C_5 
REMARK    3  A    between atoms: N_10  and  C_12 
REMARK    4  A    between atoms: C_12  and  C_13 
REMARK       I    between atoms: C_13  and  N_14 
REMARK    5  A    between atoms: N_14  and  C_15 
REMARK    6  A    between atoms: C_15  and  C_16 
REMARK    7  A    between atoms: C_16  and  C_17 
ROOT
HETATM    1  C   UNL     1      26.041  45.524  52.196  1.00  0.00     0.190 C 
HETATM    2  O   UNL     1      26.948  44.793  51.352  1.00  0.00    -0.339 OA
HETATM    3  C   UNL     1      26.276  43.809  50.678  1.00  0.00     0.077 A 
HETATM    4  C   UNL     1      25.378  44.130  49.655  1.00  0.00     0.001 A 
HETATM    5  C   UNL     1      25.174  45.554  49.235  1.00  0.00     0.276 C 
HETATM    6  N   UNL     1      24.561  46.417  50.306  1.00  0.00    -0.056 N 
HETATM    7  H   UNL     1      23.782  45.886  50.731  1.00  0.00     0.280 HD
HETATM    8  C   UNL     1      25.530  46.770  51.440  1.00  0.00     0.273 C 
HETATM    9  C   UNL     1      26.531  42.487  51.035  1.00  0.00     0.037 A 
HETATM   10  C   UNL     1      25.851  41.458  50.389  1.00  0.00     0.003 A 
HETATM   11  C   UNL     1      24.932  41.756  49.384  1.00  0.00     0.001 A 
HETATM   12  C   UNL     1      24.699  43.083  49.014  1.00  0.00     0.012 A 
ENDROOT
BRANCH   6  13
HETATM   13  C   UNL     1      23.905  47.673  49.736  1.00  0.00     0.337 C 
BRANCH  13  14
HETATM   14  C   UNL     1      22.808  47.286  48.744  1.00  0.00     0.243 C 
HETATM   15  N   UNL     1      21.932  46.319  49.169  1.00  0.00    -0.359 N 
HETATM   16  H   UNL     1      22.170  45.764  49.987  1.00  0.00     0.162 HD
HETATM   17  O   UNL     1      22.817  47.769  47.612  1.00  0.00    -0.272 OA
BRANCH  15  18
HETATM   18  C   UNL     1      21.057  45.641  48.226  1.00  0.00     0.130 C 
BRANCH  18  19
HETATM   19  C   UNL     1      19.576  45.917  48.492  1.00  0.00     0.098 C 
BRANCH  19  20
HETATM   20  C   UNL     1      19.321  47.361  48.872  1.00  0.00     0.109 A 
HETATM   21  N   UNL     1      19.452  48.317  48.000  1.00  0.00    -0.234 NA
HETATM   22  C   UNL     1      19.191  49.633  48.437  1.00  0.00     0.074 A 
HETATM   23  C   UNL     1      18.845  49.936  49.757  1.00  0.00     0.061 A 
HETATM   24  C   UNL     1      19.267  50.679  47.514  1.00  0.00     0.032 A 
HETATM   25  C   UNL     1      18.752  48.820  50.709  1.00  0.00     0.259 A 
HETATM   26  C   UNL     1      18.583  51.249  50.163  1.00  0.00     0.019 A 
HETATM   27  O   UNL     1      18.483  48.983  51.892  1.00  0.00    -0.267 OA
HETATM   28  N   UNL     1      18.989  47.577  50.182  1.00  0.00    -0.311 N 
HETATM   29  H   UNL     1      18.923  46.817  50.848  1.00  0.00     0.170 HD
HETATM   30  C   UNL     1      18.664  52.280  49.231  1.00  0.00     0.001 A 
HETATM   31  C   UNL     1      19.005  51.996  47.908  1.00  0.00     0.002 A 
ENDBRANCH  19  20
ENDBRANCH  18  19
ENDBRANCH  15  18
ENDBRANCH  13  14
ENDBRANCH   6  13
BRANCH   1  32
HETATM   32  C   UNL     1      26.793  45.893  53.466  1.00  0.00     0.006 A 
HETATM   33  C   UNL     1      27.127  44.898  54.409  1.00  0.00     0.077 A 
HETATM   34  C   UNL     1      27.806  45.250  55.581  1.00  0.00     0.037 A 
HETATM   35  C   UNL     1      28.174  46.574  55.816  1.00  0.00     0.003 A 
HETATM   36  C   UNL     1      27.878  47.557  54.878  1.00  0.00     0.001 A 
HETATM   37  C   UNL     1      27.201  47.219  53.707  1.00  0.00     0.012 A 
BRANCH  33  38
HETATM   38  O   UNL     1      26.730  43.622  54.106  1.00  0.00    -0.355 OA
HETATM   39  C   UNL     1      27.709  42.592  54.214  1.00  0.00     0.210 C 
ENDBRANCH  33  38
ENDBRANCH   1  32
TORSDOF 7
ENDMDL
MODEL 3
REMARK VINA RESULT:     -10.1      2.607      9.131
REMARK  7 active torsions:
REMARK  status: ('A' for Active; 'I' for Inactive)
REMARK    1  A    between atoms: O_2  and  C_3 
REMARK    2  A    between atoms: C_4  and  C_5 
REMARK    3  A    between atoms: N_10  and  C_12 
REMARK    4  A    between atoms: C_12  and  C_13 
REMARK       I    between atoms: C_13  and  N_14 
REMARK    5  A    between atoms: N_14  and  C_15 
REMARK    6  A    between atoms: C_15  and  C_16 
REMARK    7  A    between atoms: C_16  and  C_17 
ROOT
HETATM    1  C   UNL     1      21.261  47.112  48.167  1.00  0.00     0.190 C 
HETATM    2  O   UNL     1      20.873  48.302  47.457  1.00  0.00    -0.339 OA
HETATM    3  C   UNL     1      20.552  49.295  48.343  1.00  0.00     0.077 A 
HETATM    4  C   UNL     1      21.545  49.918  49.107  1.00  0.00     0.001 A 
HETATM    5  C   UNL     1      22.988  49.551  48.932  1.00  0.00     0.276 C 
HETATM    6  N   UNL     1      23.303  48.133  49.327  1.00  0.00    -0.056 N 
HETATM    7  H   UNL     1      22.825  47.943  50.225  1.00  0.00     0.280 HD
HETATM    8  C   UNL     1      22.797  47.088  48.325  1.00  0.00     0.273 C 
HETATM    9  C   UNL     1      19.215  49.671  48.443  1.00  0.00     0.037 A 
HETATM   10  C   UNL     1      18.845  50.661  49.349  1.00  0.00     0.003 A 
HETATM   11  C   UNL     1      19.815  51.277  50.139  1.00  0.00     0.001 A 
HETATM   12  C   UNL     1      21.158  50.913  50.017  1.00  0.00     0.012 A 
ENDROOT
BRANCH   6  13
HETATM   13  C   UNL     1      24.786  47.928  49.628  1.00  0.00     0.337 C 
BRANCH  13  14
HETATM   14  C   UNL     1      24.951  47.072  50.883  1.00  0.00     0.243 C 
HETATM   15  N   UNL     1      24.795  45.719  50.710  1.00  0.00    -0.359 N 
HETATM   16  H   UNL     1      24.373  45.379  49.850  1.00  0.00     0.162 HD
HETATM   17  O   UNL     1      25.112  47.620  51.974  1.00  0.00    -0.272 OA
BRANCH  15  18
HETATM   18  C   UNL     1      24.610  44.838  51.852  1.00  0.00     0.130 C 
BRANCH  18  19
HETATM   19  C   UNL     1      25.712  43.784  51.968  1.00  0.00     0.098 C 
BRANCH  19  20
HETATM   20  C   UNL     1      26.769  44.168  52.983  1.00  0.00     0.109 A 
HETATM   21  N   UNL     1      27.744  43.359  53.275  1.00  0.00    -0.234 NA
HETATM   22  C   UNL     1      28.688  43.798  54.228  1.00  0.00     0.074 A 
HETATM   23  C   UNL     1      28.584  45.029  54.883  1.00  0.00     0.061 A 
HETATM   24  C   UNL     1      29.779  42.979  54.525  1.00  0.00     0.032 A 
HETATM   25  C   UNL     1      27.438  45.885  54.543  1.00  0.00     0.259 A 
HETATM   26  C   UNL     1      29.537  45.445  55.818  1.00  0.00     0.019 A 
HETATM   27  O   UNL     1      27.242  46.967  55.079  1.00  0.00    -0.267 OA
HETATM   28  N   UNL     1      26.597  45.387  53.581  1.00  0.00    -0.311 N 
HETATM   29  H   UNL     1      25.812  45.985  53.357  1.00  0.00     0.170 HD
HETATM   30  C   UNL     1      30.618  44.616  56.104  1.00  0.00     0.001 A 
HETATM   31  C   UNL     1      30.741  43.385  55.458  1.00  0.00     0.002 A 
ENDBRANCH  19  20
ENDBRANCH  18  19
ENDBRANCH  15  18
ENDBRANCH  13  14
ENDBRANCH   6  13
BRANCH   1  32
HETATM   32  C   UNL     1      20.748  45.918  47.373  1.00  0.00     0.006 A 
HETATM   33  C   UNL     1      19.428  45.456  47.556  1.00  0.00     0.077 A 
HETATM   34  C   UNL     1      18.972  44.349  46.833  1.00  0.00     0.037 A 
HETATM   35  C   UNL     1      19.806  43.710  45.915  1.00  0.00     0.003 A 
HETATM   36  C   UNL     1      21.098  44.178  45.703  1.00  0.00     0.001 A 
HETATM   37  C   UNL     1      21.564  45.279  46.419  1.00  0.00     0.012 A 
BRANCH  33  38
HETATM   38  O   UNL     1      18.673  46.135  48.476  1.00  0.00    -0.355 OA
HETATM   39  C   UNL     1      17.297  46.336  48.168  1.00  0.00     0.210 C 
ENDBRANCH  33  38
ENDBRANCH   1  32
TORSDOF 7
ENDMDL
MODEL 4
REMARK VINA RESULT:     -10.1      2.426      8.807
REMARK  7 active torsions:
REMARK  status: ('A' for Active; 'I' for Inactive)
REMARK    1  A    between atoms: O_2  and  C_3 
REMARK    2  A    between atoms: C_4  and  C_5 
REMARK    3  A    between atoms: N_10  and  C_12 
REMARK    4  A    between atoms: C_12  and  C_13 
REMARK       I    between atoms: C_13  and  N_14 
REMARK    5  A    between atoms: N_14  and  C_15 
REMARK    6  A    between atoms: C_15  and  C_16 
REMARK    7  A    between atoms: C_16  and  C_17 
ROOT
HETATM    1  C   UNL     1      19.801  48.158  48.532  1.00  0.00     0.190 C 
HETATM    2  O   UNL     1      20.528  48.773  47.454  1.00  0.00    -0.339 OA
HETATM    3  C   UNL     1      21.756  49.191  47.892  1.00  0.00     0.077 A 
HETATM    4  C   UNL     1      22.754  48.263  48.209  1.00  0.00     0.001 A 
HETATM    5  C   UNL     1      22.521  46.794  48.022  1.00  0.00     0.276 C 
HETATM    6  N   UNL     1      21.448  46.235  48.917  1.00  0.00    -0.056 N 
HETATM    7  H   UNL     1      21.598  46.619  49.866  1.00  0.00     0.280 HD
HETATM    8  C   UNL     1      20.027  46.631  48.496  1.00  0.00     0.273 C 
HETATM    9  C   UNL     1      21.979  50.562  47.993  1.00  0.00     0.037 A 
HETATM   10  C   UNL     1      23.207  51.026  48.457  1.00  0.00     0.003 A 
HETATM   11  C   UNL     1      24.207  50.118  48.803  1.00  0.00     0.001 A 
HETATM   12  C   UNL     1      23.986  48.745  48.676  1.00  0.00     0.012 A 
ENDROOT
BRANCH   6  13
HETATM   13  C   UNL     1      21.565  44.722  49.091  1.00  0.00     0.337 C 
BRANCH  13  14
HETATM   14  C   UNL     1      23.008  44.344  49.426  1.00  0.00     0.243 C 
HETATM   15  N   UNL     1      23.408  44.597  50.714  1.00  0.00    -0.359 N 
HETATM   16  H   UNL     1      22.836  45.203  51.297  1.00  0.00     0.162 HD
HETATM   17  O   UNL     1      23.751  43.937  48.534  1.00  0.00    -0.272 OA
BRANCH  15  18
HETATM   18  C   UNL     1      24.818  44.586  51.072  1.00  0.00     0.130 C 
BRANCH  18  19
HETATM   19  C   UNL     1      25.245  45.846  51.826  1.00  0.00     0.098 C 
BRANCH  19  20
HETATM   20  C   UNL     1      26.391  45.582  52.781  1.00  0.00     0.109 A 
HETATM   21  N   UNL     1      27.134  44.521  52.659  1.00  0.00    -0.234 NA
HETATM   22  C   UNL     1      28.184  44.355  53.587  1.00  0.00     0.074 A 
HETATM   23  C   UNL     1      28.416  45.252  54.635  1.00  0.00     0.061 A 
HETATM   24  C   UNL     1      29.037  43.257  53.453  1.00  0.00     0.032 A 
HETATM   25  C   UNL     1      27.518  46.411  54.748  1.00  0.00     0.259 A 
HETATM   26  C   UNL     1      29.468  45.069  55.537  1.00  0.00     0.019 A 
HETATM   27  O   UNL     1      27.621  47.238  55.644  1.00  0.00    -0.267 OA
HETATM   28  N   UNL     1      26.553  46.504  53.779  1.00  0.00    -0.311 N 
HETATM   29  H   UNL     1      25.941  47.305  53.869  1.00  0.00     0.170 HD
HETATM   30  C   UNL     1      30.309  43.969  55.390  1.00  0.00     0.001 A 
HETATM   31  C   UNL     1      30.095  43.064  54.349  1.00  0.00     0.002 A 
ENDBRANCH  19  20
ENDBRANCH  18  19
ENDBRANCH  15  18
ENDBRANCH  13  14
ENDBRANCH   6  13
BRANCH   1  32
HETATM   32  C   UNL     1      18.333  48.523  48.361  1.00  0.00     0.006 A 
HETATM   33  C   UNL     1      17.855  49.772  48.810  1.00  0.00     0.077 A 
HETATM   34  C   UNL     1      16.501  50.092  48.661  1.00  0.00     0.037 A 
HETATM   35  C   UNL     1      15.623  49.195  48.055  1.00  0.00     0.003 A 
HETATM   36  C   UNL     1      16.091  47.974  47.581  1.00  0.00     0.001 A 
HETATM   37  C   UNL     1      17.438  47.643  47.723  1.00  0.00     0.012 A 
BRANCH  33  38
HETATM   38  O   UNL     1      18.779  50.598  49.396  1.00  0.00    -0.355 OA
HETATM   39  C   UNL     1      18.560  52.001  49.286  1.00  0.00     0.210 C 
ENDBRANCH  33  38
ENDBRANCH   1  32
TORSDOF 7
ENDMDL
MODEL 5
REMARK VINA RESULT:     -10.0      3.093      5.276
REMARK  7 active torsions:
REMARK  status: ('A' for Active; 'I' for Inactive)
REMARK    1  A    between atoms: O_2  and  C_3 
REMARK    2  A    between atoms: C_4  and  C_5 
REMARK    3  A    between atoms: N_10  and  C_12 
REMARK    4  A    between atoms: C_12  and  C_13 
REMARK       I    between atoms: C_13  and  N_14 
REMARK    5  A    between atoms: N_14  and  C_15 
REMARK    6  A    between atoms: C_15  and  C_16 
REMARK    7  A    between atoms: C_16  and  C_17 
ROOT
HETATM    1  C   UNL     1      27.968  42.876  52.429  1.00  0.00     0.190 C 
HETATM    2  O   UNL     1      28.261  42.353  53.737  1.00  0.00    -0.339 OA
HETATM    3  C   UNL     1      28.925  43.290  54.481  1.00  0.00     0.077 A 
HETATM    4  C   UNL     1      28.264  44.433  54.944  1.00  0.00     0.001 A 
HETATM    5  C   UNL     1      26.801  44.628  54.684  1.00  0.00     0.276 C 
HETATM    6  N   UNL     1      26.463  44.789  53.226  1.00  0.00    -0.056 N 
HETATM    7  H   UNL     1      27.154  45.439  52.812  1.00  0.00     0.280 HD
HETATM    8  C   UNL     1      26.548  43.483  52.427  1.00  0.00     0.273 C 
HETATM    9  C   UNL     1      30.267  43.058  54.773  1.00  0.00     0.037 A 
HETATM   10  C   UNL     1      30.983  43.998  55.508  1.00  0.00     0.003 A 
HETATM   11  C   UNL     1      30.351  45.157  55.958  1.00  0.00     0.001 A 
HETATM   12  C   UNL     1      28.998  45.373  55.683  1.00  0.00     0.012 A 
ENDROOT
BRANCH   6  13
HETATM   13  C   UNL     1      25.115  45.474  53.012  1.00  0.00     0.337 C 
BRANCH  13  14
HETATM   14  C   UNL     1      25.210  46.465  51.852  1.00  0.00     0.243 C 
HETATM   15  N   UNL     1      24.249  46.342  50.880  1.00  0.00    -0.359 N 
HETATM   16  H   UNL     1      23.682  45.499  50.853  1.00  0.00     0.162 HD
HETATM   17  O   UNL     1      26.167  47.237  51.791  1.00  0.00    -0.272 OA
BRANCH  15  18
HETATM   18  C   UNL     1      24.407  46.994  49.590  1.00  0.00     0.130 C 
BRANCH  18  19
HETATM   19  C   UNL     1      23.161  46.873  48.711  1.00  0.00     0.098 C 
BRANCH  19  20
HETATM   20  C   UNL     1      22.337  48.144  48.708  1.00  0.00     0.109 A 
HETATM   21  N   UNL     1      21.380  48.320  47.845  1.00  0.00    -0.234 NA
HETATM   22  C   UNL     1      20.659  49.531  47.915  1.00  0.00     0.074 A 
HETATM   23  C   UNL     1      20.963  50.540  48.834  1.00  0.00     0.061 A 
HETATM   24  C   UNL     1      19.588  49.732  47.041  1.00  0.00     0.032 A 
HETATM   25  C   UNL     1      22.083  50.303  49.757  1.00  0.00     0.259 A 
HETATM   26  C   UNL     1      20.228  51.729  48.888  1.00  0.00     0.019 A 
HETATM   27  O   UNL     1      22.445  51.133  50.579  1.00  0.00    -0.267 OA
HETATM   28  N   UNL     1      22.697  49.084  49.635  1.00  0.00    -0.311 N 
HETATM   29  H   UNL     1      23.466  48.933  50.276  1.00  0.00     0.170 HD
HETATM   30  C   UNL     1      19.165  51.913  48.009  1.00  0.00     0.001 A 
HETATM   31  C   UNL     1      18.843  50.916  47.087  1.00  0.00     0.002 A 
ENDBRANCH  19  20
ENDBRANCH  18  19
ENDBRANCH  15  18
ENDBRANCH  13  14
ENDBRANCH   6  13
BRANCH   1  32
HETATM   32  C   UNL     1      28.102  41.730  51.437  1.00  0.00     0.006 A 
HETATM   33  C   UNL     1      27.728  41.909  50.088  1.00  0.00     0.077 A 
HETATM   34  C   UNL     1      27.841  40.844  49.188  1.00  0.00     0.037 A 
HETATM   35  C   UNL     1      28.340  39.612  49.607  1.00  0.00     0.003 A 
HETATM   36  C   UNL     1      28.742  39.434  50.926  1.00  0.00     0.001 A 
HETATM   37  C   UNL     1      28.633  40.487  51.834  1.00  0.00     0.012 A 
BRANCH  33  38
HETATM   38  O   UNL     1      27.246  43.148  49.755  1.00  0.00    -0.355 OA
HETATM   39  C   UNL     1      26.003  43.197  49.060  1.00  0.00     0.210 C 
ENDBRANCH  33  38
ENDBRANCH   1  32
TORSDOF 7
ENDMDL
MODEL 6
REMARK VINA RESULT:      -9.9      2.731      5.990
REMARK  7 active torsions:
REMARK  status: ('A' for Active; 'I' for Inactive)
REMARK    1  A    between atoms: O_2  and  C_3 
REMARK    2  A    between atoms: C_4  and  C_5 
REMARK    3  A    between atoms: N_10  and  C_12 
REMARK    4  A    between atoms: C_12  and  C_13 
REMARK       I    between atoms: C_13  and  N_14 
REMARK    5  A    between atoms: N_14  and  C_15 
REMARK    6  A    between atoms: C_15  and  C_16 
REMARK    7  A    between atoms: C_16  and  C_17 
ROOT
HETATM    1  C   UNL     1      22.936  48.791  48.900  1.00  0.00     0.190 C 
HETATM    2  O   UNL     1      22.577  48.193  47.641  1.00  0.00    -0.339 OA
HETATM    3  C   UNL     1      21.465  47.409  47.793  1.00  0.00     0.077 A 
HETATM    4  C   UNL     1      20.212  47.984  48.024  1.00  0.00     0.001 A 
HETATM    5  C   UNL     1      20.048  49.474  48.056  1.00  0.00     0.276 C 
HETATM    6  N   UNL     1      20.776  50.137  49.194  1.00  0.00    -0.056 N 
HETATM    7  H   UNL     1      20.604  49.579  50.047  1.00  0.00     0.280 HD
HETATM    8  C   UNL     1      22.297  50.194  49.001  1.00  0.00     0.273 C 
HETATM    9  C   UNL     1      21.625  46.029  47.691  1.00  0.00     0.037 A 
HETATM   10  C   UNL     1      20.523  45.195  47.861  1.00  0.00     0.003 A 
HETATM   11  C   UNL     1      19.268  45.746  48.119  1.00  0.00     0.001 A 
HETATM   12  C   UNL     1      19.110  47.133  48.196  1.00  0.00     0.012 A 
ENDROOT
BRANCH   6  13
HETATM   13  C   UNL     1      20.215  51.520  49.518  1.00  0.00     0.337 C 
BRANCH  13  14
HETATM   14  C   UNL     1      18.732  51.412  49.873  1.00  0.00     0.243 C 
HETATM   15  N   UNL     1      17.940  52.455  49.461  1.00  0.00    -0.359 N 
HETATM   16  H   UNL     1      18.383  53.317  49.156  1.00  0.00     0.162 HD
HETATM   17  O   UNL     1      18.344  50.478  50.575  1.00  0.00    -0.272 OA
BRANCH  15  18
HETATM   18  C   UNL     1      16.602  52.632  50.001  1.00  0.00     0.130 C 
BRANCH  18  19
HETATM   19  C   UNL     1      15.508  52.257  49.000  1.00  0.00     0.098 C 
BRANCH  19  20
HETATM   20  C   UNL     1      15.988  51.247  47.978  1.00  0.00     0.109 A 
HETATM   21  N   UNL     1      16.701  51.615  46.955  1.00  0.00    -0.234 NA
HETATM   22  C   UNL     1      17.110  50.608  46.054  1.00  0.00     0.074 A 
HETATM   23  C   UNL     1      16.744  49.266  46.203  1.00  0.00     0.061 A 
HETATM   24  C   UNL     1      17.924  50.958  44.974  1.00  0.00     0.032 A 
HETATM   25  C   UNL     1      15.902  48.916  47.356  1.00  0.00     0.259 A 
HETATM   26  C   UNL     1      17.169  48.287  45.300  1.00  0.00     0.019 A 
HETATM   27  O   UNL     1      15.506  47.776  47.560  1.00  0.00    -0.267 OA
HETATM   28  N   UNL     1      15.587  49.955  48.192  1.00  0.00    -0.311 N 
HETATM   29  H   UNL     1      15.006  49.701  48.981  1.00  0.00     0.170 HD
HETATM   30  C   UNL     1      17.979  48.652  44.229  1.00  0.00     0.001 A 
HETATM   31  C   UNL     1      18.357  49.985  44.065  1.00  0.00     0.002 A 
ENDBRANCH  19  20
ENDBRANCH  18  19
ENDBRANCH  15  18
ENDBRANCH  13  14
ENDBRANCH   6  13
BRANCH   1  32
HETATM   32  C   UNL     1      24.455  48.848  48.962  1.00  0.00     0.006 A 
HETATM   33  C   UNL     1      25.175  47.872  49.684  1.00  0.00     0.077 A 
HETATM   34  C   UNL     1      26.570  47.942  49.747  1.00  0.00     0.037 A 
HETATM   35  C   UNL     1      27.259  48.959  49.086  1.00  0.00     0.003 A 
HETATM   36  C   UNL     1      26.562  49.907  48.347  1.00  0.00     0.001 A 
HETATM   37  C   UNL     1      25.171  49.849  48.276  1.00  0.00     0.012 A 
BRANCH  33  38
HETATM   38  O   UNL     1      24.425  46.908  50.306  1.00  0.00    -0.355 OA
HETATM   39  C   UNL     1      24.671  45.554  49.937  1.00  0.00     0.210 C 
ENDBRANCH  33  38
ENDBRANCH   1  32
TORSDOF 7
ENDMDL
MODEL 7
REMARK VINA RESULT:      -9.9      2.471      7.097
REMARK  7 active torsions:
REMARK  status: ('A' for Active; 'I' for Inactive)
REMARK    1  A    between atoms: O_2  and  C_3 
REMARK    2  A    between atoms: C_4  and  C_5 
REMARK    3  A    between atoms: N_10  and  C_12 
REMARK    4  A    between atoms: C_12  and  C_13 
REMARK       I    between atoms: C_13  and  N_14 
REMARK    5  A    between atoms: N_14  and  C_15 
REMARK    6  A    between atoms: C_15  and  C_16 
REMARK    7  A    between atoms: C_16  and  C_17 
ROOT
HETATM    1  C   UNL     1      24.125  47.159  50.153  1.00  0.00     0.190 C 
HETATM    2  O   UNL     1      25.483  46.845  50.509  1.00  0.00    -0.339 OA
HETATM    3  C   UNL     1      25.536  46.363  51.789  1.00  0.00     0.077 A 
HETATM    4  C   UNL     1      25.026  45.097  52.096  1.00  0.00     0.001 A 
HETATM    5  C   UNL     1      24.463  44.218  51.020  1.00  0.00     0.276 C 
HETATM    6  N   UNL     1      23.221  44.773  50.376  1.00  0.00    -0.056 N 
HETATM    7  H   UNL     1      22.607  45.129  51.128  1.00  0.00     0.280 HD
HETATM    8  C   UNL     1      23.493  45.950  49.430  1.00  0.00     0.273 C 
HETATM    9  C   UNL     1      26.126  47.165  52.762  1.00  0.00     0.037 A 
HETATM   10  C   UNL     1      26.179  46.720  54.080  1.00  0.00     0.003 A 
HETATM   11  C   UNL     1      25.653  45.472  54.414  1.00  0.00     0.001 A 
HETATM   12  C   UNL     1      25.084  44.661  53.428  1.00  0.00     0.012 A 
ENDROOT
BRANCH   6  13
HETATM   13  C   UNL     1      22.393  43.693  49.681  1.00  0.00     0.337 C 
BRANCH  13  14
HETATM   14  C   UNL     1      23.239  42.985  48.624  1.00  0.00     0.243 C 
HETATM   15  N   UNL     1      23.760  41.769  48.990  1.00  0.00    -0.359 N 
HETATM   16  H   UNL     1      23.754  41.507  49.973  1.00  0.00     0.162 HD
HETATM   17  O   UNL     1      23.492  43.559  47.565  1.00  0.00    -0.272 OA
BRANCH  15  18
HETATM   18  C   UNL     1      24.824  41.150  48.216  1.00  0.00     0.130 C 
BRANCH  18  19
HETATM   19  C   UNL     1      25.808  40.367  49.087  1.00  0.00     0.098 C 
BRANCH  19  20
HETATM   20  C   UNL     1      26.569  41.265  50.041  1.00  0.00     0.109 A 
HETATM   21  N   UNL     1      26.867  40.866  51.242  1.00  0.00    -0.234 NA
HETATM   22  C   UNL     1      27.582  41.764  52.064  1.00  0.00     0.074 A 
HETATM   23  C   UNL     1      27.932  43.054  51.650  1.00  0.00     0.061 A 
HETATM   24  C   UNL     1      27.969  41.350  53.341  1.00  0.00     0.032 A 
HETATM   25  C   UNL     1      27.531  43.464  50.297  1.00  0.00     0.259 A 
HETATM   26  C   UNL     1      28.647  43.921  52.481  1.00  0.00     0.019 A 
HETATM   27  O   UNL     1      27.765  44.579  49.851  1.00  0.00    -0.267 OA
HETATM   28  N   UNL     1      26.873  42.511  49.563  1.00  0.00    -0.311 N 
HETATM   29  H   UNL     1      26.602  42.807  48.634  1.00  0.00     0.170 HD
HETATM   30  C   UNL     1      29.024  43.494  53.751  1.00  0.00     0.001 A 
HETATM   31  C   UNL     1      28.687  42.209  54.181  1.00  0.00     0.002 A 
ENDBRANCH  19  20
ENDBRANCH  18  19
ENDBRANCH  15  18
ENDBRANCH  13  14
ENDBRANCH   6  13
BRANCH   1  32
HETATM   32  C   UNL     1      24.157  48.400  49.272  1.00  0.00     0.006 A 
HETATM   33  C   UNL     1      22.955  49.027  48.883  1.00  0.00     0.077 A 
HETATM   34  C   UNL     1      22.995  50.158  48.061  1.00  0.00     0.037 A 
HETATM   35  C   UNL     1      24.215  50.684  47.639  1.00  0.00     0.003 A 
HETATM   36  C   UNL     1      25.407  50.092  48.043  1.00  0.00     0.001 A 
HETATM   37  C   UNL     1      25.380  48.964  48.862  1.00  0.00     0.012 A 
BRANCH  33  38
HETATM   38  O   UNL     1      21.798  48.449  49.338  1.00  0.00    -0.355 OA
HETATM   39  C   UNL     1      20.653  48.532  48.493  1.00  0.00     0.210 C 
ENDBRANCH  33  38
ENDBRANCH   1  32
TORSDOF 7
ENDMDL
MODEL 8
REMARK VINA RESULT:      -9.9      3.279      9.846
REMARK  7 active torsions:
REMARK  status: ('A' for Active; 'I' for Inactive)
REMARK    1  A    between atoms: O_2  and  C_3 
REMARK    2  A    between atoms: C_4  and  C_5 
REMARK    3  A    between atoms: N_10  and  C_12 
REMARK    4  A    between atoms: C_12  and  C_13 
REMARK       I    between atoms: C_13  and  N_14 
REMARK    5  A    between atoms: N_14  and  C_15 
REMARK    6  A    between atoms: C_15  and  C_16 
REMARK    7  A    between atoms: C_16  and  C_17 
ROOT
HETATM    1  C   UNL     1      21.674  46.244  48.149  1.00  0.00     0.190 C 
HETATM    2  O   UNL     1      21.999  47.321  47.251  1.00  0.00    -0.339 OA
HETATM    3  C   UNL     1      22.007  48.511  47.927  1.00  0.00     0.077 A 
HETATM    4  C   UNL     1      23.017  48.802  48.850  1.00  0.00     0.001 A 
HETATM    5  C   UNL     1      24.145  47.841  49.078  1.00  0.00     0.276 C 
HETATM    6  N   UNL     1      23.709  46.531  49.677  1.00  0.00    -0.056 N 
HETATM    7  H   UNL     1      23.044  46.739  50.441  1.00  0.00     0.280 HD
HETATM    8  C   UNL     1      22.977  45.615  48.688  1.00  0.00     0.273 C 
HETATM    9  C   UNL     1      20.990  49.422  47.651  1.00  0.00     0.037 A 
HETATM   10  C   UNL     1      20.949  50.634  48.334  1.00  0.00     0.003 A 
HETATM   11  C   UNL     1      21.931  50.934  49.277  1.00  0.00     0.001 A 
HETATM   12  C   UNL     1      22.963  50.027  49.531  1.00  0.00     0.012 A 
ENDROOT
BRANCH   6  13
HETATM   13  C   UNL     1      24.859  45.791  50.358  1.00  0.00     0.337 C 
BRANCH  13  14
HETATM   14  C   UNL     1      25.209  46.474  51.680  1.00  0.00     0.243 C 
HETATM   15  N   UNL     1      25.708  45.656  52.663  1.00  0.00    -0.359 N 
HETATM   16  H   UNL     1      25.615  44.649  52.558  1.00  0.00     0.162 HD
HETATM   17  O   UNL     1      24.944  47.666  51.835  1.00  0.00    -0.272 OA
BRANCH  15  18
HETATM   18  C   UNL     1      25.778  46.106  54.043  1.00  0.00     0.130 C 
BRANCH  18  19
HETATM   19  C   UNL     1      27.071  46.862  54.353  1.00  0.00     0.098 C 
BRANCH  19  20
HETATM   20  C   UNL     1      28.156  45.948  54.883  1.00  0.00     0.109 A 
HETATM   21  N   UNL     1      28.773  46.216  55.996  1.00  0.00    -0.234 NA
HETATM   22  C   UNL     1      29.768  45.309  56.420  1.00  0.00     0.074 A 
HETATM   23  C   UNL     1      30.130  44.181  55.676  1.00  0.00     0.061 A 
HETATM   24  C   UNL     1      30.413  45.533  57.639  1.00  0.00     0.032 A 
HETATM   25  C   UNL     1      29.427  43.952  54.405  1.00  0.00     0.259 A 
HETATM   26  C   UNL     1      31.114  43.293  56.122  1.00  0.00     0.019 A 
HETATM   27  O   UNL     1      29.689  43.011  53.668  1.00  0.00    -0.267 OA
HETATM   28  N   UNL     1      28.454  44.868  54.097  1.00  0.00    -0.311 N 
HETATM   29  H   UNL     1      27.979  44.699  53.220  1.00  0.00     0.170 HD
HETATM   30  C   UNL     1      31.748  43.532  57.338  1.00  0.00     0.001 A 
HETATM   31  C   UNL     1      31.398  44.651  58.097  1.00  0.00     0.002 A 
ENDBRANCH  19  20
ENDBRANCH  18  19
ENDBRANCH  15  18
ENDBRANCH  13  14
ENDBRANCH   6  13
BRANCH   1  32
HETATM   32  C   UNL     1      20.832  45.241  47.374  1.00  0.00     0.006 A 
HETATM   33  C   UNL     1      19.428  45.374  47.330  1.00  0.00     0.077 A 
HETATM   34  C   UNL     1      18.662  44.438  46.627  1.00  0.00     0.037 A 
HETATM   35  C   UNL     1      19.276  43.384  45.951  1.00  0.00     0.003 A 
HETATM   36  C   UNL     1      20.661  43.262  45.962  1.00  0.00     0.001 A 
HETATM   37  C   UNL     1      21.435  44.188  46.660  1.00  0.00     0.012 A 
BRANCH  33  38
HETATM   38  O   UNL     1      18.901  46.435  48.019  1.00  0.00    -0.355 OA
HETATM   39  C   UNL     1      17.889  47.197  47.367  1.00  0.00     0.210 C 
ENDBRANCH  33  38
ENDBRANCH   1  32
TORSDOF 7
ENDMDL
MODEL 9
REMARK VINA RESULT:      -9.6      2.646      4.815
REMARK  7 active torsions:
REMARK  status: ('A' for Active; 'I' for Inactive)
REMARK    1  A    between atoms: O_2  and  C_3 
REMARK    2  A    between atoms: C_4  and  C_5 
REMARK    3  A    between atoms: N_10  and  C_12 
REMARK    4  A    between atoms: C_12  and  C_13 
REMARK       I    between atoms: C_13  and  N_14 
REMARK    5  A    between atoms: N_14  and  C_15 
REMARK    6  A    between atoms: C_15  and  C_16 
REMARK    7  A    between atoms: C_16  and  C_17 
ROOT
HETATM    1  C   UNL     1      26.251  43.393  50.943  1.00  0.00     0.190 C 
HETATM    2  O   UNL     1      26.274  42.658  52.180  1.00  0.00    -0.339 OA
HETATM    3  C   UNL     1      27.456  42.875  52.835  1.00  0.00     0.077 A 
HETATM    4  C   UNL     1      27.732  44.117  53.417  1.00  0.00     0.001 A 
HETATM    5  C   UNL     1      26.717  45.219  53.385  1.00  0.00     0.276 C 
HETATM    6  N   UNL     1      26.414  45.721  51.999  1.00  0.00    -0.056 N 
HETATM    7  H   UNL     1      27.313  45.830  51.500  1.00  0.00     0.280 HD
HETATM    8  C   UNL     1      25.559  44.755  51.169  1.00  0.00     0.273 C 
HETATM    9  C   UNL     1      28.359  41.817  52.915  1.00  0.00     0.037 A 
HETATM   10  C   UNL     1      29.582  42.004  53.552  1.00  0.00     0.003 A 
HETATM   11  C   UNL     1      29.889  43.242  54.117  1.00  0.00     0.001 A 
HETATM   12  C   UNL     1      28.969  44.292  54.055  1.00  0.00     0.012 A 
ENDROOT
BRANCH   6  13
HETATM   13  C   UNL     1      25.804  47.121  52.007  1.00  0.00     0.337 C 
BRANCH  13  14
HETATM   14  C   UNL     1      25.470  47.554  50.580  1.00  0.00     0.243 C 
HETATM   15  N   UNL     1      24.158  47.881  50.346  1.00  0.00    -0.359 N 
HETATM   16  H   UNL     1      23.455  47.617  51.031  1.00  0.00     0.162 HD
HETATM   17  O   UNL     1      26.339  47.496  49.710  1.00  0.00    -0.272 OA
BRANCH  15  18
HETATM   18  C   UNL     1      23.650  47.996  48.988  1.00  0.00     0.130 C 
BRANCH  18  19
HETATM   19  C   UNL     1      22.317  47.272  48.794  1.00  0.00     0.098 C 
BRANCH  19  20
HETATM   20  C   UNL     1      21.134  48.214  48.883  1.00  0.00     0.109 A 
HETATM   21  N   UNL     1      21.272  49.487  48.657  1.00  0.00    -0.234 NA
HETATM   22  C   UNL     1      20.118  50.292  48.757  1.00  0.00     0.074 A 
HETATM   23  C   UNL     1      18.868  49.780  49.124  1.00  0.00     0.061 A 
HETATM   24  C   UNL     1      20.216  51.655  48.467  1.00  0.00     0.032 A 
HETATM   25  C   UNL     1      18.781  48.341  49.408  1.00  0.00     0.259 A 
HETATM   26  C   UNL     1      17.737  50.599  49.208  1.00  0.00     0.019 A 
HETATM   27  O   UNL     1      17.741  47.801  49.762  1.00  0.00    -0.267 OA
HETATM   28  N   UNL     1      19.947  47.638  49.249  1.00  0.00    -0.311 N 
HETATM   29  H   UNL     1      19.874  46.648  49.448  1.00  0.00     0.170 HD
HETATM   30  C   UNL     1      17.854  51.955  48.917  1.00  0.00     0.001 A 
HETATM   31  C   UNL     1      19.091  52.484  48.546  1.00  0.00     0.002 A 
ENDBRANCH  19  20
ENDBRANCH  18  19
ENDBRANCH  15  18
ENDBRANCH  13  14
ENDBRANCH   6  13
BRANCH   1  32
HETATM   32  C   UNL     1      25.517  42.541  49.918  1.00  0.00     0.006 A 
HETATM   33  C   UNL     1      26.232  41.646  49.094  1.00  0.00     0.077 A 
HETATM   34  C   UNL     1      25.549  40.878  48.145  1.00  0.00     0.037 A 
HETATM   35  C   UNL     1      24.164  40.974  48.019  1.00  0.00     0.003 A 
HETATM   36  C   UNL     1      23.446  41.830  48.847  1.00  0.00     0.001 A 
HETATM   37  C   UNL     1      24.115  42.601  49.797  1.00  0.00     0.012 A 
BRANCH  33  38
HETATM   38  O   UNL     1      27.590  41.610  49.278  1.00  0.00    -0.355 OA
HETATM   39  C   UNL     1      28.209  40.327  49.307  1.00  0.00     0.210 C 
ENDBRANCH  33  38
ENDBRANCH   1  32
TORSDOF 7
ENDMDL
MODEL 10
REMARK VINA RESULT:      -9.5      2.508      5.195
REMARK  7 active torsions:
REMARK  status: ('A' for Active; 'I' for Inactive)
REMARK    1  A    between atoms: O_2  and  C_3 
REMARK    2  A    between atoms: C_4  and  C_5 
REMARK    3  A    between atoms: N_10  and  C_12 
REMARK    4  A    between atoms: C_12  and  C_13 
REMARK       I    between atoms: C_13  and  N_14 
REMARK    5  A    between atoms: N_14  and  C_15 
REMARK    6  A    between atoms: C_15  and  C_16 
REMARK    7  A    between atoms: C_16  and  C_17 
ROOT
HETATM    1  C   UNL     1      27.086  44.001  51.836  1.00  0.00     0.190 C 
HETATM    2  O   UNL     1      27.466  43.478  50.550  1.00  0.00    -0.339 OA
HETATM    3  C   UNL     1      26.373  42.953  49.914  1.00  0.00     0.077 A 
HETATM    4  C   UNL     1      25.365  43.787  49.421  1.00  0.00     0.001 A 
HETATM    5  C   UNL     1      25.484  45.278  49.528  1.00  0.00     0.276 C 
HETATM    6  N   UNL     1      25.476  45.783  50.946  1.00  0.00    -0.056 N 
HETATM    7  H   UNL     1      24.724  45.286  51.453  1.00  0.00     0.280 HD
HETATM    8  C   UNL     1      26.780  45.509  51.704  1.00  0.00     0.273 C 
HETATM    9  C   UNL     1      26.312  41.570  49.761  1.00  0.00     0.037 A 
HETATM   10  C   UNL     1      25.207  40.995  49.140  1.00  0.00     0.003 A 
HETATM   11  C   UNL     1      24.178  41.806  48.664  1.00  0.00     0.001 A 
HETATM   12  C   UNL     1      24.256  43.195  48.799  1.00  0.00     0.012 A 
ENDROOT
BRANCH   6  13
HETATM   13  C   UNL     1      25.091  47.259  51.036  1.00  0.00     0.337 C 
BRANCH  13  14
HETATM   14  C   UNL     1      24.279  47.663  49.805  1.00  0.00     0.243 C 
HETATM   15  N   UNL     1      24.730  48.768  49.128  1.00  0.00    -0.359 N 
HETATM   16  H   UNL     1      25.410  49.377  49.576  1.00  0.00     0.162 HD
HETATM   17  O   UNL     1      23.238  47.062  49.542  1.00  0.00    -0.272 OA
BRANCH  15  18
HETATM   18  C   UNL     1      23.886  49.438  48.151  1.00  0.00     0.130 C 
BRANCH  18  19
HETATM   19  C   UNL     1      23.273  50.732  48.690  1.00  0.00     0.098 C 
BRANCH  19  20
HETATM   20  C   UNL     1      21.771  50.629  48.855  1.00  0.00     0.109 A 
HETATM   21  N   UNL     1      20.999  51.650  48.621  1.00  0.00    -0.234 NA
HETATM   22  C   UNL     1      19.611  51.466  48.795  1.00  0.00     0.074 A 
HETATM   23  C   UNL     1      19.058  50.261  49.242  1.00  0.00     0.061 A 
HETATM   24  C   UNL     1      18.747  52.522  48.499  1.00  0.00     0.032 A 
HETATM   25  C   UNL     1      19.983  49.155  49.531  1.00  0.00     0.259 A 
HETATM   26  C   UNL     1      17.678  50.102  49.399  1.00  0.00     0.019 A 
HETATM   27  O   UNL     1      19.602  48.071  49.952  1.00  0.00    -0.267 OA
HETATM   28  N   UNL     1      21.307  49.420  49.297  1.00  0.00    -0.311 N 
HETATM   29  H   UNL     1      21.933  48.651  49.501  1.00  0.00     0.170 HD
HETATM   30  C   UNL     1      16.830  51.165  49.101  1.00  0.00     0.001 A 
HETATM   31  C   UNL     1      17.363  52.374  48.651  1.00  0.00     0.002 A 
ENDBRANCH  19  20
ENDBRANCH  18  19
ENDBRANCH  15  18
ENDBRANCH  13  14
ENDBRANCH   6  13
BRANCH   1  32
HETATM   32  C   UNL     1      28.234  43.731  52.797  1.00  0.00     0.006 A 
HETATM   33  C   UNL     1      28.194  44.238  54.113  1.00  0.00     0.077 A 
HETATM   34  C   UNL     1      29.262  43.997  54.984  1.00  0.00     0.037 A 
HETATM   35  C   UNL     1      30.358  43.241  54.569  1.00  0.00     0.003 A 
HETATM   36  C   UNL     1      30.393  42.711  53.285  1.00  0.00     0.001 A 
HETATM   37  C   UNL     1      29.336  42.945  52.407  1.00  0.00     0.012 A 
BRANCH  33  38
HETATM   38  O   UNL     1      27.084  44.971  54.444  1.00  0.00    -0.355 OA
HETATM   39  C   UNL     1      27.300  46.240  55.054  1.00  0.00     0.210 C 
ENDBRANCH  33  38
ENDBRANCH   1  32
TORSDOF 7
ENDMDL
