MODEL 1
REMARK VINA RESULT:      -8.9      0.000      0.000
REMARK  6 active torsions:
REMARK  status: ('A' for Active; 'I' for Inactive)
REMARK    1  A    between atoms: C_9  and  C_10 
REMARK       I    between atoms: C_10  and  N_11 
REMARK    2  A    between atoms: N_11  and  C_12 
REMARK    3  A    between atoms: C_12  and  C_13 
REMARK    4  A    between atoms: C_13  and  O_14 
REMARK    5  A    between atoms: C_13  and  C_15 
REMARK    6  A    between atoms: C_18  and  O_19 
ROOT
HETATM    1  C   UNL     1      25.536  47.160  51.242  1.00  0.00     0.258 C 
HETATM    2  N   UNL     1      25.285  46.635  52.492  1.00  0.00    -0.350 N 
HETATM    3  O   UNL     1      26.522  47.849  50.998  1.00  0.00    -0.267 OA
HETATM    4  H   UNL     1      24.506  45.980  52.553  1.00  0.00     0.163 HD
ENDROOT
BRANCH   2   5
HETATM    5  C   UNL     1      26.267  46.653  53.588  1.00  0.00     0.114 C 
HETATM    6  C   UNL     1      26.026  47.868  54.486  1.00  0.00     0.035 C 
BRANCH   5   7
HETATM    7  C   UNL     1      26.321  45.295  54.350  1.00  0.00     0.173 C 
BRANCH   7   8
HETATM    8  O   UNL     1      25.737  44.283  53.511  1.00  0.00    -0.389 OA
HETATM    9  H   UNL     1      26.098  43.442  53.841  1.00  0.00     0.210 HD
ENDBRANCH   7   8
BRANCH   7  10
HETATM   10  C   UNL     1      27.712  44.852  54.752  1.00  0.00    -0.028 A 
HETATM   11  C   UNL     1      28.470  45.661  55.612  1.00  0.00     0.012 A 
HETATM   12  C   UNL     1      29.762  45.287  55.987  1.00  0.00     0.037 A 
HETATM   13  C   UNL     1      30.321  44.098  55.518  1.00  0.00     0.068 A 
HETATM   14  C   UNL     1      29.579  43.289  54.657  1.00  0.00     0.037 A 
HETATM   15  C   UNL     1      28.284  43.665  54.275  1.00  0.00     0.012 A 
BRANCH  13  16
HETATM   16  O   UNL     1      31.588  43.850  55.969  1.00  0.00    -0.356 OA
HETATM   17  C   UNL     1      31.707  43.291  57.270  1.00  0.00     0.210 C 
ENDBRANCH  13  16
ENDBRANCH   7  10
ENDBRANCH   5   7
ENDBRANCH   2   5
BRANCH   1  18
HETATM   18  C   UNL     1      24.558  46.842  50.218  1.00  0.00     0.105 A 
HETATM   19  C   UNL     1      23.726  47.710  49.530  1.00  0.00     0.169 A 
HETATM   20  N   UNL     1      23.587  49.074  49.591  1.00  0.00    -0.233 NA
HETATM   21  N   UNL     1      22.939  46.917  48.687  1.00  0.00    -0.219 N 
HETATM   22  C   UNL     1      22.669  49.596  48.827  1.00  0.00     0.035 A 
HETATM   23  C   UNL     1      22.469  51.089  48.855  1.00  0.00     0.070 C 
HETATM   24  C   UNL     1      21.776  48.825  47.905  1.00  0.00     0.053 A 
HETATM   25  C   UNL     1      21.954  47.493  47.872  1.00  0.00     0.036 A 
HETATM   26  C   UNL     1      21.137  46.584  47.007  1.00  0.00     0.070 C 
HETATM   27  N   UNL     1      23.260  45.605  48.791  1.00  0.00    -0.170 NA
HETATM   28  C   UNL     1      24.224  45.557  49.714  1.00  0.00     0.071 A 
HETATM   29  C   UNL     1      24.814  44.247  50.098  1.00  0.00     0.073 C 
ENDBRANCH   1  18
TORSDOF 6
ENDMDL
MODEL 2
REMARK VINA RESULT:      -8.8      3.240      9.486
REMARK  6 active torsions:
REMARK  status: ('A' for Active; 'I' for Inactive)
REMARK    1  A    between atoms: C_9  and  C_10 
REMARK       I    between atoms: C_10  and  N_11 
REMARK    2  A    between atoms: N_11  and  C_12 
REMARK    3  A    between atoms: C_12  and  C_13 
REMARK    4  A    between atoms: C_13  and  O_14 
REMARK    5  A    between atoms: C_13  and  C_15 
REMARK    6  A    between atoms: C_18  and  O_19 
ROOT
HETATM    1  C   UNL     1      24.348  47.759  49.881  1.00  0.00     0.258 C 
HETATM    2  N   UNL     1      23.033  47.712  49.471  1.00  0.00    -0.350 N 
HETATM    3  O   UNL     1      25.099  48.688  49.596  1.00  0.00    -0.267 OA
HETATM    4  H   UNL     1      22.469  46.959  49.864  1.00  0.00     0.163 HD
ENDROOT
BRANCH   2   5
HETATM    5  C   UNL     1      22.337  48.854  48.855  1.00  0.00     0.114 C 
HETATM    6  C   UNL     1      21.185  48.355  47.981  1.00  0.00     0.035 C 
BRANCH   5   7
HETATM    7  C   UNL     1      21.923  49.926  49.907  1.00  0.00     0.173 C 
BRANCH   7   8
HETATM    8  O   UNL     1      22.961  50.920  49.971  1.00  0.00    -0.389 OA
HETATM    9  H   UNL     1      22.492  51.770  50.038  1.00  0.00     0.210 HD
ENDBRANCH   7   8
BRANCH   7  10
HETATM   10  C   UNL     1      20.605  50.616  49.621  1.00  0.00    -0.028 A 
HETATM   11  C   UNL     1      19.444  50.181  50.280  1.00  0.00     0.012 A 
HETATM   12  C   UNL     1      18.213  50.786  50.025  1.00  0.00     0.037 A 
HETATM   13  C   UNL     1      18.113  51.838  49.114  1.00  0.00     0.068 A 
HETATM   14  C   UNL     1      19.259  52.274  48.449  1.00  0.00     0.037 A 
HETATM   15  C   UNL     1      20.496  51.665  48.699  1.00  0.00     0.012 A 
BRANCH  13  16
HETATM   16  O   UNL     1      16.851  52.343  48.965  1.00  0.00    -0.356 OA
HETATM   17  C   UNL     1      16.367  53.177  50.010  1.00  0.00     0.210 C 
ENDBRANCH  13  16
ENDBRANCH   7  10
ENDBRANCH   5   7
ENDBRANCH   2   5
BRANCH   1  18
HETATM   18  C   UNL     1      24.798  46.636  50.681  1.00  0.00     0.105 A 
HETATM   19  C   UNL     1      25.275  46.648  51.981  1.00  0.00     0.169 A 
HETATM   20  N   UNL     1      25.449  47.675  52.875  1.00  0.00    -0.233 NA
HETATM   21  N   UNL     1      25.620  45.327  52.288  1.00  0.00    -0.219 N 
HETATM   22  C   UNL     1      25.967  47.357  54.028  1.00  0.00     0.035 A 
HETATM   23  C   UNL     1      26.185  48.444  55.048  1.00  0.00     0.070 C 
HETATM   24  C   UNL     1      26.375  45.975  54.436  1.00  0.00     0.053 A 
HETATM   25  C   UNL     1      26.178  45.000  53.531  1.00  0.00     0.036 A 
HETATM   26  C   UNL     1      26.539  43.569  53.786  1.00  0.00     0.070 C 
HETATM   27  N   UNL     1      25.351  44.488  51.258  1.00  0.00    -0.170 NA
HETATM   28  C   UNL     1      24.866  45.272  50.291  1.00  0.00     0.071 A 
HETATM   29  C   UNL     1      24.473  44.677  48.987  1.00  0.00     0.073 C 
ENDBRANCH   1  18
TORSDOF 6
ENDMDL
MODEL 3
REMARK VINA RESULT:      -8.7      2.781      7.708
REMARK  6 active torsions:
REMARK  status: ('A' for Active; 'I' for Inactive)
REMARK    1  A    between atoms: C_9  and  C_10 
REMARK       I    between atoms: C_10  and  N_11 
REMARK    2  A    between atoms: N_11  and  C_12 
REMARK    3  A    between atoms: C_12  and  C_13 
REMARK    4  A    between atoms: C_13  and  O_14 
REMARK    5  A    between atoms: C_13  and  C_15 
REMARK    6  A    between atoms: C_18  and  O_19 
ROOT
HETATM    1  C   UNL     1      25.748  45.806  52.877  1.00  0.00     0.258 C 
HETATM    2  N   UNL     1      25.897  46.557  51.730  1.00  0.00    -0.350 N 
HETATM    3  O   UNL     1      24.803  45.042  53.051  1.00  0.00    -0.267 OA
HETATM    4  H   UNL     1      26.778  47.063  51.638  1.00  0.00     0.163 HD
ENDROOT
BRANCH   2   5
HETATM    5  C   UNL     1      25.079  46.358  50.522  1.00  0.00     0.114 C 
HETATM    6  C   UNL     1      24.571  47.706  50.007  1.00  0.00     0.035 C 
BRANCH   5   7
HETATM    7  C   UNL     1      25.815  45.500  49.449  1.00  0.00     0.173 C 
BRANCH   7   8
HETATM    8  O   UNL     1      27.172  45.965  49.353  1.00  0.00    -0.389 OA
HETATM    9  H   UNL     1      27.719  45.200  49.603  1.00  0.00     0.210 HD
ENDBRANCH   7   8
BRANCH   7  10
HETATM   10  C   UNL     1      25.828  44.013  49.732  1.00  0.00    -0.028 A 
HETATM   11  C   UNL     1      27.001  43.416  50.219  1.00  0.00     0.012 A 
HETATM   12  C   UNL     1      27.049  42.044  50.473  1.00  0.00     0.037 A 
HETATM   13  C   UNL     1      25.930  41.241  50.253  1.00  0.00     0.068 A 
HETATM   14  C   UNL     1      24.761  41.823  49.762  1.00  0.00     0.037 A 
HETATM   15  C   UNL     1      24.711  43.199  49.501  1.00  0.00     0.012 A 
BRANCH  13  16
HETATM   16  O   UNL     1      26.112  39.919  50.549  1.00  0.00    -0.356 OA
HETATM   17  C   UNL     1      26.761  39.125  49.565  1.00  0.00     0.210 C 
ENDBRANCH  13  16
ENDBRANCH   7  10
ENDBRANCH   5   7
ENDBRANCH   2   5
BRANCH   1  18
HETATM   18  C   UNL     1      26.789  45.969  53.874  1.00  0.00     0.105 A 
HETATM   19  C   UNL     1      27.873  45.143  54.123  1.00  0.00     0.169 A 
HETATM   20  N   UNL     1      28.284  43.979  53.523  1.00  0.00    -0.233 NA
HETATM   21  N   UNL     1      28.556  45.703  55.208  1.00  0.00    -0.219 N 
HETATM   22  C   UNL     1      29.344  43.412  54.027  1.00  0.00     0.035 A 
HETATM   23  C   UNL     1      29.839  42.129  53.411  1.00  0.00     0.070 C 
HETATM   24  C   UNL     1      30.128  43.933  55.191  1.00  0.00     0.053 A 
HETATM   25  C   UNL     1      29.693  45.081  55.741  1.00  0.00     0.036 A 
HETATM   26  C   UNL     1      30.365  45.727  56.913  1.00  0.00     0.070 C 
HETATM   27  N   UNL     1      27.973  46.853  55.626  1.00  0.00    -0.170 NA
HETATM   28  C   UNL     1      26.908  47.009  54.834  1.00  0.00     0.071 A 
HETATM   29  C   UNL     1      26.013  48.180  55.023  1.00  0.00     0.073 C 
ENDBRANCH   1  18
TORSDOF 6
ENDMDL
MODEL 4
REMARK VINA RESULT:      -8.6      1.963      3.900
REMARK  6 active torsions:
REMARK  status: ('A' for Active; 'I' for Inactive)
REMARK    1  A    between atoms: C_9  and  C_10 
REMARK       I    between atoms: C_10  and  N_11 
REMARK    2  A    between atoms: N_11  and  C_12 
REMARK    3  A    between atoms: C_12  and  C_13 
REMARK    4  A    between atoms: C_13  and  O_14 
REMARK    5  A    between atoms: C_13  and  C_15 
REMARK    6  A    between atoms: C_18  and  O_19 
ROOT
HETATM    1  C   UNL     1      25.968  44.194  52.956  1.00  0.00     0.258 C 
HETATM    2  N   UNL     1      26.922  43.433  52.314  1.00  0.00    -0.350 N 
HETATM    3  O   UNL     1      25.566  43.937  54.087  1.00  0.00    -0.267 OA
HETATM    4  H   UNL     1      27.270  43.805  51.431  1.00  0.00     0.163 HD
ENDROOT
BRANCH   2   5
HETATM    5  C   UNL     1      27.709  42.387  52.987  1.00  0.00     0.114 C 
HETATM    6  C   UNL     1      27.403  41.022  52.368  1.00  0.00     0.035 C 
BRANCH   5   7
HETATM    7  C   UNL     1      29.226  42.738  53.042  1.00  0.00     0.173 C 
BRANCH   7   8
HETATM    8  O   UNL     1      29.557  43.495  51.865  1.00  0.00    -0.389 OA
HETATM    9  H   UNL     1      30.463  43.223  51.637  1.00  0.00     0.210 HD
ENDBRANCH   7   8
BRANCH   7  10
HETATM   10  C   UNL     1      29.647  43.529  54.263  1.00  0.00    -0.028 A 
HETATM   11  C   UNL     1      28.986  44.730  54.566  1.00  0.00     0.012 A 
HETATM   12  C   UNL     1      29.361  45.489  55.676  1.00  0.00     0.037 A 
HETATM   13  C   UNL     1      30.398  45.067  56.507  1.00  0.00     0.068 A 
HETATM   14  C   UNL     1      31.067  43.878  56.212  1.00  0.00     0.037 A 
HETATM   15  C   UNL     1      30.695  43.117  55.096  1.00  0.00     0.012 A 
BRANCH  13  16
HETATM   16  O   UNL     1      30.658  45.900  57.560  1.00  0.00    -0.356 OA
HETATM   17  C   UNL     1      29.926  45.668  58.756  1.00  0.00     0.210 C 
ENDBRANCH  13  16
ENDBRANCH   7  10
ENDBRANCH   5   7
ENDBRANCH   2   5
BRANCH   1  18
HETATM   18  C   UNL     1      25.466  45.333  52.211  1.00  0.00     0.105 A 
HETATM   19  C   UNL     1      24.672  45.330  51.076  1.00  0.00     0.169 A 
HETATM   20  N   UNL     1      24.130  44.300  50.350  1.00  0.00    -0.233 NA
HETATM   21  N   UNL     1      24.498  46.671  50.712  1.00  0.00    -0.219 N 
HETATM   22  C   UNL     1      23.450  44.635  49.289  1.00  0.00     0.035 A 
HETATM   23  C   UNL     1      22.835  43.545  48.451  1.00  0.00     0.070 C 
HETATM   24  C   UNL     1      23.223  46.038  48.821  1.00  0.00     0.053 A 
HETATM   25  C   UNL     1      23.765  47.015  49.568  1.00  0.00     0.036 A 
HETATM   26  C   UNL     1      23.633  48.468  49.230  1.00  0.00     0.070 C 
HETATM   27  N   UNL     1      25.114  47.508  51.581  1.00  0.00    -0.170 NA
HETATM   28  C   UNL     1      25.703  46.708  52.475  1.00  0.00     0.071 A 
HETATM   29  C   UNL     1      26.496  47.299  53.585  1.00  0.00     0.073 C 
ENDBRANCH   1  18
TORSDOF 6
ENDMDL
MODEL 5
REMARK VINA RESULT:      -8.3      4.833     10.560
REMARK  6 active torsions:
REMARK  status: ('A' for Active; 'I' for Inactive)
REMARK    1  A    between atoms: C_9  and  C_10 
REMARK       I    between atoms: C_10  and  N_11 
REMARK    2  A    between atoms: N_11  and  C_12 
REMARK    3  A    between atoms: C_12  and  C_13 
REMARK    4  A    between atoms: C_13  and  O_14 
REMARK    5  A    between atoms: C_13  and  C_15 
REMARK    6  A    between atoms: C_18  and  O_19 
ROOT
HETATM    1  C   UNL     1      21.573  47.863  48.835  1.00  0.00     0.258 C 
HETATM    2  N   UNL     1      20.731  48.607  49.634  1.00  0.00    -0.350 N 
HETATM    3  O   UNL     1      21.184  46.907  48.171  1.00  0.00    -0.267 OA
HETATM    4  H   UNL     1      21.133  49.449  50.044  1.00  0.00     0.163 HD
ENDROOT
BRANCH   2   5
HETATM    5  C   UNL     1      19.265  48.481  49.601  1.00  0.00     0.114 C 
HETATM    6  C   UNL     1      18.682  48.793  50.980  1.00  0.00     0.035 C 
BRANCH   5   7
HETATM    7  C   UNL     1      18.630  49.302  48.438  1.00  0.00     0.173 C 
BRANCH   7   8
HETATM    8  O   UNL     1      17.789  48.422  47.672  1.00  0.00    -0.389 OA
HETATM    9  H   UNL     1      17.562  47.697  48.280  1.00  0.00     0.210 HD
ENDBRANCH   7   8
BRANCH   7  10
HETATM   10  C   UNL     1      17.811  50.495  48.882  1.00  0.00    -0.028 A 
HETATM   11  C   UNL     1      16.418  50.473  48.717  1.00  0.00     0.012 A 
HETATM   12  C   UNL     1      15.638  51.565  49.102  1.00  0.00     0.037 A 
HETATM   13  C   UNL     1      16.228  52.697  49.663  1.00  0.00     0.068 A 
HETATM   14  C   UNL     1      17.613  52.733  49.825  1.00  0.00     0.037 A 
HETATM   15  C   UNL     1      18.399  51.640  49.435  1.00  0.00     0.012 A 
BRANCH  13  16
HETATM   16  O   UNL     1      15.349  53.688  50.000  1.00  0.00    -0.356 OA
HETATM   17  C   UNL     1      14.102  53.280  50.547  1.00  0.00     0.210 C 
ENDBRANCH  13  16
ENDBRANCH   7  10
ENDBRANCH   5   7
ENDBRANCH   2   5
BRANCH   1  18
HETATM   18  C   UNL     1      22.961  48.285  48.821  1.00  0.00     0.105 A 
HETATM   19  C   UNL     1      24.062  47.622  49.337  1.00  0.00     0.169 A 
HETATM   20  N   UNL     1      24.176  46.413  49.979  1.00  0.00    -0.233 NA
HETATM   21  N   UNL     1      25.165  48.455  49.116  1.00  0.00    -0.219 N 
HETATM   22  C   UNL     1      25.370  46.085  50.385  1.00  0.00     0.035 A 
HETATM   23  C   UNL     1      25.555  44.771  51.099  1.00  0.00     0.070 C 
HETATM   24  C   UNL     1      26.601  46.917  50.201  1.00  0.00     0.053 A 
HETATM   25  C   UNL     1      26.443  48.089  49.560  1.00  0.00     0.036 A 
HETATM   26  C   UNL     1      27.574  49.035  49.304  1.00  0.00     0.070 C 
HETATM   27  N   UNL     1      24.812  49.586  48.459  1.00  0.00    -0.170 NA
HETATM   28  C   UNL     1      23.490  49.490  48.289  1.00  0.00     0.071 A 
HETATM   29  C   UNL     1      22.753  50.584  47.604  1.00  0.00     0.073 C 
ENDBRANCH   1  18
TORSDOF 6
ENDMDL
MODEL 6
REMARK VINA RESULT:      -8.3      4.092      7.851
REMARK  6 active torsions:
REMARK  status: ('A' for Active; 'I' for Inactive)
REMARK    1  A    between atoms: C_9  and  C_10 
REMARK       I    between atoms: C_10  and  N_11 
REMARK    2  A    between atoms: N_11  and  C_12 
REMARK    3  A    between atoms: C_12  and  C_13 
REMARK    4  A    between atoms: C_13  and  O_14 
REMARK    5  A    between atoms: C_13  and  C_15 
REMARK    6  A    between atoms: C_18  and  O_19 
ROOT
HETATM    1  C   UNL     1      27.063  43.434  51.650  1.00  0.00     0.258 C 
HETATM    2  N   UNL     1      26.065  42.482  51.672  1.00  0.00    -0.350 N 
HETATM    3  O   UNL     1      27.153  44.279  50.765  1.00  0.00    -0.267 OA
HETATM    4  H   UNL     1      26.013  41.909  52.513  1.00  0.00     0.163 HD
ENDROOT
BRANCH   2   5
HETATM    5  C   UNL     1      24.894  42.518  50.781  1.00  0.00     0.114 C 
HETATM    6  C   UNL     1      24.226  43.893  50.850  1.00  0.00     0.035 C 
BRANCH   5   7
HETATM    7  C   UNL     1      25.242  42.049  49.336  1.00  0.00     0.173 C 
BRANCH   7   8
HETATM    8  O   UNL     1      25.586  43.208  48.556  1.00  0.00    -0.389 OA
HETATM    9  H   UNL     1      26.509  43.407  48.794  1.00  0.00     0.210 HD
ENDBRANCH   7   8
BRANCH   7  10
HETATM   10  C   UNL     1      26.377  41.051  49.253  1.00  0.00    -0.028 A 
HETATM   11  C   UNL     1      26.240  39.800  49.875  1.00  0.00     0.012 A 
HETATM   12  C   UNL     1      27.276  38.866  49.829  1.00  0.00     0.037 A 
HETATM   13  C   UNL     1      28.465  39.154  49.159  1.00  0.00     0.068 A 
HETATM   14  C   UNL     1      28.614  40.397  48.543  1.00  0.00     0.037 A 
HETATM   15  C   UNL     1      27.578  41.340  48.592  1.00  0.00     0.012 A 
BRANCH  13  16
HETATM   16  O   UNL     1      29.391  38.149  49.186  1.00  0.00    -0.356 OA
HETATM   17  C   UNL     1      29.734  37.628  50.463  1.00  0.00     0.210 C 
ENDBRANCH  13  16
ENDBRANCH   7  10
ENDBRANCH   5   7
ENDBRANCH   2   5
BRANCH   1  18
HETATM   18  C   UNL     1      28.007  43.380  52.751  1.00  0.00     0.105 A 
HETATM   19  C   UNL     1      28.266  44.350  53.704  1.00  0.00     0.169 A 
HETATM   20  N   UNL     1      27.726  45.596  53.902  1.00  0.00    -0.233 NA
HETATM   21  N   UNL     1      29.287  43.842  54.517  1.00  0.00    -0.219 N 
HETATM   22  C   UNL     1      28.224  46.292  54.885  1.00  0.00     0.035 A 
HETATM   23  C   UNL     1      27.672  47.670  55.147  1.00  0.00     0.070 C 
HETATM   24  C   UNL     1      29.321  45.835  55.795  1.00  0.00     0.053 A 
HETATM   25  C   UNL     1      29.814  44.604  55.569  1.00  0.00     0.036 A 
HETATM   26  C   UNL     1      30.916  44.006  56.387  1.00  0.00     0.070 C 
HETATM   27  N   UNL     1      29.653  42.594  54.138  1.00  0.00    -0.170 NA
HETATM   28  C   UNL     1      28.893  42.318  53.074  1.00  0.00     0.071 A 
HETATM   29  C   UNL     1      29.042  41.012  52.380  1.00  0.00     0.073 C 
ENDBRANCH   1  18
TORSDOF 6
ENDMDL
MODEL 7
REMARK VINA RESULT:      -8.2      3.842      5.830
REMARK  6 active torsions:
REMARK  status: ('A' for Active; 'I' for Inactive)
REMARK    1  A    between atoms: C_9  and  C_10 
REMARK       I    between atoms: C_10  and  N_11 
REMARK    2  A    between atoms: N_11  and  C_12 
REMARK    3  A    between atoms: C_12  and  C_13 
REMARK    4  A    between atoms: C_13  and  O_14 
REMARK    5  A    between atoms: C_13  and  C_15 
REMARK    6  A    between atoms: C_18  and  O_19 
ROOT
HETATM    1  C   UNL     1      24.656  43.396  51.330  1.00  0.00     0.258 C 
HETATM    2  N   UNL     1      25.437  43.496  52.462  1.00  0.00    -0.350 N 
HETATM    3  O   UNL     1      23.740  44.176  51.085  1.00  0.00    -0.267 OA
HETATM    4  H   UNL     1      26.243  42.874  52.505  1.00  0.00     0.163 HD
ENDROOT
BRANCH   2   5
HETATM    5  C   UNL     1      25.405  44.658  53.365  1.00  0.00     0.114 C 
HETATM    6  C   UNL     1      25.170  44.195  54.805  1.00  0.00     0.035 C 
BRANCH   5   7
HETATM    7  C   UNL     1      26.651  45.576  53.185  1.00  0.00     0.173 C 
BRANCH   7   8
HETATM    8  O   UNL     1      26.239  46.940  53.383  1.00  0.00    -0.389 OA
HETATM    9  H   UNL     1      26.582  47.182  54.260  1.00  0.00     0.210 HD
ENDBRANCH   7   8
BRANCH   7  10
HETATM   10  C   UNL     1      27.799  45.273  54.125  1.00  0.00    -0.028 A 
HETATM   11  C   UNL     1      28.124  46.194  55.133  1.00  0.00     0.012 A 
HETATM   12  C   UNL     1      29.187  45.951  56.004  1.00  0.00     0.037 A 
HETATM   13  C   UNL     1      29.944  44.785  55.893  1.00  0.00     0.068 A 
HETATM   14  C   UNL     1      29.634  43.865  54.890  1.00  0.00     0.037 A 
HETATM   15  C   UNL     1      28.571  44.110  54.010  1.00  0.00     0.012 A 
BRANCH  13  16
HETATM   16  O   UNL     1      30.949  44.669  56.812  1.00  0.00    -0.356 OA
HETATM   17  C   UNL     1      31.581  43.400  56.915  1.00  0.00     0.210 C 
ENDBRANCH  13  16
ENDBRANCH   7  10
ENDBRANCH   5   7
ENDBRANCH   2   5
BRANCH   1  18
HETATM   18  C   UNL     1      24.988  42.306  50.432  1.00  0.00     0.105 A 
HETATM   19  C   UNL     1      26.076  41.451  50.489  1.00  0.00     0.169 A 
HETATM   20  N   UNL     1      27.119  41.367  51.378  1.00  0.00    -0.233 NA
HETATM   21  N   UNL     1      25.973  40.605  49.378  1.00  0.00    -0.219 N 
HETATM   22  C   UNL     1      28.021  40.460  51.126  1.00  0.00     0.035 A 
HETATM   23  C   UNL     1      29.191  40.324  52.066  1.00  0.00     0.070 C 
HETATM   24  C   UNL     1      27.997  39.523  49.959  1.00  0.00     0.053 A 
HETATM   25  C   UNL     1      26.952  39.636  49.120  1.00  0.00     0.036 A 
HETATM   26  C   UNL     1      26.787  38.777  47.905  1.00  0.00     0.070 C 
HETATM   27  N   UNL     1      24.860  40.868  48.652  1.00  0.00    -0.170 NA
HETATM   28  C   UNL     1      24.272  41.893  49.277  1.00  0.00     0.071 A 
HETATM   29  C   UNL     1      23.011  42.461  48.735  1.00  0.00     0.073 C 
ENDBRANCH   1  18
TORSDOF 6
ENDMDL
MODEL 8
REMARK VINA RESULT:      -8.1      1.869      2.607
REMARK  6 active torsions:
REMARK  status: ('A' for Active; 'I' for Inactive)
REMARK    1  A    between atoms: C_9  and  C_10 
REMARK       I    between atoms: C_10  and  N_11 
REMARK    2  A    between atoms: N_11  and  C_12 
REMARK    3  A    between atoms: C_12  and  C_13 
REMARK    4  A    between atoms: C_13  and  O_14 
REMARK    5  A    between atoms: C_13  and  C_15 
REMARK    6  A    between atoms: C_18  and  O_19 
ROOT
HETATM    1  C   UNL     1      25.399  47.001  51.185  1.00  0.00     0.258 C 
HETATM    2  N   UNL     1      25.189  46.322  52.367  1.00  0.00    -0.350 N 
HETATM    3  O   UNL     1      26.376  47.720  50.999  1.00  0.00    -0.267 OA
HETATM    4  H   UNL     1      24.413  45.661  52.370  1.00  0.00     0.163 HD
ENDROOT
BRANCH   2   5
HETATM    5  C   UNL     1      26.205  46.208  53.426  1.00  0.00     0.114 C 
HETATM    6  C   UNL     1      26.190  47.462  54.303  1.00  0.00     0.035 C 
BRANCH   5   7
HETATM    7  C   UNL     1      26.081  44.872  54.218  1.00  0.00     0.173 C 
BRANCH   7   8
HETATM    8  O   UNL     1      24.693  44.497  54.254  1.00  0.00    -0.389 OA
HETATM    9  H   UNL     1      24.524  44.073  53.394  1.00  0.00     0.210 HD
ENDBRANCH   7   8
BRANCH   7  10
HETATM   10  C   UNL     1      26.882  43.722  53.645  1.00  0.00    -0.028 A 
HETATM   11  C   UNL     1      26.541  43.206  52.385  1.00  0.00     0.012 A 
HETATM   12  C   UNL     1      27.250  42.136  51.838  1.00  0.00     0.037 A 
HETATM   13  C   UNL     1      28.316  41.562  52.530  1.00  0.00     0.068 A 
HETATM   14  C   UNL     1      28.660  42.063  53.786  1.00  0.00     0.037 A 
HETATM   15  C   UNL     1      27.946  43.133  54.341  1.00  0.00     0.012 A 
BRANCH  13  16
HETATM   16  O   UNL     1      28.927  40.528  51.877  1.00  0.00    -0.356 OA
HETATM   17  C   UNL     1      28.365  40.134  50.633  1.00  0.00     0.210 C 
ENDBRANCH  13  16
ENDBRANCH   7  10
ENDBRANCH   5   7
ENDBRANCH   2   5
BRANCH   1  18
HETATM   18  C   UNL     1      24.389  46.808  50.162  1.00  0.00     0.105 A 
HETATM   19  C   UNL     1      23.662  47.773  49.485  1.00  0.00     0.169 A 
HETATM   20  N   UNL     1      23.681  49.143  49.560  1.00  0.00    -0.233 NA
HETATM   21  N   UNL     1      22.787  47.085  48.636  1.00  0.00    -0.219 N 
HETATM   22  C   UNL     1      22.828  49.775  48.804  1.00  0.00     0.035 A 
HETATM   23  C   UNL     1      22.800  51.281  48.847  1.00  0.00     0.070 C 
HETATM   24  C   UNL     1      21.851  49.122  47.876  1.00  0.00     0.053 A 
HETATM   25  C   UNL     1      21.874  47.779  47.830  1.00  0.00     0.036 A 
HETATM   26  C   UNL     1      20.957  46.978  46.958  1.00  0.00     0.070 C 
HETATM   27  N   UNL     1      22.956  45.744  48.725  1.00  0.00    -0.170 NA
HETATM   28  C   UNL     1      23.909  45.575  49.646  1.00  0.00     0.071 A 
HETATM   29  C   UNL     1      24.345  44.203  50.015  1.00  0.00     0.073 C 
ENDBRANCH   1  18
TORSDOF 6
ENDMDL
MODEL 9
REMARK VINA RESULT:      -8.0      5.138     10.884
REMARK  6 active torsions:
REMARK  status: ('A' for Active; 'I' for Inactive)
REMARK    1  A    between atoms: C_9  and  C_10 
REMARK       I    between atoms: C_10  and  N_11 
REMARK    2  A    between atoms: N_11  and  C_12 
REMARK    3  A    between atoms: C_12  and  C_13 
REMARK    4  A    between atoms: C_13  and  O_14 
REMARK    5  A    between atoms: C_13  and  C_15 
REMARK    6  A    between atoms: C_18  and  O_19 
ROOT
HETATM    1  C   UNL     1      21.373  48.492  49.075  1.00  0.00     0.258 C 
HETATM    2  N   UNL     1      20.655  49.236  49.987  1.00  0.00    -0.350 N 
HETATM    3  O   UNL     1      20.846  47.684  48.317  1.00  0.00    -0.267 OA
HETATM    4  H   UNL     1      21.174  49.961  50.480  1.00  0.00     0.163 HD
ENDROOT
BRANCH   2   5
HETATM    5  C   UNL     1      19.184  49.306  49.993  1.00  0.00     0.114 C 
HETATM    6  C   UNL     1      18.623  48.433  51.117  1.00  0.00     0.035 C 
BRANCH   5   7
HETATM    7  C   UNL     1      18.667  50.776  50.007  1.00  0.00     0.173 C 
BRANCH   7   8
HETATM    8  O   UNL     1      19.801  51.652  50.133  1.00  0.00    -0.389 OA
HETATM    9  H   UNL     1      20.574  51.093  49.943  1.00  0.00     0.210 HD
ENDBRANCH   7   8
BRANCH   7  10
HETATM   10  C   UNL     1      17.875  51.177  48.780  1.00  0.00    -0.028 A 
HETATM   11  C   UNL     1      16.495  50.929  48.740  1.00  0.00     0.012 A 
HETATM   12  C   UNL     1      15.741  51.273  47.617  1.00  0.00     0.037 A 
HETATM   13  C   UNL     1      16.346  51.876  46.513  1.00  0.00     0.068 A 
HETATM   14  C   UNL     1      17.719  52.121  46.539  1.00  0.00     0.037 A 
HETATM   15  C   UNL     1      18.479  51.771  47.663  1.00  0.00     0.012 A 
BRANCH  13  16
HETATM   16  O   UNL     1      15.492  52.166  45.486  1.00  0.00    -0.356 OA
HETATM   17  C   UNL     1      15.992  53.010  44.457  1.00  0.00     0.210 C 
ENDBRANCH  13  16
ENDBRANCH   7  10
ENDBRANCH   5   7
ENDBRANCH   2   5
BRANCH   1  18
HETATM   18  C   UNL     1      22.805  48.728  49.061  1.00  0.00     0.105 A 
HETATM   19  C   UNL     1      23.822  47.835  49.356  1.00  0.00     0.169 A 
HETATM   20  N   UNL     1      23.792  46.513  49.722  1.00  0.00    -0.233 NA
HETATM   21  N   UNL     1      25.020  48.550  49.244  1.00  0.00    -0.219 N 
HETATM   22  C   UNL     1      24.943  45.956  49.973  1.00  0.00     0.035 A 
HETATM   23  C   UNL     1      24.972  44.506  50.383  1.00  0.00     0.070 C 
HETATM   24  C   UNL     1      26.269  46.646  49.889  1.00  0.00     0.053 A 
HETATM   25  C   UNL     1      26.250  47.938  49.519  1.00  0.00     0.036 A 
HETATM   26  C   UNL     1      27.491  48.768  49.395  1.00  0.00     0.070 C 
HETATM   27  N   UNL     1      24.803  49.832  48.862  1.00  0.00    -0.170 NA
HETATM   28  C   UNL     1      23.475  49.943  48.760  1.00  0.00     0.071 A 
HETATM   29  C   UNL     1      22.871  51.243  48.369  1.00  0.00     0.073 C 
ENDBRANCH   1  18
TORSDOF 6
ENDMDL
MODEL 10
REMARK VINA RESULT:      -8.0      2.596      8.987
REMARK  6 active torsions:
REMARK  status: ('A' for Active; 'I' for Inactive)
REMARK    1  A    between atoms: C_9  and  C_10 
REMARK       I    between atoms: C_10  and  N_11 
REMARK    2  A    between atoms: N_11  and  C_12 
REMARK    3  A    between atoms: C_12  and  C_13 
REMARK    4  A    between atoms: C_13  and  O_14 
REMARK    5  A    between atoms: C_13  and  C_15 
REMARK    6  A    between atoms: C_18  and  O_19 
ROOT
HETATM    1  C   UNL     1      25.513  46.694  51.546  1.00  0.00     0.258 C 
HETATM    2  N   UNL     1      25.499  46.998  50.202  1.00  0.00    -0.350 N 
HETATM    3  O   UNL     1      25.157  47.490  52.410  1.00  0.00    -0.267 OA
HETATM    4  H   UNL     1      25.698  46.226  49.567  1.00  0.00     0.163 HD
ENDROOT
BRANCH   2   5
HETATM    5  C   UNL     1      24.854  48.203  49.652  1.00  0.00     0.114 C 
HETATM    6  C   UNL     1      25.877  49.036  48.877  1.00  0.00     0.035 C 
BRANCH   5   7
HETATM    7  C   UNL     1      23.565  47.863  48.847  1.00  0.00     0.173 C 
BRANCH   7   8
HETATM    8  O   UNL     1      22.959  46.698  49.435  1.00  0.00    -0.389 OA
HETATM    9  H   UNL     1      22.680  46.981  50.323  1.00  0.00     0.210 HD
ENDBRANCH   7   8
BRANCH   7  10
HETATM   10  C   UNL     1      22.538  48.975  48.800  1.00  0.00    -0.028 A 
HETATM   11  C   UNL     1      22.930  50.256  48.383  1.00  0.00     0.012 A 
HETATM   12  C   UNL     1      22.010  51.305  48.345  1.00  0.00     0.037 A 
HETATM   13  C   UNL     1      20.682  51.099  48.717  1.00  0.00     0.068 A 
HETATM   14  C   UNL     1      20.282  49.831  49.140  1.00  0.00     0.037 A 
HETATM   15  C   UNL     1      21.205  48.777  49.184  1.00  0.00     0.012 A 
BRANCH  13  16
HETATM   16  O   UNL     1      19.887  52.208  48.626  1.00  0.00    -0.356 OA
HETATM   17  C   UNL     1      18.623  52.145  49.273  1.00  0.00     0.210 C 
ENDBRANCH  13  16
ENDBRANCH   7  10
ENDBRANCH   5   7
ENDBRANCH   2   5
BRANCH   1  18
HETATM   18  C   UNL     1      25.974  45.361  51.884  1.00  0.00     0.105 A 
HETATM   19  C   UNL     1      26.871  44.990  52.872  1.00  0.00     0.169 A 
HETATM   20  N   UNL     1      27.556  45.732  53.801  1.00  0.00    -0.233 NA
HETATM   21  N   UNL     1      27.021  43.602  52.769  1.00  0.00    -0.219 N 
HETATM   22  C   UNL     1      28.370  45.075  54.579  1.00  0.00     0.035 A 
HETATM   23  C   UNL     1      29.153  45.838  55.616  1.00  0.00     0.070 C 
HETATM   24  C   UNL     1      28.601  43.597  54.531  1.00  0.00     0.053 A 
HETATM   25  C   UNL     1      27.901  42.910  53.611  1.00  0.00     0.036 A 
HETATM   26  C   UNL     1      28.025  41.428  53.434  1.00  0.00     0.070 C 
HETATM   27  N   UNL     1      26.239  43.087  51.790  1.00  0.00    -0.170 NA
HETATM   28  C   UNL     1      25.617  44.140  51.252  1.00  0.00     0.071 A 
HETATM   29  C   UNL     1      24.676  43.942  50.119  1.00  0.00     0.073 C 
ENDBRANCH   1  18
TORSDOF 6
ENDMDL
