MODEL 1
REMARK VINA RESULT:      -9.2      0.000      0.000
REMARK  3 active torsions:
REMARK  status: ('A' for Active; 'I' for Inactive)
REMARK    1  A    between atoms: C_7  and  C_8 
REMARK    2  A    between atoms: N_9  and  C_11 
REMARK    3  A    between atoms: C_11  and  C_12 
ROOT
HETATM    1  C   UNL     1      27.734  42.312  51.058  1.00  0.00     0.238 C 
HETATM    2  N   UNL     1      26.714  43.273  50.471  1.00  0.00    -0.056 N 
HETATM    3  H   UNL     1      26.035  43.427  51.224  1.00  0.00     0.281 HD
HETATM    4  C   UNL     1      25.939  42.685  49.314  1.00  0.00     0.236 C 
HETATM    5  C   UNL     1      25.240  41.407  49.740  1.00  0.00     0.028 C 
HETATM    6  C   UNL     1      26.252  40.391  50.241  1.00  0.00     0.004 C 
HETATM    7  C   UNL     1      27.050  40.972  51.398  1.00  0.00     0.040 C 
ENDROOT
BRANCH   2   8
HETATM    8  C   UNL     1      27.253  44.662  50.146  1.00  0.00     0.294 C 
BRANCH   8   9
HETATM    9  C   UNL     1      26.235  45.730  50.052  1.00  0.00     0.061 A 
HETATM   10  N   UNL     1      26.472  47.024  49.630  1.00  0.00    -0.305 N 
HETATM   11  C   UNL     1      25.260  47.668  49.633  1.00  0.00     0.151 A 
HETATM   12  C   UNL     1      27.608  47.710  49.233  1.00  0.00     0.118 A 
HETATM   13  C   UNL     1      25.195  49.028  49.174  1.00  0.00     0.167 A 
HETATM   14  N   UNL     1      24.288  46.914  50.091  1.00  0.00    -0.239 NA
HETATM   15  N   UNL     1      26.264  49.657  48.766  1.00  0.00    -0.268 NA
HETATM   16  C   UNL     1      27.472  48.985  48.824  1.00  0.00     0.134 A 
HETATM   17  C   UNL     1      24.894  45.731  50.406  1.00  0.00     0.146 A 
ENDBRANCH   8   9
ENDBRANCH   2   8
BRANCH   1  18
HETATM   18  C   UNL     1      28.355  42.848  52.310  1.00  0.00     0.041 A 
HETATM   19  N   UNL     1      27.833  43.942  52.970  1.00  0.00    -0.357 N 
HETATM   20  C   UNL     1      28.605  44.259  54.063  1.00  0.00     0.042 A 
HETATM   21  H   UNL     1      27.008  44.468  52.704  1.00  0.00     0.166 HD
HETATM   22  C   UNL     1      29.675  43.367  54.089  1.00  0.00    -0.008 A 
HETATM   23  C   UNL     1      28.452  45.277  55.011  1.00  0.00     0.030 A 
HETATM   24  C   UNL     1      30.643  43.491  55.102  1.00  0.00     0.014 A 
HETATM   25  C   UNL     1      29.514  42.493  52.981  1.00  0.00     0.040 A 
HETATM   26  C   UNL     1      30.506  44.505  56.057  1.00  0.00     0.001 A 
HETATM   27  C   UNL     1      29.425  45.383  56.010  1.00  0.00     0.002 A 
ENDBRANCH   1  18
TORSDOF 3
ENDMDL
MODEL 2
REMARK VINA RESULT:      -9.0      1.520      2.837
REMARK  3 active torsions:
REMARK  status: ('A' for Active; 'I' for Inactive)
REMARK    1  A    between atoms: C_7  and  C_8 
REMARK    2  A    between atoms: N_9  and  C_11 
REMARK    3  A    between atoms: C_11  and  C_12 
ROOT
HETATM    1  C   UNL     1      25.926  44.425  50.371  1.00  0.00     0.238 C 
HETATM    2  N   UNL     1      24.719  45.269  50.746  1.00  0.00    -0.056 N 
HETATM    3  H   UNL     1      24.329  44.815  51.578  1.00  0.00     0.281 HD
HETATM    4  C   UNL     1      23.629  45.246  49.699  1.00  0.00     0.236 C 
HETATM    5  C   UNL     1      23.183  43.820  49.431  1.00  0.00     0.028 C 
HETATM    6  C   UNL     1      24.356  42.979  48.960  1.00  0.00     0.004 C 
HETATM    7  C   UNL     1      25.469  43.001  49.996  1.00  0.00     0.040 C 
ENDROOT
BRANCH   2   8
HETATM    8  C   UNL     1      25.044  46.689  51.197  1.00  0.00     0.294 C 
BRANCH   8   9
HETATM    9  C   UNL     1      25.673  47.551  50.173  1.00  0.00     0.061 A 
HETATM   10  N   UNL     1      25.000  48.426  49.344  1.00  0.00    -0.305 N 
HETATM   11  C   UNL     1      25.953  49.069  48.593  1.00  0.00     0.151 A 
HETATM   12  C   UNL     1      23.663  48.744  49.166  1.00  0.00     0.118 A 
HETATM   13  C   UNL     1      25.539  50.095  47.675  1.00  0.00     0.167 A 
HETATM   14  N   UNL     1      27.165  48.622  48.824  1.00  0.00    -0.239 NA
HETATM   15  N   UNL     1      24.280  50.414  47.540  1.00  0.00    -0.268 NA
HETATM   16  C   UNL     1      23.350  49.709  48.282  1.00  0.00     0.134 A 
HETATM   17  C   UNL     1      26.994  47.641  49.760  1.00  0.00     0.146 A 
ENDBRANCH   8   9
ENDBRANCH   2   8
BRANCH   1  18
HETATM   18  C   UNL     1      26.907  44.317  51.497  1.00  0.00     0.041 A 
HETATM   19  N   UNL     1      28.036  43.529  51.405  1.00  0.00    -0.357 N 
HETATM   20  C   UNL     1      28.748  43.568  52.581  1.00  0.00     0.042 A 
HETATM   21  H   UNL     1      28.319  42.976  50.605  1.00  0.00     0.166 HD
HETATM   22  C   UNL     1      28.041  44.376  53.469  1.00  0.00    -0.008 A 
HETATM   23  C   UNL     1      29.945  42.934  52.932  1.00  0.00     0.030 A 
HETATM   24  C   UNL     1      28.542  44.562  54.770  1.00  0.00     0.014 A 
HETATM   25  C   UNL     1      26.884  44.833  52.783  1.00  0.00     0.040 A 
HETATM   26  C   UNL     1      29.737  43.934  55.138  1.00  0.00     0.001 A 
HETATM   27  C   UNL     1      30.426  43.133  54.229  1.00  0.00     0.002 A 
ENDBRANCH   1  18
TORSDOF 3
ENDMDL
MODEL 3
REMARK VINA RESULT:      -8.9      1.935      5.262
REMARK  3 active torsions:
REMARK  status: ('A' for Active; 'I' for Inactive)
REMARK    1  A    between atoms: C_7  and  C_8 
REMARK    2  A    between atoms: N_9  and  C_11 
REMARK    3  A    between atoms: C_11  and  C_12 
ROOT
HETATM    1  C   UNL     1      27.979  42.861  53.781  1.00  0.00     0.238 C 
HETATM    2  N   UNL     1      27.570  44.309  53.988  1.00  0.00    -0.056 N 
HETATM    3  H   UNL     1      28.019  44.822  53.222  1.00  0.00     0.281 HD
HETATM    4  C   UNL     1      28.111  44.902  55.269  1.00  0.00     0.236 C 
HETATM    5  C   UNL     1      29.624  44.796  55.304  1.00  0.00     0.028 C 
HETATM    6  C   UNL     1      30.056  43.344  55.196  1.00  0.00     0.004 C 
HETATM    7  C   UNL     1      29.509  42.727  53.918  1.00  0.00     0.040 C 
ENDROOT
BRANCH   2   8
HETATM    8  C   UNL     1      26.080  44.588  53.819  1.00  0.00     0.294 C 
BRANCH   8   9
HETATM    9  C   UNL     1      25.738  45.616  52.814  1.00  0.00     0.061 A 
HETATM   10  N   UNL     1      25.004  45.397  51.665  1.00  0.00    -0.305 N 
HETATM   11  C   UNL     1      24.866  46.616  51.048  1.00  0.00     0.151 A 
HETATM   12  C   UNL     1      24.431  44.274  51.092  1.00  0.00     0.118 A 
HETATM   13  C   UNL     1      24.082  46.701  49.845  1.00  0.00     0.167 A 
HETATM   14  N   UNL     1      25.511  47.574  51.669  1.00  0.00    -0.239 NA
HETATM   15  N   UNL     1      23.515  45.642  49.331  1.00  0.00    -0.268 NA
HETATM   16  C   UNL     1      23.720  44.427  49.960  1.00  0.00     0.134 A 
HETATM   17  C   UNL     1      26.102  46.953  52.732  1.00  0.00     0.146 A 
ENDBRANCH   8   9
ENDBRANCH   2   8
BRANCH   1  18
HETATM   18  C   UNL     1      27.587  42.356  52.427  1.00  0.00     0.041 A 
HETATM   19  N   UNL     1      27.052  41.097  52.247  1.00  0.00    -0.357 N 
HETATM   20  C   UNL     1      26.818  40.859  50.914  1.00  0.00     0.042 A 
HETATM   21  H   UNL     1      26.862  40.415  52.973  1.00  0.00     0.166 HD
HETATM   22  C   UNL     1      27.245  41.982  50.209  1.00  0.00    -0.008 A 
HETATM   23  C   UNL     1      26.284  39.731  50.278  1.00  0.00     0.030 A 
HETATM   24  C   UNL     1      27.144  41.988  48.806  1.00  0.00     0.014 A 
HETATM   25  C   UNL     1      27.735  42.911  51.166  1.00  0.00     0.040 A 
HETATM   26  C   UNL     1      26.614  40.868  48.155  1.00  0.00     0.001 A 
HETATM   27  C   UNL     1      26.191  39.758  48.884  1.00  0.00     0.002 A 
ENDBRANCH   1  18
TORSDOF 3
ENDMDL
MODEL 4
REMARK VINA RESULT:      -8.8      1.798      2.416
REMARK  3 active torsions:
REMARK  status: ('A' for Active; 'I' for Inactive)
REMARK    1  A    between atoms: C_7  and  C_8 
REMARK    2  A    between atoms: N_9  and  C_11 
REMARK    3  A    between atoms: C_11  and  C_12 
ROOT
HETATM    1  C   UNL     1      27.792  43.167  52.051  1.00  0.00     0.238 C 
HETATM    2  N   UNL     1      26.318  42.930  52.330  1.00  0.00    -0.056 N 
HETATM    3  H   UNL     1      26.298  42.151  52.997  1.00  0.00     0.281 HD
HETATM    4  C   UNL     1      25.548  42.468  51.114  1.00  0.00     0.236 C 
HETATM    5  C   UNL     1      26.163  41.201  50.549  1.00  0.00     0.028 C 
HETATM    6  C   UNL     1      27.614  41.440  50.170  1.00  0.00     0.004 C 
HETATM    7  C   UNL     1      28.401  41.919  51.380  1.00  0.00     0.040 C 
ENDROOT
BRANCH   2   8
HETATM    8  C   UNL     1      25.609  44.073  53.050  1.00  0.00     0.294 C 
BRANCH   8   9
HETATM    9  C   UNL     1      25.525  45.342  52.295  1.00  0.00     0.061 A 
HETATM   10  N   UNL     1      24.745  45.554  51.175  1.00  0.00    -0.305 N 
HETATM   11  C   UNL     1      24.910  46.871  50.824  1.00  0.00     0.151 A 
HETATM   12  C   UNL     1      23.900  44.750  50.428  1.00  0.00     0.118 A 
HETATM   13  C   UNL     1      24.159  47.394  49.716  1.00  0.00     0.167 A 
HETATM   14  N   UNL     1      25.784  47.491  51.581  1.00  0.00    -0.239 NA
HETATM   15  N   UNL     1      23.336  46.638  49.040  1.00  0.00    -0.268 NA
HETATM   16  C   UNL     1      23.236  45.306  49.399  1.00  0.00     0.134 A 
HETATM   17  C   UNL     1      26.213  46.535  52.459  1.00  0.00     0.146 A 
ENDBRANCH   8   9
ENDBRANCH   2   8
BRANCH   1  18
HETATM   18  C   UNL     1      28.563  43.444  53.304  1.00  0.00     0.041 A 
HETATM   19  N   UNL     1      28.456  44.647  53.972  1.00  0.00    -0.357 N 
HETATM   20  C   UNL     1      29.293  44.667  55.063  1.00  0.00     0.042 A 
HETATM   21  H   UNL     1      27.867  45.429  53.712  1.00  0.00     0.166 HD
HETATM   22  C   UNL     1      29.985  43.458  55.080  1.00  0.00    -0.008 A 
HETATM   23  C   UNL     1      29.506  45.668  56.018  1.00  0.00     0.030 A 
HETATM   24  C   UNL     1      30.938  43.231  56.090  1.00  0.00     0.014 A 
HETATM   25  C   UNL     1      29.527  42.703  53.968  1.00  0.00     0.040 A 
HETATM   26  C   UNL     1      31.164  44.222  57.051  1.00  0.00     0.001 A 
HETATM   27  C   UNL     1      30.456  45.422  57.013  1.00  0.00     0.002 A 
ENDBRANCH   1  18
TORSDOF 3
ENDMDL
MODEL 5
REMARK VINA RESULT:      -8.8      3.388      8.528
REMARK  3 active torsions:
REMARK  status: ('A' for Active; 'I' for Inactive)
REMARK    1  A    between atoms: C_7  and  C_8 
REMARK    2  A    between atoms: N_9  and  C_11 
REMARK    3  A    between atoms: C_11  and  C_12 
ROOT
HETATM    1  C   UNL     1      24.285  48.854  48.729  1.00  0.00     0.238 C 
HETATM    2  N   UNL     1      25.020  48.166  49.866  1.00  0.00    -0.056 N 
HETATM    3  H   UNL     1      25.003  48.842  50.637  1.00  0.00     0.281 HD
HETATM    4  C   UNL     1      26.477  47.906  49.561  1.00  0.00     0.236 C 
HETATM    5  C   UNL     1      27.185  49.202  49.215  1.00  0.00     0.028 C 
HETATM    6  C   UNL     1      26.526  49.862  48.016  1.00  0.00     0.004 C 
HETATM    7  C   UNL     1      25.055  50.120  48.301  1.00  0.00     0.040 C 
ENDROOT
BRANCH   2   8
HETATM    8  C   UNL     1      24.326  46.927  50.423  1.00  0.00     0.294 C 
BRANCH   8   9
HETATM    9  C   UNL     1      25.205  45.976  51.136  1.00  0.00     0.061 A 
HETATM   10  N   UNL     1      25.779  46.193  52.373  1.00  0.00    -0.305 N 
HETATM   11  C   UNL     1      26.464  45.048  52.696  1.00  0.00     0.151 A 
HETATM   12  C   UNL     1      25.772  47.256  53.261  1.00  0.00     0.118 A 
HETATM   13  C   UNL     1      27.116  44.965  53.975  1.00  0.00     0.167 A 
HETATM   14  N   UNL     1      26.435  44.153  51.737  1.00  0.00    -0.239 NA
HETATM   15  N   UNL     1      27.073  45.959  54.821  1.00  0.00    -0.268 NA
HETATM   16  C   UNL     1      26.411  47.110  54.436  1.00  0.00     0.134 A 
HETATM   17  C   UNL     1      25.705  44.743  50.743  1.00  0.00     0.146 A 
ENDBRANCH   8   9
ENDBRANCH   2   8
BRANCH   1  18
HETATM   18  C   UNL     1      22.900  49.264  49.122  1.00  0.00     0.041 A 
HETATM   19  N   UNL     1      21.866  48.353  49.198  1.00  0.00    -0.357 N 
HETATM   20  C   UNL     1      20.692  48.984  49.538  1.00  0.00     0.042 A 
HETATM   21  H   UNL     1      21.927  47.357  49.018  1.00  0.00     0.166 HD
HETATM   22  C   UNL     1      20.969  50.344  49.652  1.00  0.00    -0.008 A 
HETATM   23  C   UNL     1      19.408  48.459  49.730  1.00  0.00     0.030 A 
HETATM   24  C   UNL     1      19.922  51.230  49.967  1.00  0.00     0.014 A 
HETATM   25  C   UNL     1      22.353  50.511  49.380  1.00  0.00     0.040 A 
HETATM   26  C   UNL     1      18.633  50.722  50.160  1.00  0.00     0.001 A 
HETATM   27  C   UNL     1      18.383  49.356  50.043  1.00  0.00     0.002 A 
ENDBRANCH   1  18
TORSDOF 3
ENDMDL
MODEL 6
REMARK VINA RESULT:      -8.7      2.561      5.627
REMARK  3 active torsions:
REMARK  status: ('A' for Active; 'I' for Inactive)
REMARK    1  A    between atoms: C_7  and  C_8 
REMARK    2  A    between atoms: N_9  and  C_11 
REMARK    3  A    between atoms: C_11  and  C_12 
ROOT
HETATM    1  C   UNL     1      26.920  45.638  54.092  1.00  0.00     0.238 C 
HETATM    2  N   UNL     1      26.873  44.553  53.030  1.00  0.00    -0.056 N 
HETATM    3  H   UNL     1      27.792  44.588  52.577  1.00  0.00     0.281 HD
HETATM    4  C   UNL     1      25.855  44.824  51.947  1.00  0.00     0.236 C 
HETATM    5  C   UNL     1      26.129  46.163  51.287  1.00  0.00     0.028 C 
HETATM    6  C   UNL     1      26.085  47.279  52.316  1.00  0.00     0.004 C 
HETATM    7  C   UNL     1      27.094  47.015  53.421  1.00  0.00     0.040 C 
ENDROOT
BRANCH   2   8
HETATM    8  C   UNL     1      26.763  43.130  53.569  1.00  0.00     0.294 C 
BRANCH   8   9
HETATM    9  C   UNL     1      27.537  42.111  52.831  1.00  0.00     0.061 A 
HETATM   10  N   UNL     1      27.146  41.512  51.649  1.00  0.00    -0.305 N 
HETATM   11  C   UNL     1      28.171  40.679  51.272  1.00  0.00     0.151 A 
HETATM   12  C   UNL     1      26.016  41.607  50.854  1.00  0.00     0.118 A 
HETATM   13  C   UNL     1      28.063  39.964  50.029  1.00  0.00     0.167 A 
HETATM   14  N   UNL     1      29.144  40.644  52.151  1.00  0.00    -0.239 NA
HETATM   15  N   UNL     1      27.010  40.088  49.267  1.00  0.00    -0.268 NA
HETATM   16  C   UNL     1      25.982  40.902  49.708  1.00  0.00     0.134 A 
HETATM   17  C   UNL     1      28.734  41.484  53.147  1.00  0.00     0.146 A 
ENDBRANCH   8   9
ENDBRANCH   2   8
BRANCH   1  18
HETATM   18  C   UNL     1      28.055  45.439  55.048  1.00  0.00     0.041 A 
HETATM   19  N   UNL     1      29.004  44.456  54.856  1.00  0.00    -0.357 N 
HETATM   20  C   UNL     1      29.911  44.454  55.889  1.00  0.00     0.042 A 
HETATM   21  H   UNL     1      29.045  43.802  54.082  1.00  0.00     0.166 HD
HETATM   22  C   UNL     1      29.517  45.440  56.791  1.00  0.00    -0.008 A 
HETATM   23  C   UNL     1      31.031  43.642  56.105  1.00  0.00     0.030 A 
HETATM   24  C   UNL     1      30.267  45.629  57.966  1.00  0.00     0.014 A 
HETATM   25  C   UNL     1      28.347  46.045  56.259  1.00  0.00     0.040 A 
HETATM   26  C   UNL     1      31.388  44.825  58.198  1.00  0.00     0.001 A 
HETATM   27  C   UNL     1      31.763  43.847  57.278  1.00  0.00     0.002 A 
ENDBRANCH   1  18
TORSDOF 3
ENDMDL
MODEL 7
REMARK VINA RESULT:      -8.6      4.998      8.546
REMARK  3 active torsions:
REMARK  status: ('A' for Active; 'I' for Inactive)
REMARK    1  A    between atoms: C_7  and  C_8 
REMARK    2  A    between atoms: N_9  and  C_11 
REMARK    3  A    between atoms: C_11  and  C_12 
ROOT
HETATM    1  C   UNL     1      21.130  50.020  49.045  1.00  0.00     0.238 C 
HETATM    2  N   UNL     1      20.299  49.071  48.199  1.00  0.00    -0.056 N 
HETATM    3  H   UNL     1      20.675  49.166  47.250  1.00  0.00     0.281 HD
HETATM    4  C   UNL     1      18.842  49.466  48.121  1.00  0.00     0.236 C 
HETATM    5  C   UNL     1      18.705  50.876  47.577  1.00  0.00     0.028 C 
HETATM    6  C   UNL     1      19.449  51.860  48.463  1.00  0.00     0.004 C 
HETATM    7  C   UNL     1      20.915  51.469  48.564  1.00  0.00     0.040 C 
ENDROOT
BRANCH   2   8
HETATM    8  C   UNL     1      20.469  47.593  48.537  1.00  0.00     0.294 C 
BRANCH   8   9
HETATM    9  C   UNL     1      21.044  46.760  47.460  1.00  0.00     0.061 A 
HETATM   10  N   UNL     1      21.973  45.754  47.639  1.00  0.00    -0.305 N 
HETATM   11  C   UNL     1      22.193  45.197  46.403  1.00  0.00     0.151 A 
HETATM   12  C   UNL     1      22.644  45.252  48.742  1.00  0.00     0.118 A 
HETATM   13  C   UNL     1      23.080  44.070  46.297  1.00  0.00     0.167 A 
HETATM   14  N   UNL     1      21.540  45.812  45.447  1.00  0.00    -0.239 NA
HETATM   15  N   UNL     1      23.680  43.580  47.349  1.00  0.00    -0.268 NA
HETATM   16  C   UNL     1      23.465  44.201  48.566  1.00  0.00     0.134 A 
HETATM   17  C   UNL     1      20.870  46.818  46.084  1.00  0.00     0.146 A 
ENDBRANCH   8   9
ENDBRANCH   2   8
BRANCH   1  18
HETATM   18  C   UNL     1      22.593  49.714  48.958  1.00  0.00     0.041 A 
HETATM   19  N   UNL     1      23.166  48.688  49.682  1.00  0.00    -0.357 N 
HETATM   20  C   UNL     1      24.522  48.640  49.460  1.00  0.00     0.042 A 
HETATM   21  H   UNL     1      22.685  48.054  50.310  1.00  0.00     0.166 HD
HETATM   22  C   UNL     1      24.839  49.685  48.596  1.00  0.00    -0.008 A 
HETATM   23  C   UNL     1      25.490  47.770  49.975  1.00  0.00     0.030 A 
HETATM   24  C   UNL     1      26.182  49.881  48.225  1.00  0.00     0.014 A 
HETATM   25  C   UNL     1      23.625  50.358  48.295  1.00  0.00     0.040 A 
HETATM   26  C   UNL     1      27.163  49.021  48.732  1.00  0.00     0.001 A 
HETATM   27  C   UNL     1      26.818  47.982  49.594  1.00  0.00     0.002 A 
ENDBRANCH   1  18
TORSDOF 3
ENDMDL
MODEL 8
REMARK VINA RESULT:      -8.5      2.170      5.320
REMARK  3 active torsions:
REMARK  status: ('A' for Active; 'I' for Inactive)
REMARK    1  A    between atoms: C_7  and  C_8 
REMARK    2  A    between atoms: N_9  and  C_11 
REMARK    3  A    between atoms: C_11  and  C_12 
ROOT
HETATM    1  C   UNL     1      26.131  45.115  52.542  1.00  0.00     0.238 C 
HETATM    2  N   UNL     1      26.156  44.383  51.212  1.00  0.00    -0.056 N 
HETATM    3  H   UNL     1      27.056  44.634  50.790  1.00  0.00     0.281 HD
HETATM    4  C   UNL     1      25.089  44.857  50.251  1.00  0.00     0.236 C 
HETATM    5  C   UNL     1      25.223  46.349  50.007  1.00  0.00     0.028 C 
HETATM    6  C   UNL     1      25.104  47.112  51.315  1.00  0.00     0.004 C 
HETATM    7  C   UNL     1      26.162  46.638  52.299  1.00  0.00     0.040 C 
ENDROOT
BRANCH   2   8
HETATM    8  C   UNL     1      26.189  42.861  51.316  1.00  0.00     0.294 C 
BRANCH   8   9
HETATM    9  C   UNL     1      26.801  42.161  50.167  1.00  0.00     0.061 A 
HETATM   10  N   UNL     1      27.681  41.100  50.256  1.00  0.00    -0.305 N 
HETATM   11  C   UNL     1      27.959  40.710  48.969  1.00  0.00     0.151 A 
HETATM   12  C   UNL     1      28.264  40.423  51.315  1.00  0.00     0.118 A 
HETATM   13  C   UNL     1      28.811  39.572  48.756  1.00  0.00     0.167 A 
HETATM   14  N   UNL     1      27.388  41.479  48.073  1.00  0.00    -0.239 NA
HETATM   15  N   UNL     1      29.326  38.916  49.761  1.00  0.00    -0.268 NA
HETATM   16  C   UNL     1      29.058  39.372  51.039  1.00  0.00     0.134 A 
HETATM   17  C   UNL     1      26.715  42.416  48.806  1.00  0.00     0.146 A 
ENDBRANCH   8   9
ENDBRANCH   2   8
BRANCH   1  18
HETATM   18  C   UNL     1      27.303  44.758  53.401  1.00  0.00     0.041 A 
HETATM   19  N   UNL     1      27.701  45.553  54.457  1.00  0.00    -0.357 N 
HETATM   20  C   UNL     1      28.821  45.031  55.058  1.00  0.00     0.042 A 
HETATM   21  H   UNL     1      27.260  46.414  54.761  1.00  0.00     0.166 HD
HETATM   22  C   UNL     1      29.178  43.885  54.350  1.00  0.00    -0.008 A 
HETATM   23  C   UNL     1      29.557  45.496  56.155  1.00  0.00     0.030 A 
HETATM   24  C   UNL     1      30.322  43.167  54.745  1.00  0.00     0.014 A 
HETATM   25  C   UNL     1      28.226  43.728  53.308  1.00  0.00     0.040 A 
HETATM   26  C   UNL     1      31.068  43.619  55.838  1.00  0.00     0.001 A 
HETATM   27  C   UNL     1      30.688  44.767  56.532  1.00  0.00     0.002 A 
ENDBRANCH   1  18
TORSDOF 3
ENDMDL
MODEL 9
REMARK VINA RESULT:      -8.3      5.685      9.246
REMARK  3 active torsions:
REMARK  status: ('A' for Active; 'I' for Inactive)
REMARK    1  A    between atoms: C_7  and  C_8 
REMARK    2  A    between atoms: N_9  and  C_11 
REMARK    3  A    between atoms: C_11  and  C_12 
ROOT
HETATM    1  C   UNL     1      20.809  50.136  48.917  1.00  0.00     0.238 C 
HETATM    2  N   UNL     1      19.987  49.261  47.988  1.00  0.00    -0.056 N 
HETATM    3  H   UNL     1      20.389  49.414  47.057  1.00  0.00     0.281 HD
HETATM    4  C   UNL     1      18.538  49.685  47.899  1.00  0.00     0.236 C 
HETATM    5  C   UNL     1      18.437  51.131  47.450  1.00  0.00     0.028 C 
HETATM    6  C   UNL     1      19.172  52.039  48.420  1.00  0.00     0.004 C 
HETATM    7  C   UNL     1      20.629  51.618  48.532  1.00  0.00     0.040 C 
ENDROOT
BRANCH   2   8
HETATM    8  C   UNL     1      20.125  47.761  48.227  1.00  0.00     0.294 C 
BRANCH   8   9
HETATM    9  C   UNL     1      20.730  46.996  47.117  1.00  0.00     0.061 A 
HETATM   10  N   UNL     1      20.139  46.768  45.889  1.00  0.00    -0.305 N 
HETATM   11  C   UNL     1      21.053  46.075  45.135  1.00  0.00     0.151 A 
HETATM   12  C   UNL     1      18.911  47.098  45.340  1.00  0.00     0.118 A 
HETATM   13  C   UNL     1      20.727  45.752  43.772  1.00  0.00     0.167 A 
HETATM   14  N   UNL     1      22.142  45.780  45.804  1.00  0.00    -0.239 NA
HETATM   15  N   UNL     1      19.581  46.099  43.250  1.00  0.00    -0.268 NA
HETATM   16  C   UNL     1      18.672  46.756  44.061  1.00  0.00     0.134 A 
HETATM   17  C   UNL     1      21.926  46.296  47.050  1.00  0.00     0.146 A 
ENDBRANCH   8   9
ENDBRANCH   2   8
BRANCH   1  18
HETATM   18  C   UNL     1      22.269  49.812  48.847  1.00  0.00     0.041 A 
HETATM   19  N   UNL     1      22.831  48.816  49.620  1.00  0.00    -0.357 N 
HETATM   20  C   UNL     1      24.187  48.745  49.403  1.00  0.00     0.042 A 
HETATM   21  H   UNL     1      22.344  48.217  50.277  1.00  0.00     0.166 HD
HETATM   22  C   UNL     1      24.515  49.745  48.490  1.00  0.00    -0.008 A 
HETATM   23  C   UNL     1      25.147  47.891  49.959  1.00  0.00     0.030 A 
HETATM   24  C   UNL     1      25.861  49.910  48.112  1.00  0.00     0.014 A 
HETATM   25  C   UNL     1      23.308  50.414  48.155  1.00  0.00     0.040 A 
HETATM   26  C   UNL     1      26.832  49.066  48.661  1.00  0.00     0.001 A 
HETATM   27  C   UNL     1      26.477  48.072  49.570  1.00  0.00     0.002 A 
ENDBRANCH   1  18
TORSDOF 3
ENDMDL
MODEL 10
REMARK VINA RESULT:      -8.3      2.085      5.115
REMARK  3 active torsions:
REMARK  status: ('A' for Active; 'I' for Inactive)
REMARK    1  A    between atoms: C_7  and  C_8 
REMARK    2  A    between atoms: N_9  and  C_11 
REMARK    3  A    between atoms: C_11  and  C_12 
ROOT
HETATM    1  C   UNL     1      25.671  45.501  52.210  1.00  0.00     0.238 C 
HETATM    2  N   UNL     1      25.268  44.605  51.052  1.00  0.00    -0.056 N 
HETATM    3  H   UNL     1      26.103  44.548  50.460  1.00  0.00     0.281 HD
HETATM    4  C   UNL     1      24.178  45.201  50.190  1.00  0.00     0.236 C 
HETATM    5  C   UNL     1      24.607  46.554  49.655  1.00  0.00     0.028 C 
HETATM    6  C   UNL     1      24.923  47.501  50.800  1.00  0.00     0.004 C 
HETATM    7  C   UNL     1      26.009  46.910  51.685  1.00  0.00     0.040 C 
ENDROOT
BRANCH   2   8
HETATM    8  C   UNL     1      24.963  43.160  51.432  1.00  0.00     0.294 C 
BRANCH   8   9
HETATM    9  C   UNL     1      25.372  42.144  50.439  1.00  0.00     0.061 A 
HETATM   10  N   UNL     1      24.578  41.662  49.417  1.00  0.00    -0.305 N 
HETATM   11  C   UNL     1      25.353  40.788  48.696  1.00  0.00     0.151 A 
HETATM   12  C   UNL     1      23.270  41.896  49.027  1.00  0.00     0.118 A 
HETATM   13  C   UNL     1      24.797  40.175  47.519  1.00  0.00     0.167 A 
HETATM   14  N   UNL     1      26.544  40.618  49.217  1.00  0.00    -0.239 NA
HETATM   15  N   UNL     1      23.574  40.430  47.137  1.00  0.00    -0.268 NA
HETATM   16  C   UNL     1      22.815  41.281  47.920  1.00  0.00     0.134 A 
HETATM   17  C   UNL     1      26.545  41.411  50.330  1.00  0.00     0.146 A 
ENDBRANCH   8   9
ENDBRANCH   2   8
BRANCH   1  18
HETATM   18  C   UNL     1      26.870  44.974  52.936  1.00  0.00     0.041 A 
HETATM   19  N   UNL     1      27.333  45.560  54.096  1.00  0.00    -0.357 N 
HETATM   20  C   UNL     1      28.465  44.919  54.541  1.00  0.00     0.042 A 
HETATM   21  H   UNL     1      26.928  46.361  54.569  1.00  0.00     0.166 HD
HETATM   22  C   UNL     1      28.760  43.912  53.624  1.00  0.00    -0.008 A 
HETATM   23  C   UNL     1      29.258  45.166  55.668  1.00  0.00     0.030 A 
HETATM   24  C   UNL     1      29.901  43.115  53.830  1.00  0.00     0.014 A 
HETATM   25  C   UNL     1      27.761  43.962  52.617  1.00  0.00     0.040 A 
HETATM   26  C   UNL     1      30.706  43.350  54.950  1.00  0.00     0.001 A 
HETATM   27  C   UNL     1      30.386  44.362  55.854  1.00  0.00     0.002 A 
ENDBRANCH   1  18
TORSDOF 3
ENDMDL
