MODEL 1
REMARK VINA RESULT:     -10.4      0.000      0.000
REMARK  8 active torsions:
REMARK  status: ('A' for Active; 'I' for Inactive)
REMARK    1  A    between atoms: C_4  and  C_5 
REMARK    2  A    between atoms: C_5  and  N_6 
REMARK    3  A    between atoms: C_5  and  C_31 
REMARK       I    between atoms: N_6  and  C_7 
REMARK    4  A    between atoms: N_6  and  C_21 
REMARK    5  A    between atoms: C_7  and  C_8 
REMARK    6  A    between atoms: C_11  and  C_12 
REMARK    7  A    between atoms: C_21  and  C_22 
REMARK       I    between atoms: C_31  and  N_32 
REMARK    8  A    between atoms: N_32  and  C_33 
ROOT
HETATM    1  N   UNL     1      26.375  45.922  51.241  1.00  0.00    -0.323 N 
HETATM    2  C   UNL     1      25.947  46.751  52.279  1.00  0.00     0.271 C 
HETATM    3  O   UNL     1      25.015  47.539  52.114  1.00  0.00    -0.266 OA
ENDROOT
BRANCH   1   4
HETATM    4  C   UNL     1      25.699  46.092  49.938  1.00  0.00     0.237 C 
BRANCH   4   5
HETATM    5  C   UNL     1      25.883  47.501  49.442  1.00  0.00     0.085 A 
HETATM    6  O   UNL     1      24.785  48.251  49.120  1.00  0.00    -0.317 OA
HETATM    7  C   UNL     1      25.229  49.464  48.689  1.00  0.00     0.049 A 
HETATM    8  C   UNL     1      24.198  50.421  48.243  1.00  0.00     0.076 C 
HETATM    9  C   UNL     1      26.603  49.520  48.770  1.00  0.00     0.035 A 
HETATM   10  C   UNL     1      27.024  48.260  49.256  1.00  0.00     0.038 A 
ENDBRANCH   4   5
BRANCH   4  11
HETATM   11  C   UNL     1      24.263  45.499  49.938  1.00  0.00     0.247 C 
HETATM   12  N   UNL     1      23.415  45.854  48.918  1.00  0.00    -0.354 N 
HETATM   13  H   UNL     1      23.795  46.488  48.221  1.00  0.00     0.162 HD
HETATM   14  O   UNL     1      23.901  44.773  50.866  1.00  0.00    -0.271 OA
BRANCH  12  15
HETATM   15  C   UNL     1      22.029  45.440  48.715  1.00  0.00     0.084 C 
HETATM   16  C   UNL     1      21.089  46.583  48.301  1.00  0.00     0.025 C 
HETATM   17  C   UNL     1      20.879  46.743  46.798  1.00  0.00     0.002 C 
HETATM   18  C   UNL     1      20.568  45.416  46.119  1.00  0.00     0.000 C 
HETATM   19  C   UNL     1      21.652  44.381  46.390  1.00  0.00     0.002 C 
HETATM   20  C   UNL     1      21.873  44.161  47.883  1.00  0.00     0.025 C 
ENDBRANCH  12  15
ENDBRANCH   4  11
ENDBRANCH   1   4
BRANCH   1  21
HETATM   21  C   UNL     1      27.538  45.031  51.288  1.00  0.00     0.166 C 
BRANCH  21  22
HETATM   22  C   UNL     1      27.313  43.549  51.071  1.00  0.00    -0.037 A 
HETATM   23  C   UNL     1      26.949  43.132  49.773  1.00  0.00     0.048 A 
HETATM   24  C   UNL     1      26.703  41.794  49.550  1.00  0.00     0.105 A 
HETATM   25  C   UNL     1      26.793  40.864  50.555  1.00  0.00     0.105 A 
HETATM   26  O   UNL     1      26.351  41.240  48.358  1.00  0.00    -0.323 OA
HETATM   27  O   UNL     1      26.511  39.605  50.126  1.00  0.00    -0.323 OA
HETATM   28  C   UNL     1      27.137  41.223  51.837  1.00  0.00     0.040 A 
HETATM   29  C   UNL     1      26.226  39.852  48.735  1.00  0.00     0.352 A 
HETATM   30  C   UNL     1      27.401  42.576  52.092  1.00  0.00     0.012 A 
ENDBRANCH  21  22
ENDBRANCH   1  21
BRANCH   2  31
HETATM   31  C   UNL     1      26.646  46.765  53.548  1.00  0.00     0.101 A 
HETATM   32  N   UNL     1      27.682  45.881  53.768  1.00  0.00    -0.351 N 
HETATM   33  H   UNL     1      28.003  45.221  53.070  1.00  0.00     0.166 HD
HETATM   34  C   UNL     1      28.188  45.998  55.041  1.00  0.00     0.043 A 
HETATM   35  C   UNL     1      27.534  47.077  55.610  1.00  0.00     0.033 A 
HETATM   36  C   UNL     1      26.587  47.567  54.673  1.00  0.00     0.037 A 
BRANCH  34  37
HETATM   37  C   UNL     1      29.245  45.126  55.558  1.00  0.00    -0.009 A 
HETATM   38  C   UNL     1      29.603  43.957  54.873  1.00  0.00     0.013 A 
HETATM   39  C   UNL     1      30.608  43.119  55.365  1.00  0.00     0.001 A 
HETATM   40  C   UNL     1      31.270  43.442  56.548  1.00  0.00     0.000 A 
HETATM   41  C   UNL     1      30.931  44.603  57.237  1.00  0.00     0.001 A 
HETATM   42  C   UNL     1      29.927  45.441  56.744  1.00  0.00     0.013 A 
ENDBRANCH  34  37
ENDBRANCH   2  31
TORSDOF 8
ENDMDL
MODEL 2
REMARK VINA RESULT:     -10.3      1.656      3.303
REMARK  8 active torsions:
REMARK  status: ('A' for Active; 'I' for Inactive)
REMARK    1  A    between atoms: C_4  and  C_5 
REMARK    2  A    between atoms: C_5  and  N_6 
REMARK    3  A    between atoms: C_5  and  C_31 
REMARK       I    between atoms: N_6  and  C_7 
REMARK    4  A    between atoms: N_6  and  C_21 
REMARK    5  A    between atoms: C_7  and  C_8 
REMARK    6  A    between atoms: C_11  and  C_12 
REMARK    7  A    between atoms: C_21  and  C_22 
REMARK       I    between atoms: C_31  and  N_32 
REMARK    8  A    between atoms: N_32  and  C_33 
ROOT
HETATM    1  N   UNL     1      25.903  46.263  52.010  1.00  0.00    -0.323 N 
HETATM    2  C   UNL     1      25.927  46.844  53.279  1.00  0.00     0.271 C 
HETATM    3  O   UNL     1      24.911  47.340  53.765  1.00  0.00    -0.266 OA
ENDROOT
BRANCH   1   4
HETATM    4  C   UNL     1      24.624  46.338  51.273  1.00  0.00     0.237 C 
BRANCH   4   5
HETATM    5  C   UNL     1      24.262  44.981  50.731  1.00  0.00     0.085 A 
HETATM    6  O   UNL     1      24.215  44.788  49.377  1.00  0.00    -0.317 OA
HETATM    7  C   UNL     1      23.849  43.493  49.161  1.00  0.00     0.049 A 
HETATM    8  C   UNL     1      23.692  43.081  47.752  1.00  0.00     0.076 C 
HETATM    9  C   UNL     1      23.702  42.837  50.363  1.00  0.00     0.035 A 
HETATM   10  C   UNL     1      23.969  43.792  51.372  1.00  0.00     0.038 A 
ENDBRANCH   4   5
BRANCH   4  11
HETATM   11  C   UNL     1      24.575  47.550  50.303  1.00  0.00     0.247 C 
HETATM   12  N   UNL     1      23.386  47.828  49.674  1.00  0.00    -0.354 N 
HETATM   13  H   UNL     1      22.609  47.212  49.894  1.00  0.00     0.162 HD
HETATM   14  O   UNL     1      25.599  48.198  50.080  1.00  0.00    -0.271 OA
BRANCH  12  15
HETATM   15  C   UNL     1      23.102  48.895  48.717  1.00  0.00     0.084 C 
HETATM   16  C   UNL     1      21.915  48.603  47.788  1.00  0.00     0.025 C 
HETATM   17  C   UNL     1      20.571  49.159  48.252  1.00  0.00     0.002 C 
HETATM   18  C   UNL     1      20.672  50.617  48.681  1.00  0.00     0.000 C 
HETATM   19  C   UNL     1      21.722  50.810  49.766  1.00  0.00     0.002 C 
HETATM   20  C   UNL     1      23.094  50.301  49.333  1.00  0.00     0.025 C 
ENDBRANCH  12  15
ENDBRANCH   4  11
ENDBRANCH   1   4
BRANCH   1  21
HETATM   21  C   UNL     1      27.069  45.746  51.288  1.00  0.00     0.166 C 
BRANCH  21  22
HETATM   22  C   UNL     1      27.311  44.250  51.297  1.00  0.00    -0.037 A 
HETATM   23  C   UNL     1      27.333  43.590  50.051  1.00  0.00     0.048 A 
HETATM   24  C   UNL     1      27.516  42.224  50.025  1.00  0.00     0.105 A 
HETATM   25  C   UNL     1      27.666  41.493  51.177  1.00  0.00     0.105 A 
HETATM   26  O   UNL     1      27.567  41.451  48.908  1.00  0.00    -0.323 OA
HETATM   27  O   UNL     1      27.833  40.166  50.933  1.00  0.00    -0.323 OA
HETATM   28  C   UNL     1      27.645  42.091  52.416  1.00  0.00     0.040 A 
HETATM   29  C   UNL     1      27.762  40.146  49.494  1.00  0.00     0.352 A 
HETATM   30  C   UNL     1      27.468  43.480  52.471  1.00  0.00     0.012 A 
ENDBRANCH  21  22
ENDBRANCH   1  21
BRANCH   2  31
HETATM   31  C   UNL     1      27.170  46.954  54.016  1.00  0.00     0.101 A 
HETATM   32  N   UNL     1      27.813  45.812  54.447  1.00  0.00    -0.351 N 
HETATM   33  H   UNL     1      27.470  44.879  54.256  1.00  0.00     0.166 HD
HETATM   34  C   UNL     1      28.942  46.109  55.175  1.00  0.00     0.043 A 
HETATM   35  C   UNL     1      29.089  47.483  55.100  1.00  0.00     0.033 A 
HETATM   36  C   UNL     1      27.996  48.008  54.362  1.00  0.00     0.037 A 
BRANCH  34  37
HETATM   37  C   UNL     1      29.768  45.081  55.812  1.00  0.00    -0.009 A 
HETATM   38  C   UNL     1      30.320  45.295  57.082  1.00  0.00     0.013 A 
HETATM   39  C   UNL     1      31.113  44.318  57.690  1.00  0.00     0.001 A 
HETATM   40  C   UNL     1      31.362  43.112  57.037  1.00  0.00     0.000 A 
HETATM   41  C   UNL     1      30.814  42.881  55.778  1.00  0.00     0.001 A 
HETATM   42  C   UNL     1      30.021  43.858  55.170  1.00  0.00     0.013 A 
ENDBRANCH  34  37
ENDBRANCH   2  31
TORSDOF 8
ENDMDL
MODEL 3
REMARK VINA RESULT:     -10.3      1.761      3.510
REMARK  8 active torsions:
REMARK  status: ('A' for Active; 'I' for Inactive)
REMARK    1  A    between atoms: C_4  and  C_5 
REMARK    2  A    between atoms: C_5  and  N_6 
REMARK    3  A    between atoms: C_5  and  C_31 
REMARK       I    between atoms: N_6  and  C_7 
REMARK    4  A    between atoms: N_6  and  C_21 
REMARK    5  A    between atoms: C_7  and  C_8 
REMARK    6  A    between atoms: C_11  and  C_12 
REMARK    7  A    between atoms: C_21  and  C_22 
REMARK       I    between atoms: C_31  and  N_32 
REMARK    8  A    between atoms: N_32  and  C_33 
ROOT
HETATM    1  N   UNL     1      25.625  45.050  51.019  1.00  0.00    -0.323 N 
HETATM    2  C   UNL     1      26.072  45.128  52.339  1.00  0.00     0.271 C 
HETATM    3  O   UNL     1      25.420  45.732  53.191  1.00  0.00    -0.266 OA
ENDROOT
BRANCH   1   4
HETATM    4  C   UNL     1      24.381  45.781  50.699  1.00  0.00     0.237 C 
BRANCH   4   5
HETATM    5  C   UNL     1      23.561  44.994  49.711  1.00  0.00     0.085 A 
HETATM    6  O   UNL     1      23.567  45.356  48.392  1.00  0.00    -0.317 OA
HETATM    7  C   UNL     1      22.739  44.501  47.729  1.00  0.00     0.049 A 
HETATM    8  C   UNL     1      22.562  44.744  46.284  1.00  0.00     0.076 C 
HETATM    9  C   UNL     1      22.232  43.563  48.601  1.00  0.00     0.035 A 
HETATM   10  C   UNL     1      22.761  43.878  49.875  1.00  0.00     0.038 A 
ENDBRANCH   4   5
BRANCH   4  11
HETATM   11  C   UNL     1      24.641  47.283  50.400  1.00  0.00     0.247 C 
HETATM   12  N   UNL     1      23.604  48.034  49.903  1.00  0.00    -0.354 N 
HETATM   13  H   UNL     1      22.724  47.545  49.766  1.00  0.00     0.162 HD
HETATM   14  O   UNL     1      25.768  47.753  50.564  1.00  0.00    -0.271 OA
BRANCH  12  15
HETATM   15  C   UNL     1      23.612  49.448  49.536  1.00  0.00     0.084 C 
HETATM   16  C   UNL     1      23.650  49.701  48.021  1.00  0.00     0.025 C 
HETATM   17  C   UNL     1      22.290  49.913  47.361  1.00  0.00     0.002 C 
HETATM   18  C   UNL     1      21.429  50.907  48.130  1.00  0.00     0.000 C 
HETATM   19  C   UNL     1      21.248  50.487  49.582  1.00  0.00     0.002 C 
HETATM   20  C   UNL     1      22.583  50.297  50.294  1.00  0.00     0.025 C 
ENDBRANCH  12  15
ENDBRANCH   4  11
ENDBRANCH   1   4
BRANCH   1  21
HETATM   21  C   UNL     1      26.367  44.458  49.902  1.00  0.00     0.166 C 
BRANCH  21  22
HETATM   22  C   UNL     1      26.362  42.950  49.760  1.00  0.00    -0.037 A 
HETATM   23  C   UNL     1      27.099  42.398  48.691  1.00  0.00     0.048 A 
HETATM   24  C   UNL     1      27.088  41.031  48.512  1.00  0.00     0.105 A 
HETATM   25  C   UNL     1      26.373  40.200  49.337  1.00  0.00     0.105 A 
HETATM   26  O   UNL     1      27.749  40.353  47.536  1.00  0.00    -0.323 OA
HETATM   27  O   UNL     1      26.494  38.891  48.990  1.00  0.00    -0.323 OA
HETATM   28  C   UNL     1      25.634  40.692  50.388  1.00  0.00     0.040 A 
HETATM   29  C   UNL     1      27.362  38.996  47.844  1.00  0.00     0.352 A 
HETATM   30  C   UNL     1      25.634  42.077  50.598  1.00  0.00     0.012 A 
ENDBRANCH  21  22
ENDBRANCH   1  21
BRANCH   2  31
HETATM   31  C   UNL     1      27.356  44.573  52.716  1.00  0.00     0.101 A 
HETATM   32  N   UNL     1      27.819  44.735  54.006  1.00  0.00    -0.351 N 
HETATM   33  H   UNL     1      27.291  45.212  54.727  1.00  0.00     0.166 HD
HETATM   34  C   UNL     1      29.073  44.194  54.167  1.00  0.00     0.043 A 
HETATM   35  C   UNL     1      29.367  43.560  52.974  1.00  0.00     0.033 A 
HETATM   36  C   UNL     1      28.290  43.779  52.076  1.00  0.00     0.037 A 
BRANCH  34  37
HETATM   37  C   UNL     1      29.824  44.295  55.420  1.00  0.00    -0.009 A 
HETATM   38  C   UNL     1      30.758  43.311  55.773  1.00  0.00     0.013 A 
HETATM   39  C   UNL     1      31.473  43.400  56.971  1.00  0.00     0.001 A 
HETATM   40  C   UNL     1      31.265  44.477  57.830  1.00  0.00     0.000 A 
HETATM   41  C   UNL     1      30.347  45.467  57.491  1.00  0.00     0.001 A 
HETATM   42  C   UNL     1      29.633  45.378  56.294  1.00  0.00     0.013 A 
ENDBRANCH  34  37
ENDBRANCH   2  31
TORSDOF 8
ENDMDL
MODEL 4
REMARK VINA RESULT:     -10.3      2.605      8.435
REMARK  8 active torsions:
REMARK  status: ('A' for Active; 'I' for Inactive)
REMARK    1  A    between atoms: C_4  and  C_5 
REMARK    2  A    between atoms: C_5  and  N_6 
REMARK    3  A    between atoms: C_5  and  C_31 
REMARK       I    between atoms: N_6  and  C_7 
REMARK    4  A    between atoms: N_6  and  C_21 
REMARK    5  A    between atoms: C_7  and  C_8 
REMARK    6  A    between atoms: C_11  and  C_12 
REMARK    7  A    between atoms: C_21  and  C_22 
REMARK       I    between atoms: C_31  and  N_32 
REMARK    8  A    between atoms: N_32  and  C_33 
ROOT
HETATM    1  N   UNL     1      24.333  44.845  49.829  1.00  0.00    -0.323 N 
HETATM    2  C   UNL     1      24.296  46.182  49.432  1.00  0.00     0.271 C 
HETATM    3  O   UNL     1      25.244  46.935  49.659  1.00  0.00    -0.266 OA
ENDROOT
BRANCH   1   4
HETATM    4  C   UNL     1      25.528  44.413  50.584  1.00  0.00     0.237 C 
BRANCH   4   5
HETATM    5  C   UNL     1      25.961  43.046  50.127  1.00  0.00     0.085 A 
HETATM    6  O   UNL     1      26.579  42.905  48.915  1.00  0.00    -0.317 OA
HETATM    7  C   UNL     1      26.845  41.581  48.742  1.00  0.00     0.049 A 
HETATM    8  C   UNL     1      27.477  41.198  47.463  1.00  0.00     0.076 C 
HETATM    9  C   UNL     1      26.444  40.869  49.851  1.00  0.00     0.035 A 
HETATM   10  C   UNL     1      25.877  41.810  50.742  1.00  0.00     0.038 A 
ENDBRANCH   4   5
BRANCH   4  11
HETATM   11  C   UNL     1      25.380  44.660  52.111  1.00  0.00     0.247 C 
HETATM   12  N   UNL     1      26.506  44.986  52.827  1.00  0.00    -0.354 N 
HETATM   13  H   UNL     1      27.371  45.047  52.296  1.00  0.00     0.162 HD
HETATM   14  O   UNL     1      24.283  44.511  52.652  1.00  0.00    -0.271 OA
BRANCH  12  15
HETATM   15  C   UNL     1      26.617  45.247  54.260  1.00  0.00     0.084 C 
HETATM   16  C   UNL     1      27.682  44.396  54.970  1.00  0.00     0.025 C 
HETATM   17  C   UNL     1      29.052  45.053  55.114  1.00  0.00     0.002 C 
HETATM   18  C   UNL     1      28.951  46.478  55.642  1.00  0.00     0.000 C 
HETATM   19  C   UNL     1      28.047  47.337  54.768  1.00  0.00     0.002 C 
HETATM   20  C   UNL     1      26.652  46.737  54.624  1.00  0.00     0.025 C 
ENDBRANCH  12  15
ENDBRANCH   4  11
ENDBRANCH   1   4
BRANCH   1  21
HETATM   21  C   UNL     1      23.226  43.891  49.713  1.00  0.00     0.166 C 
BRANCH  21  22
HETATM   22  C   UNL     1      23.242  42.915  48.555  1.00  0.00    -0.037 A 
HETATM   23  C   UNL     1      23.563  43.427  47.281  1.00  0.00     0.048 A 
HETATM   24  C   UNL     1      23.553  42.572  46.199  1.00  0.00     0.105 A 
HETATM   25  C   UNL     1      23.230  41.245  46.329  1.00  0.00     0.105 A 
HETATM   26  O   UNL     1      23.843  42.914  44.915  1.00  0.00    -0.323 OA
HETATM   27  O   UNL     1      23.279  40.578  45.146  1.00  0.00    -0.323 OA
HETATM   28  C   UNL     1      22.905  40.701  47.550  1.00  0.00     0.040 A 
HETATM   29  C   UNL     1      23.662  41.643  44.253  1.00  0.00     0.352 A 
HETATM   30  C   UNL     1      22.915  41.545  48.668  1.00  0.00     0.012 A 
ENDBRANCH  21  22
ENDBRANCH   1  21
BRANCH   2  31
HETATM   31  C   UNL     1      23.105  46.737  48.821  1.00  0.00     0.101 A 
HETATM   32  N   UNL     1      22.550  47.894  49.329  1.00  0.00    -0.351 N 
HETATM   33  H   UNL     1      22.949  48.401  50.109  1.00  0.00     0.166 HD
HETATM   34  C   UNL     1      21.398  48.240  48.662  1.00  0.00     0.043 A 
HETATM   35  C   UNL     1      21.282  47.342  47.616  1.00  0.00     0.033 A 
HETATM   36  C   UNL     1      22.356  46.416  47.703  1.00  0.00     0.037 A 
BRANCH  34  37
HETATM   37  C   UNL     1      20.572  49.386  49.049  1.00  0.00    -0.009 A 
HETATM   38  C   UNL     1      20.809  50.653  48.501  1.00  0.00     0.013 A 
HETATM   39  C   UNL     1      20.027  51.751  48.872  1.00  0.00     0.001 A 
HETATM   40  C   UNL     1      18.995  51.593  49.794  1.00  0.00     0.000 A 
HETATM   41  C   UNL     1      18.741  50.339  50.343  1.00  0.00     0.001 A 
HETATM   42  C   UNL     1      19.523  49.242  49.972  1.00  0.00     0.013 A 
ENDBRANCH  34  37
ENDBRANCH   2  31
TORSDOF 8
ENDMDL
MODEL 5
REMARK VINA RESULT:     -10.0      2.645      7.646
REMARK  8 active torsions:
REMARK  status: ('A' for Active; 'I' for Inactive)
REMARK    1  A    between atoms: C_4  and  C_5 
REMARK    2  A    between atoms: C_5  and  N_6 
REMARK    3  A    between atoms: C_5  and  C_31 
REMARK       I    between atoms: N_6  and  C_7 
REMARK    4  A    between atoms: N_6  and  C_21 
REMARK    5  A    between atoms: C_7  and  C_8 
REMARK    6  A    between atoms: C_11  and  C_12 
REMARK    7  A    between atoms: C_21  and  C_22 
REMARK       I    between atoms: C_31  and  N_32 
REMARK    8  A    between atoms: N_32  and  C_33 
ROOT
HETATM    1  N   UNL     1      24.713  44.750  49.588  1.00  0.00    -0.323 N 
HETATM    2  C   UNL     1      23.552  44.085  49.192  1.00  0.00     0.271 C 
HETATM    3  O   UNL     1      22.443  44.486  49.544  1.00  0.00    -0.266 OA
ENDROOT
BRANCH   1   4
HETATM    4  C   UNL     1      24.537  45.903  50.495  1.00  0.00     0.237 C 
BRANCH   4   5
HETATM    5  C   UNL     1      25.267  47.102  49.952  1.00  0.00     0.085 A 
HETATM    6  O   UNL     1      24.571  48.061  49.267  1.00  0.00    -0.317 OA
HETATM    7  C   UNL     1      25.463  49.013  48.877  1.00  0.00     0.049 A 
HETATM    8  C   UNL     1      24.925  50.129  48.074  1.00  0.00     0.076 C 
HETATM    9  C   UNL     1      26.722  48.701  49.340  1.00  0.00     0.035 A 
HETATM   10  C   UNL     1      26.596  47.474  50.033  1.00  0.00     0.038 A 
ENDBRANCH   4   5
BRANCH   4  11
HETATM   11  C   UNL     1      24.765  45.521  51.984  1.00  0.00     0.247 C 
HETATM   12  N   UNL     1      25.503  46.376  52.766  1.00  0.00    -0.354 N 
HETATM   13  H   UNL     1      25.849  47.214  52.308  1.00  0.00     0.162 HD
HETATM   14  O   UNL     1      24.331  44.451  52.415  1.00  0.00    -0.271 OA
BRANCH  12  15
HETATM   15  C   UNL     1      25.859  46.225  54.175  1.00  0.00     0.084 C 
HETATM   16  C   UNL     1      26.808  45.050  54.457  1.00  0.00     0.025 C 
HETATM   17  C   UNL     1      28.292  45.406  54.497  1.00  0.00     0.002 C 
HETATM   18  C   UNL     1      28.564  46.636  55.353  1.00  0.00     0.000 C 
HETATM   19  C   UNL     1      27.749  47.835  54.886  1.00  0.00     0.002 C 
HETATM   20  C   UNL     1      26.253  47.537  54.865  1.00  0.00     0.025 C 
ENDBRANCH  12  15
ENDBRANCH   4  11
ENDBRANCH   1   4
BRANCH   1  21
HETATM   21  C   UNL     1      26.083  44.301  49.324  1.00  0.00     0.166 C 
BRANCH  21  22
HETATM   22  C   UNL     1      26.741  43.380  50.331  1.00  0.00    -0.037 A 
HETATM   23  C   UNL     1      27.908  43.848  50.971  1.00  0.00     0.048 A 
HETATM   24  C   UNL     1      28.551  43.022  51.868  1.00  0.00     0.105 A 
HETATM   25  C   UNL     1      28.093  41.759  52.144  1.00  0.00     0.105 A 
HETATM   26  O   UNL     1      29.678  43.331  52.564  1.00  0.00    -0.323 OA
HETATM   27  O   UNL     1      28.869  41.110  53.052  1.00  0.00    -0.323 OA
HETATM   28  C   UNL     1      26.963  41.256  51.540  1.00  0.00     0.040 A 
HETATM   29  C   UNL     1      29.875  42.110  53.309  1.00  0.00     0.352 A 
HETATM   30  C   UNL     1      26.285  42.078  50.630  1.00  0.00     0.012 A 
ENDBRANCH  21  22
ENDBRANCH   1  21
BRANCH   2  31
HETATM   31  C   UNL     1      23.630  42.856  48.428  1.00  0.00     0.101 A 
HETATM   32  N   UNL     1      24.222  42.862  47.181  1.00  0.00    -0.351 N 
HETATM   33  H   UNL     1      24.633  43.690  46.769  1.00  0.00     0.166 HD
HETATM   34  C   UNL     1      24.156  41.626  46.582  1.00  0.00     0.043 A 
HETATM   35  C   UNL     1      23.614  40.775  47.528  1.00  0.00     0.033 A 
HETATM   36  C   UNL     1      23.304  41.537  48.686  1.00  0.00     0.037 A 
BRANCH  34  37
HETATM   37  C   UNL     1      24.644  41.377  45.223  1.00  0.00    -0.009 A 
HETATM   38  C   UNL     1      23.893  41.779  44.111  1.00  0.00     0.013 A 
HETATM   39  C   UNL     1      24.353  41.538  42.813  1.00  0.00     0.001 A 
HETATM   40  C   UNL     1      25.573  40.895  42.612  1.00  0.00     0.000 A 
HETATM   41  C   UNL     1      26.335  40.496  43.706  1.00  0.00     0.001 A 
HETATM   42  C   UNL     1      25.875  40.737  45.004  1.00  0.00     0.013 A 
ENDBRANCH  34  37
ENDBRANCH   2  31
TORSDOF 8
ENDMDL
MODEL 6
REMARK VINA RESULT:     -10.0      2.857      8.779
REMARK  8 active torsions:
REMARK  status: ('A' for Active; 'I' for Inactive)
REMARK    1  A    between atoms: C_4  and  C_5 
REMARK    2  A    between atoms: C_5  and  N_6 
REMARK    3  A    between atoms: C_5  and  C_31 
REMARK       I    between atoms: N_6  and  C_7 
REMARK    4  A    between atoms: N_6  and  C_21 
REMARK    5  A    between atoms: C_7  and  C_8 
REMARK    6  A    between atoms: C_11  and  C_12 
REMARK    7  A    between atoms: C_21  and  C_22 
REMARK       I    between atoms: C_31  and  N_32 
REMARK    8  A    between atoms: N_32  and  C_33 
ROOT
HETATM    1  N   UNL     1      23.861  46.312  49.608  1.00  0.00    -0.323 N 
HETATM    2  C   UNL     1      24.630  47.456  49.388  1.00  0.00     0.271 C 
HETATM    3  O   UNL     1      25.849  47.440  49.558  1.00  0.00    -0.266 OA
ENDROOT
BRANCH   1   4
HETATM    4  C   UNL     1      24.578  45.122  50.113  1.00  0.00     0.237 C 
BRANCH   4   5
HETATM    5  C   UNL     1      24.119  43.892  49.378  1.00  0.00     0.085 A 
HETATM    6  O   UNL     1      24.365  43.777  48.037  1.00  0.00    -0.317 OA
HETATM    7  C   UNL     1      23.836  42.593  47.623  1.00  0.00     0.049 A 
HETATM    8  C   UNL     1      23.951  42.288  46.183  1.00  0.00     0.076 C 
HETATM    9  C   UNL     1      23.287  41.920  48.692  1.00  0.00     0.035 A 
HETATM   10  C   UNL     1      23.470  42.754  49.821  1.00  0.00     0.038 A 
ENDBRANCH   4   5
BRANCH   4  11
HETATM   11  C   UNL     1      24.615  45.074  51.666  1.00  0.00     0.247 C 
HETATM   12  N   UNL     1      25.529  45.865  52.317  1.00  0.00    -0.354 N 
HETATM   13  H   UNL     1      26.125  46.438  51.727  1.00  0.00     0.162 HD
HETATM   14  O   UNL     1      23.870  44.301  52.272  1.00  0.00    -0.271 OA
BRANCH  12  15
HETATM   15  C   UNL     1      25.759  45.977  53.755  1.00  0.00     0.084 C 
HETATM   16  C   UNL     1      26.644  44.864  54.336  1.00  0.00     0.025 C 
HETATM   17  C   UNL     1      28.130  45.200  54.442  1.00  0.00     0.002 C 
HETATM   18  C   UNL     1      28.365  46.565  55.074  1.00  0.00     0.000 C 
HETATM   19  C   UNL     1      27.630  47.666  54.321  1.00  0.00     0.002 C 
HETATM   20  C   UNL     1      26.133  47.391  54.221  1.00  0.00     0.025 C 
ENDBRANCH  12  15
ENDBRANCH   4  11
ENDBRANCH   1   4
BRANCH   1  21
HETATM   21  C   UNL     1      22.399  46.243  49.545  1.00  0.00     0.166 C 
BRANCH  21  22
HETATM   22  C   UNL     1      21.757  45.825  48.238  1.00  0.00    -0.037 A 
HETATM   23  C   UNL     1      20.592  45.033  48.313  1.00  0.00     0.048 A 
HETATM   24  C   UNL     1      20.002  44.606  47.142  1.00  0.00     0.105 A 
HETATM   25  C   UNL     1      20.524  44.922  45.913  1.00  0.00     0.105 A 
HETATM   26  O   UNL     1      18.879  43.846  47.051  1.00  0.00    -0.323 OA
HETATM   27  O   UNL     1      19.795  44.404  44.890  1.00  0.00    -0.323 OA
HETATM   28  C   UNL     1      21.662  45.685  45.790  1.00  0.00     0.040 A 
HETATM   29  C   UNL     1      18.758  43.718  45.618  1.00  0.00     0.352 A 
HETATM   30  C   UNL     1      22.277  46.140  46.964  1.00  0.00     0.012 A 
ENDBRANCH  21  22
ENDBRANCH   1  21
BRANCH   2  31
HETATM   31  C   UNL     1      23.998  48.712  49.037  1.00  0.00     0.101 A 
HETATM   32  N   UNL     1      22.707  48.968  49.451  1.00  0.00    -0.351 N 
HETATM   33  H   UNL     1      22.170  48.323  50.018  1.00  0.00     0.166 HD
HETATM   34  C   UNL     1      22.253  50.178  48.981  1.00  0.00     0.043 A 
HETATM   35  C   UNL     1      23.333  50.766  48.348  1.00  0.00     0.033 A 
HETATM   36  C   UNL     1      24.426  49.862  48.399  1.00  0.00     0.037 A 
BRANCH  34  37
HETATM   37  C   UNL     1      20.889  50.657  49.214  1.00  0.00    -0.009 A 
HETATM   38  C   UNL     1      20.047  49.998  50.120  1.00  0.00     0.013 A 
HETATM   39  C   UNL     1      18.742  50.450  50.341  1.00  0.00     0.001 A 
HETATM   40  C   UNL     1      18.265  51.569  49.662  1.00  0.00     0.000 A 
HETATM   41  C   UNL     1      19.092  52.239  48.765  1.00  0.00     0.001 A 
HETATM   42  C   UNL     1      20.396  51.788  48.544  1.00  0.00     0.013 A 
ENDBRANCH  34  37
ENDBRANCH   2  31
TORSDOF 8
ENDMDL
MODEL 7
REMARK VINA RESULT:      -9.9      6.608     10.663
REMARK  8 active torsions:
REMARK  status: ('A' for Active; 'I' for Inactive)
REMARK    1  A    between atoms: C_4  and  C_5 
REMARK    2  A    between atoms: C_5  and  N_6 
REMARK    3  A    between atoms: C_5  and  C_31 
REMARK       I    between atoms: N_6  and  C_7 
REMARK    4  A    between atoms: N_6  and  C_21 
REMARK    5  A    between atoms: C_7  and  C_8 
REMARK    6  A    between atoms: C_11  and  C_12 
REMARK    7  A    between atoms: C_21  and  C_22 
REMARK       I    between atoms: C_31  and  N_32 
REMARK    8  A    between atoms: N_32  and  C_33 
ROOT
HETATM    1  N   UNL     1      18.262  50.511  48.683  1.00  0.00    -0.323 N 
HETATM    2  C   UNL     1      19.064  50.040  49.723  1.00  0.00     0.271 C 
HETATM    3  O   UNL     1      18.578  49.769  50.822  1.00  0.00    -0.266 OA
ENDROOT
BRANCH   1   4
HETATM    4  C   UNL     1      16.833  50.725  48.995  1.00  0.00     0.237 C 
BRANCH   4   5
HETATM    5  C   UNL     1      15.973  50.022  47.979  1.00  0.00     0.085 A 
HETATM    6  O   UNL     1      15.457  50.730  46.928  1.00  0.00    -0.317 OA
HETATM    7  C   UNL     1      14.712  49.869  46.181  1.00  0.00     0.049 A 
HETATM    8  C   UNL     1      14.020  50.444  45.010  1.00  0.00     0.076 C 
HETATM    9  C   UNL     1      14.778  48.601  46.714  1.00  0.00     0.035 A 
HETATM   10  C   UNL     1      15.589  48.698  47.869  1.00  0.00     0.038 A 
ENDBRANCH   4   5
BRANCH   4  11
HETATM   11  C   UNL     1      16.517  52.211  49.317  1.00  0.00     0.247 C 
HETATM   12  N   UNL     1      15.300  52.714  48.929  1.00  0.00    -0.354 N 
HETATM   13  H   UNL     1      14.679  52.065  48.454  1.00  0.00     0.162 HD
HETATM   14  O   UNL     1      17.371  52.915  49.860  1.00  0.00    -0.271 OA
BRANCH  12  15
HETATM   15  C   UNL     1      14.788  54.071  49.107  1.00  0.00     0.084 C 
HETATM   16  C   UNL     1      14.182  54.682  47.835  1.00  0.00     0.025 C 
HETATM   17  C   UNL     1      12.671  54.523  47.690  1.00  0.00     0.002 C 
HETATM   18  C   UNL     1      11.930  54.900  48.967  1.00  0.00     0.000 C 
HETATM   19  C   UNL     1      12.430  54.100  50.162  1.00  0.00     0.002 C 
HETATM   20  C   UNL     1      13.934  54.257  50.368  1.00  0.00     0.025 C 
ENDBRANCH  12  15
ENDBRANCH   4  11
ENDBRANCH   1   4
BRANCH   1  21
HETATM   21  C   UNL     1      18.744  50.969  47.377  1.00  0.00     0.166 C 
BRANCH  21  22
HETATM   22  C   UNL     1      18.636  50.019  46.201  1.00  0.00    -0.037 A 
HETATM   23  C   UNL     1      18.989  48.672  46.424  1.00  0.00     0.048 A 
HETATM   24  C   UNL     1      18.936  47.788  45.367  1.00  0.00     0.105 A 
HETATM   25  C   UNL     1      18.560  48.187  44.109  1.00  0.00     0.105 A 
HETATM   26  O   UNL     1      19.238  46.463  45.424  1.00  0.00    -0.323 OA
HETATM   27  O   UNL     1      18.575  47.165  43.213  1.00  0.00    -0.323 OA
HETATM   28  C   UNL     1      18.214  49.491  43.842  1.00  0.00     0.040 A 
HETATM   29  C   UNL     1      19.011  46.077  44.052  1.00  0.00     0.352 A 
HETATM   30  C   UNL     1      18.252  50.410  44.900  1.00  0.00     0.012 A 
ENDBRANCH  21  22
ENDBRANCH   1  21
BRANCH   2  31
HETATM   31  C   UNL     1      20.500  49.942  49.560  1.00  0.00     0.101 A 
HETATM   32  N   UNL     1      21.098  48.700  49.492  1.00  0.00    -0.351 N 
HETATM   33  H   UNL     1      20.577  47.833  49.529  1.00  0.00     0.166 HD
HETATM   34  C   UNL     1      22.466  48.800  49.395  1.00  0.00     0.043 A 
HETATM   35  C   UNL     1      22.739  50.151  49.273  1.00  0.00     0.033 A 
HETATM   36  C   UNL     1      21.513  50.862  49.357  1.00  0.00     0.037 A 
BRANCH  34  37
HETATM   37  C   UNL     1      23.347  47.630  49.381  1.00  0.00    -0.009 A 
HETATM   38  C   UNL     1      22.907  46.413  48.844  1.00  0.00     0.013 A 
HETATM   39  C   UNL     1      23.743  45.292  48.834  1.00  0.00     0.001 A 
HETATM   40  C   UNL     1      25.031  45.376  49.358  1.00  0.00     0.000 A 
HETATM   41  C   UNL     1      25.486  46.580  49.889  1.00  0.00     0.001 A 
HETATM   42  C   UNL     1      24.651  47.700  49.899  1.00  0.00     0.013 A 
ENDBRANCH  34  37
ENDBRANCH   2  31
TORSDOF 8
ENDMDL
MODEL 8
REMARK VINA RESULT:      -9.8      2.345      6.827
REMARK  8 active torsions:
REMARK  status: ('A' for Active; 'I' for Inactive)
REMARK    1  A    between atoms: C_4  and  C_5 
REMARK    2  A    between atoms: C_5  and  N_6 
REMARK    3  A    between atoms: C_5  and  C_31 
REMARK       I    between atoms: N_6  and  C_7 
REMARK    4  A    between atoms: N_6  and  C_21 
REMARK    5  A    between atoms: C_7  and  C_8 
REMARK    6  A    between atoms: C_11  and  C_12 
REMARK    7  A    between atoms: C_21  and  C_22 
REMARK       I    between atoms: C_31  and  N_32 
REMARK    8  A    between atoms: N_32  and  C_33 
ROOT
HETATM    1  N   UNL     1      25.033  44.529  49.556  1.00  0.00    -0.323 N 
HETATM    2  C   UNL     1      24.074  43.705  48.964  1.00  0.00     0.271 C 
HETATM    3  O   UNL     1      22.872  43.924  49.119  1.00  0.00    -0.266 OA
ENDROOT
BRANCH   1   4
HETATM    4  C   UNL     1      24.528  45.618  50.417  1.00  0.00     0.237 C 
BRANCH   4   5
HETATM    5  C   UNL     1      24.989  46.950  49.888  1.00  0.00     0.085 A 
HETATM    6  O   UNL     1      26.327  47.226  49.833  1.00  0.00    -0.317 OA
HETATM    7  C   UNL     1      26.466  48.487  49.338  1.00  0.00     0.049 A 
HETATM    8  C   UNL     1      27.844  49.007  49.239  1.00  0.00     0.076 C 
HETATM    9  C   UNL     1      25.230  49.013  49.031  1.00  0.00     0.035 A 
HETATM   10  C   UNL     1      24.280  48.025  49.382  1.00  0.00     0.038 A 
ENDBRANCH   4   5
BRANCH   4  11
HETATM   11  C   UNL     1      24.737  45.320  51.927  1.00  0.00     0.247 C 
HETATM   12  N   UNL     1      25.475  46.210  52.667  1.00  0.00    -0.354 N 
HETATM   13  H   UNL     1      25.834  47.018  52.167  1.00  0.00     0.162 HD
HETATM   14  O   UNL     1      24.289  44.279  52.413  1.00  0.00    -0.271 OA
BRANCH  12  15
HETATM   15  C   UNL     1      25.815  46.136  54.086  1.00  0.00     0.084 C 
HETATM   16  C   UNL     1      26.784  44.997  54.438  1.00  0.00     0.025 C 
HETATM   17  C   UNL     1      28.260  45.385  54.479  1.00  0.00     0.002 C 
HETATM   18  C   UNL     1      28.495  46.661  55.276  1.00  0.00     0.000 C 
HETATM   19  C   UNL     1      27.663  47.818  54.740  1.00  0.00     0.002 C 
HETATM   20  C   UNL     1      26.174  47.489  54.715  1.00  0.00     0.025 C 
ENDBRANCH  12  15
ENDBRANCH   4  11
ENDBRANCH   1   4
BRANCH   1  21
HETATM   21  C   UNL     1      26.481  44.301  49.533  1.00  0.00     0.166 C 
BRANCH  21  22
HETATM   22  C   UNL     1      27.096  43.503  50.664  1.00  0.00    -0.037 A 
HETATM   23  C   UNL     1      28.375  43.895  51.112  1.00  0.00     0.048 A 
HETATM   24  C   UNL     1      28.979  43.169  52.117  1.00  0.00     0.105 A 
HETATM   25  C   UNL     1      28.375  42.074  52.681  1.00  0.00     0.105 A 
HETATM   26  O   UNL     1      30.201  43.425  52.656  1.00  0.00    -0.323 OA
HETATM   27  O   UNL     1      29.136  41.501  53.650  1.00  0.00    -0.323 OA
HETATM   28  C   UNL     1      27.131  41.650  52.273  1.00  0.00     0.040 A 
HETATM   29  C   UNL     1      30.295  42.359  53.624  1.00  0.00     0.352 A 
HETATM   30  C   UNL     1      26.491  42.374  51.259  1.00  0.00     0.012 A 
ENDBRANCH  21  22
ENDBRANCH   1  21
BRANCH   2  31
HETATM   31  C   UNL     1      24.471  42.523  48.227  1.00  0.00     0.101 A 
HETATM   32  N   UNL     1      25.111  41.491  48.881  1.00  0.00    -0.351 N 
HETATM   33  H   UNL     1      25.306  41.503  49.875  1.00  0.00     0.166 HD
HETATM   34  C   UNL     1      25.462  40.481  48.016  1.00  0.00     0.043 A 
HETATM   35  C   UNL     1      24.918  40.826  46.792  1.00  0.00     0.033 A 
HETATM   36  C   UNL     1      24.284  42.089  46.927  1.00  0.00     0.037 A 
BRANCH  34  37
HETATM   37  C   UNL     1      26.219  39.301  48.441  1.00  0.00    -0.009 A 
HETATM   38  C   UNL     1      27.304  39.428  49.318  1.00  0.00     0.013 A 
HETATM   39  C   UNL     1      28.033  38.304  49.721  1.00  0.00     0.001 A 
HETATM   40  C   UNL     1      27.681  37.039  49.255  1.00  0.00     0.000 A 
HETATM   41  C   UNL     1      26.601  36.895  48.389  1.00  0.00     0.001 A 
HETATM   42  C   UNL     1      25.873  38.018  47.986  1.00  0.00     0.013 A 
ENDBRANCH  34  37
ENDBRANCH   2  31
TORSDOF 8
ENDMDL
MODEL 9
REMARK VINA RESULT:      -9.8      1.906      5.140
REMARK  8 active torsions:
REMARK  status: ('A' for Active; 'I' for Inactive)
REMARK    1  A    between atoms: C_4  and  C_5 
REMARK    2  A    between atoms: C_5  and  N_6 
REMARK    3  A    between atoms: C_5  and  C_31 
REMARK       I    between atoms: N_6  and  C_7 
REMARK    4  A    between atoms: N_6  and  C_21 
REMARK    5  A    between atoms: C_7  and  C_8 
REMARK    6  A    between atoms: C_11  and  C_12 
REMARK    7  A    between atoms: C_21  and  C_22 
REMARK       I    between atoms: C_31  and  N_32 
REMARK    8  A    between atoms: N_32  and  C_33 
ROOT
HETATM    1  N   UNL     1      25.218  43.452  50.153  1.00  0.00    -0.323 N 
HETATM    2  C   UNL     1      25.015  43.421  51.534  1.00  0.00     0.271 C 
HETATM    3  O   UNL     1      24.203  42.643  52.036  1.00  0.00    -0.266 OA
ENDROOT
BRANCH   1   4
HETATM    4  C   UNL     1      24.366  42.559  49.340  1.00  0.00     0.237 C 
BRANCH   4   5
HETATM    5  C   UNL     1      25.205  41.832  48.323  1.00  0.00     0.085 A 
HETATM    6  O   UNL     1      24.640  41.441  47.141  1.00  0.00    -0.317 OA
HETATM    7  C   UNL     1      25.601  40.797  46.421  1.00  0.00     0.049 A 
HETATM    8  C   UNL     1      25.187  40.247  45.115  1.00  0.00     0.076 C 
HETATM    9  C   UNL     1      26.794  40.808  47.109  1.00  0.00     0.035 A 
HETATM   10  C   UNL     1      26.541  41.474  48.332  1.00  0.00     0.038 A 
ENDBRANCH   4   5
BRANCH   4  11
HETATM   11  C   UNL     1      23.073  43.266  48.850  1.00  0.00     0.247 C 
HETATM   12  N   UNL     1      22.977  43.591  47.520  1.00  0.00    -0.354 N 
HETATM   13  H   UNL     1      23.771  43.338  46.939  1.00  0.00     0.162 HD
HETATM   14  O   UNL     1      22.193  43.563  49.661  1.00  0.00    -0.271 OA
BRANCH  12  15
HETATM   15  C   UNL     1      21.876  44.265  46.835  1.00  0.00     0.084 C 
HETATM   16  C   UNL     1      22.326  45.345  45.839  1.00  0.00     0.025 C 
HETATM   17  C   UNL     1      22.460  44.881  44.391  1.00  0.00     0.002 C 
HETATM   18  C   UNL     1      21.245  44.086  43.930  1.00  0.00     0.000 C 
HETATM   19  C   UNL     1      20.976  42.895  44.839  1.00  0.00     0.002 C 
HETATM   20  C   UNL     1      20.799  43.315  46.296  1.00  0.00     0.025 C 
ENDBRANCH  12  15
ENDBRANCH   4  11
ENDBRANCH   1   4
BRANCH   1  21
HETATM   21  C   UNL     1      26.071  44.406  49.439  1.00  0.00     0.166 C 
BRANCH  21  22
HETATM   22  C   UNL     1      25.688  45.872  49.473  1.00  0.00    -0.037 A 
HETATM   23  C   UNL     1      24.319  46.186  49.348  1.00  0.00     0.048 A 
HETATM   24  C   UNL     1      23.939  47.512  49.340  1.00  0.00     0.105 A 
HETATM   25  C   UNL     1      24.857  48.527  49.440  1.00  0.00     0.105 A 
HETATM   26  O   UNL     1      22.664  47.971  49.233  1.00  0.00    -0.323 OA
HETATM   27  O   UNL     1      24.278  49.756  49.411  1.00  0.00    -0.323 OA
HETATM   28  C   UNL     1      26.203  48.270  49.557  1.00  0.00     0.040 A 
HETATM   29  C   UNL     1      22.889  49.397  49.274  1.00  0.00     0.352 A 
HETATM   30  C   UNL     1      26.617  46.931  49.575  1.00  0.00     0.012 A 
ENDBRANCH  21  22
ENDBRANCH   1  21
BRANCH   2  31
HETATM   31  C   UNL     1      25.693  44.365  52.400  1.00  0.00     0.101 A 
HETATM   32  N   UNL     1      26.895  44.017  52.982  1.00  0.00    -0.351 N 
HETATM   33  H   UNL     1      27.352  43.129  52.819  1.00  0.00     0.166 HD
HETATM   34  C   UNL     1      27.362  45.009  53.813  1.00  0.00     0.043 A 
HETATM   35  C   UNL     1      26.491  46.072  53.659  1.00  0.00     0.033 A 
HETATM   36  C   UNL     1      25.461  45.678  52.764  1.00  0.00     0.037 A 
BRANCH  34  37
HETATM   37  C   UNL     1      28.582  44.865  54.611  1.00  0.00    -0.009 A 
HETATM   38  C   UNL     1      29.383  43.722  54.488  1.00  0.00     0.013 A 
HETATM   39  C   UNL     1      30.545  43.578  55.253  1.00  0.00     0.001 A 
HETATM   40  C   UNL     1      30.922  44.578  56.146  1.00  0.00     0.000 A 
HETATM   41  C   UNL     1      30.141  45.723  56.275  1.00  0.00     0.001 A 
HETATM   42  C   UNL     1      28.980  45.867  55.511  1.00  0.00     0.013 A 
ENDBRANCH  34  37
ENDBRANCH   2  31
TORSDOF 8
ENDMDL
MODEL 10
REMARK VINA RESULT:      -9.8      5.901     10.627
REMARK  8 active torsions:
REMARK  status: ('A' for Active; 'I' for Inactive)
REMARK    1  A    between atoms: C_4  and  C_5 
REMARK    2  A    between atoms: C_5  and  N_6 
REMARK    3  A    between atoms: C_5  and  C_31 
REMARK       I    between atoms: N_6  and  C_7 
REMARK    4  A    between atoms: N_6  and  C_21 
REMARK    5  A    between atoms: C_7  and  C_8 
REMARK    6  A    between atoms: C_11  and  C_12 
REMARK    7  A    between atoms: C_21  and  C_22 
REMARK       I    between atoms: C_31  and  N_32 
REMARK    8  A    between atoms: N_32  and  C_33 
ROOT
HETATM    1  N   UNL     1      18.807  47.929  47.717  1.00  0.00    -0.323 N 
HETATM    2  C   UNL     1      19.413  48.192  48.946  1.00  0.00     0.271 C 
HETATM    3  O   UNL     1      18.958  47.720  49.989  1.00  0.00    -0.266 OA
ENDROOT
BRANCH   1   4
HETATM    4  C   UNL     1      17.571  47.120  47.750  1.00  0.00     0.237 C 
BRANCH   4   5
HETATM    5  C   UNL     1      17.705  45.935  46.831  1.00  0.00     0.085 A 
HETATM    6  O   UNL     1      16.912  45.853  45.719  1.00  0.00    -0.317 OA
HETATM    7  C   UNL     1      17.221  44.690  45.081  1.00  0.00     0.049 A 
HETATM    8  C   UNL     1      16.441  44.377  43.867  1.00  0.00     0.076 C 
HETATM    9  C   UNL     1      18.237  44.040  45.747  1.00  0.00     0.035 A 
HETATM   10  C   UNL     1      18.550  44.841  46.871  1.00  0.00     0.038 A 
ENDBRANCH   4   5
BRANCH   4  11
HETATM   11  C   UNL     1      16.292  47.994  47.634  1.00  0.00     0.247 C 
HETATM   12  N   UNL     1      15.509  47.851  46.515  1.00  0.00    -0.354 N 
HETATM   13  H   UNL     1      15.825  47.168  45.832  1.00  0.00     0.162 HD
HETATM   14  O   UNL     1      16.036  48.824  48.508  1.00  0.00    -0.271 OA
BRANCH  12  15
HETATM   15  C   UNL     1      14.280  48.566  46.179  1.00  0.00     0.084 C 
HETATM   16  C   UNL     1      14.513  49.961  45.577  1.00  0.00     0.025 C 
HETATM   17  C   UNL     1      14.531  50.018  44.051  1.00  0.00     0.002 C 
HETATM   18  C   UNL     1      13.355  49.271  43.436  1.00  0.00     0.000 C 
HETATM   19  C   UNL     1      13.303  47.824  43.906  1.00  0.00     0.002 C 
HETATM   20  C   UNL     1      13.247  47.717  45.427  1.00  0.00     0.025 C 
ENDBRANCH  12  15
ENDBRANCH   4  11
ENDBRANCH   1   4
BRANCH   1  21
HETATM   21  C   UNL     1      19.191  48.523  46.434  1.00  0.00     0.166 C 
BRANCH  21  22
HETATM   22  C   UNL     1      18.547  49.834  46.031  1.00  0.00    -0.037 A 
HETATM   23  C   UNL     1      18.357  50.065  44.653  1.00  0.00     0.048 A 
HETATM   24  C   UNL     1      17.805  51.263  44.250  1.00  0.00     0.105 A 
HETATM   25  C   UNL     1      17.447  52.233  45.151  1.00  0.00     0.105 A 
HETATM   26  O   UNL     1      17.556  51.629  42.964  1.00  0.00    -0.323 OA
HETATM   27  O   UNL     1      16.923  53.334  44.550  1.00  0.00    -0.323 OA
HETATM   28  C   UNL     1      17.618  52.055  46.504  1.00  0.00     0.040 A 
HETATM   29  C   UNL     1      17.002  52.947  43.164  1.00  0.00     0.352 A 
HETATM   30  C   UNL     1      18.170  50.844  46.943  1.00  0.00     0.012 A 
ENDBRANCH  21  22
ENDBRANCH   1  21
BRANCH   2  31
HETATM   31  C   UNL     1      20.541  49.098  49.033  1.00  0.00     0.101 A 
HETATM   32  N   UNL     1      21.822  48.615  48.860  1.00  0.00    -0.351 N 
HETATM   33  H   UNL     1      22.023  47.645  48.649  1.00  0.00     0.166 HD
HETATM   34  C   UNL     1      22.764  49.602  49.032  1.00  0.00     0.043 A 
HETATM   35  C   UNL     1      22.054  50.777  49.199  1.00  0.00     0.033 A 
HETATM   36  C   UNL     1      20.669  50.467  49.181  1.00  0.00     0.037 A 
BRANCH  34  37
HETATM   37  C   UNL     1      24.204  49.340  48.975  1.00  0.00    -0.009 A 
HETATM   38  C   UNL     1      24.766  48.282  49.702  1.00  0.00     0.013 A 
HETATM   39  C   UNL     1      26.141  48.033  49.655  1.00  0.00     0.001 A 
HETATM   40  C   UNL     1      26.971  48.837  48.877  1.00  0.00     0.000 A 
HETATM   41  C   UNL     1      26.427  49.888  48.143  1.00  0.00     0.001 A 
HETATM   42  C   UNL     1      25.053  50.137  48.190  1.00  0.00     0.013 A 
ENDBRANCH  34  37
ENDBRANCH   2  31
TORSDOF 8
ENDMDL
