MODEL 1
REMARK VINA RESULT:      -9.5      0.000      0.000
REMARK  4 active torsions:
REMARK  status: ('A' for Active; 'I' for Inactive)
REMARK    1  A    between atoms: C_6  and  C_7 
REMARK    2  A    between atoms: C_10  and  N_11 
REMARK       I    between atoms: N_11  and  C_12 
REMARK    3  A    between atoms: C_24  and  C_25 
REMARK       I    between atoms: C_25  and  N_26 
REMARK    4  A    between atoms: N_26  and  C_27 
ROOT
HETATM    1  C   UNL     1      26.578  49.774  48.463  1.00  0.00     0.070 C 
HETATM    2  C   UNL     1      25.107  49.455  48.558  1.00  0.00     0.037 C 
HETATM    3  N   UNL     1      24.258  50.404  47.997  1.00  0.00    -0.193 N 
HETATM    4  C   UNL     1      22.953  50.505  48.320  1.00  0.00     0.709 A 
HETATM    5  N   UNL     1      22.360  49.485  49.019  1.00  0.00    -0.165 N 
HETATM    6  C   UNL     1      23.066  48.247  49.372  1.00  0.00     0.182 C 
HETATM    7  N   UNL     1      22.123  51.495  48.109  1.00  0.00    -0.062 NA
HETATM    8  C   UNL     1      20.962  51.126  48.752  1.00  0.00     0.103 A 
HETATM    9  C   UNL     1      21.085  49.869  49.345  1.00  0.00     0.082 A 
HETATM   10  C   UNL     1      19.756  51.830  48.885  1.00  0.00     0.034 A 
HETATM   11  C   UNL     1      18.713  51.251  49.618  1.00  0.00     0.002 A 
HETATM   12  C   UNL     1      18.862  49.991  50.201  1.00  0.00     0.002 A 
HETATM   13  C   UNL     1      20.054  49.267  50.075  1.00  0.00     0.032 A 
HETATM   14  C   UNL     1      24.575  48.393  49.215  1.00  0.00     0.061 C 
HETATM   15  H   UNL     1      24.689  51.235  47.599  1.00  0.00     0.184 HD
ENDROOT
BRANCH   6  16
HETATM   16  C   UNL     1      22.502  47.079  48.564  1.00  0.00    -0.030 A 
HETATM   17  C   UNL     1      22.656  45.747  48.979  1.00  0.00     0.012 A 
HETATM   18  C   UNL     1      22.199  44.686  48.189  1.00  0.00     0.030 A 
HETATM   19  C   UNL     1      21.568  44.931  46.971  1.00  0.00     0.034 A 
HETATM   20  C   UNL     1      21.371  46.258  46.570  1.00  0.00     0.030 A 
HETATM   21  C   UNL     1      21.827  47.321  47.359  1.00  0.00     0.012 A 
BRANCH  19  22
HETATM   22  N   UNL     1      21.135  43.918  46.089  1.00  0.00    -0.328 N 
HETATM   23  C   UNL     1      19.908  43.278  46.079  1.00  0.00     0.218 C 
HETATM   24  C   UNL     1      19.847  42.178  45.048  1.00  0.00     0.117 C 
HETATM   25  O   UNL     1      18.934  43.535  46.776  1.00  0.00    -0.274 OA
HETATM   26  H   UNL     1      21.810  43.616  45.397  1.00  0.00     0.169 HD
ENDBRANCH  19  22
ENDBRANCH   6  16
BRANCH  14  27
HETATM   27  C   UNL     1      25.356  47.388  49.993  1.00  0.00     0.256 C 
HETATM   28  N   UNL     1      25.090  47.375  51.344  1.00  0.00    -0.323 N 
HETATM   29  H   UNL     1      24.479  48.099  51.699  1.00  0.00     0.169 HD
HETATM   30  O   UNL     1      26.173  46.694  49.397  1.00  0.00    -0.267 OA
BRANCH  28  31
HETATM   31  C   UNL     1      25.509  46.405  52.281  1.00  0.00     0.035 A 
HETATM   32  C   UNL     1      25.055  45.085  52.295  1.00  0.00     0.029 A 
HETATM   33  C   UNL     1      25.474  44.198  53.292  1.00  0.00     0.002 A 
HETATM   34  C   UNL     1      26.348  44.625  54.288  1.00  0.00     0.000 A 
HETATM   35  C   UNL     1      26.811  45.938  54.282  1.00  0.00     0.002 A 
HETATM   36  C   UNL     1      26.398  46.822  53.281  1.00  0.00     0.029 A 
ENDBRANCH  28  31
ENDBRANCH  14  27
TORSDOF 4
ENDMDL
MODEL 2
REMARK VINA RESULT:      -8.8      5.079      8.580
REMARK  4 active torsions:
REMARK  status: ('A' for Active; 'I' for Inactive)
REMARK    1  A    between atoms: C_6  and  C_7 
REMARK    2  A    between atoms: C_10  and  N_11 
REMARK       I    between atoms: N_11  and  C_12 
REMARK    3  A    between atoms: C_24  and  C_25 
REMARK       I    between atoms: C_25  and  N_26 
REMARK    4  A    between atoms: N_26  and  C_27 
ROOT
HETATM    1  C   UNL     1      17.605  45.990  48.077  1.00  0.00     0.070 C 
HETATM    2  C   UNL     1      17.220  47.373  47.615  1.00  0.00     0.037 C 
HETATM    3  N   UNL     1      16.062  47.438  46.845  1.00  0.00    -0.193 N 
HETATM    4  C   UNL     1      15.779  48.473  46.029  1.00  0.00     0.709 A 
HETATM    5  N   UNL     1      16.508  49.629  46.145  1.00  0.00    -0.165 N 
HETATM    6  C   UNL     1      17.540  49.820  47.173  1.00  0.00     0.182 C 
HETATM    7  N   UNL     1      14.909  48.545  45.054  1.00  0.00    -0.062 NA
HETATM    8  C   UNL     1      15.125  49.775  44.477  1.00  0.00     0.103 A 
HETATM    9  C   UNL     1      16.135  50.478  45.135  1.00  0.00     0.082 A 
HETATM   10  C   UNL     1      14.500  50.359  43.364  1.00  0.00     0.034 A 
HETATM   11  C   UNL     1      14.916  51.628  42.944  1.00  0.00     0.002 A 
HETATM   12  C   UNL     1      15.930  52.309  43.621  1.00  0.00     0.002 A 
HETATM   13  C   UNL     1      16.562  51.749  44.738  1.00  0.00     0.032 A 
HETATM   14  C   UNL     1      17.952  48.498  47.810  1.00  0.00     0.061 C 
HETATM   15  H   UNL     1      15.592  46.560  46.639  1.00  0.00     0.184 HD
ENDROOT
BRANCH   6  16
HETATM   16  C   UNL     1      17.067  50.846  48.201  1.00  0.00    -0.030 A 
HETATM   17  C   UNL     1      15.732  50.904  48.630  1.00  0.00     0.012 A 
HETATM   18  C   UNL     1      15.300  51.899  49.516  1.00  0.00     0.030 A 
HETATM   19  C   UNL     1      16.194  52.852  50.001  1.00  0.00     0.034 A 
HETATM   20  C   UNL     1      17.536  52.774  49.612  1.00  0.00     0.030 A 
HETATM   21  C   UNL     1      17.971  51.780  48.727  1.00  0.00     0.012 A 
BRANCH  19  22
HETATM   22  N   UNL     1      15.826  53.921  50.845  1.00  0.00    -0.328 N 
HETATM   23  C   UNL     1      15.196  55.099  50.485  1.00  0.00     0.218 C 
HETATM   24  C   UNL     1      15.054  56.049  51.648  1.00  0.00     0.117 C 
HETATM   25  O   UNL     1      14.756  55.395  49.380  1.00  0.00    -0.274 OA
HETATM   26  H   UNL     1      16.069  53.817  51.822  1.00  0.00     0.169 HD
ENDBRANCH  19  22
ENDBRANCH   6  16
BRANCH  14  27
HETATM   27  C   UNL     1      19.286  48.548  48.477  1.00  0.00     0.256 C 
HETATM   28  N   UNL     1      20.350  48.714  47.620  1.00  0.00    -0.323 N 
HETATM   29  H   UNL     1      20.151  48.687  46.628  1.00  0.00     0.169 HD
HETATM   30  O   UNL     1      19.336  48.409  49.694  1.00  0.00    -0.267 OA
BRANCH  28  31
HETATM   31  C   UNL     1      21.686  49.007  47.973  1.00  0.00     0.035 A 
HETATM   32  C   UNL     1      22.555  48.093  48.573  1.00  0.00     0.029 A 
HETATM   33  C   UNL     1      23.847  48.477  48.944  1.00  0.00     0.002 A 
HETATM   34  C   UNL     1      24.281  49.781  48.724  1.00  0.00     0.000 A 
HETATM   35  C   UNL     1      23.426  50.700  48.123  1.00  0.00     0.002 A 
HETATM   36  C   UNL     1      22.137  50.314  47.745  1.00  0.00     0.029 A 
ENDBRANCH  28  31
ENDBRANCH  14  27
TORSDOF 4
ENDMDL
MODEL 3
REMARK VINA RESULT:      -8.8      4.854      8.384
REMARK  4 active torsions:
REMARK  status: ('A' for Active; 'I' for Inactive)
REMARK    1  A    between atoms: C_6  and  C_7 
REMARK    2  A    between atoms: C_10  and  N_11 
REMARK       I    between atoms: N_11  and  C_12 
REMARK    3  A    between atoms: C_24  and  C_25 
REMARK       I    between atoms: C_25  and  N_26 
REMARK    4  A    between atoms: N_26  and  C_27 
ROOT
HETATM    1  C   UNL     1      28.400  40.766  53.623  1.00  0.00     0.070 C 
HETATM    2  C   UNL     1      27.930  40.976  52.205  1.00  0.00     0.037 C 
HETATM    3  N   UNL     1      27.699  39.811  51.479  1.00  0.00    -0.193 N 
HETATM    4  C   UNL     1      27.668  39.779  50.132  1.00  0.00     0.709 A 
HETATM    5  N   UNL     1      27.594  40.961  49.440  1.00  0.00    -0.165 N 
HETATM    6  C   UNL     1      27.473  42.265  50.104  1.00  0.00     0.182 C 
HETATM    7  N   UNL     1      27.754  38.750  49.327  1.00  0.00    -0.062 NA
HETATM    8  C   UNL     1      27.798  39.294  48.063  1.00  0.00     0.103 A 
HETATM    9  C   UNL     1      27.711  40.686  48.102  1.00  0.00     0.082 A 
HETATM   10  C   UNL     1      27.929  38.652  46.822  1.00  0.00     0.034 A 
HETATM   11  C   UNL     1      27.977  39.431  45.659  1.00  0.00     0.002 A 
HETATM   12  C   UNL     1      27.889  40.823  45.728  1.00  0.00     0.002 A 
HETATM   13  C   UNL     1      27.749  41.484  46.954  1.00  0.00     0.032 A 
HETATM   14  C   UNL     1      27.817  42.178  51.586  1.00  0.00     0.061 C 
HETATM   15  H   UNL     1      27.888  38.928  51.947  1.00  0.00     0.184 HD
ENDROOT
BRANCH   6  16
HETATM   16  C   UNL     1      26.081  42.846  49.857  1.00  0.00    -0.030 A 
HETATM   17  C   UNL     1      25.898  44.113  49.280  1.00  0.00     0.012 A 
HETATM   18  C   UNL     1      24.618  44.661  49.130  1.00  0.00     0.030 A 
HETATM   19  C   UNL     1      23.492  43.952  49.544  1.00  0.00     0.034 A 
HETATM   20  C   UNL     1      23.663  42.670  50.079  1.00  0.00     0.030 A 
HETATM   21  C   UNL     1      24.941  42.119  50.230  1.00  0.00     0.012 A 
BRANCH  19  22
HETATM   22  N   UNL     1      22.177  44.458  49.485  1.00  0.00    -0.328 N 
HETATM   23  C   UNL     1      21.402  44.661  48.356  1.00  0.00     0.218 C 
HETATM   24  C   UNL     1      20.080  45.312  48.681  1.00  0.00     0.117 C 
HETATM   25  O   UNL     1      21.679  44.352  47.203  1.00  0.00    -0.274 OA
HETATM   26  H   UNL     1      21.763  44.719  50.371  1.00  0.00     0.169 HD
ENDBRANCH  19  22
ENDBRANCH   6  16
BRANCH  14  27
HETATM   27  C   UNL     1      28.182  43.492  52.191  1.00  0.00     0.256 C 
HETATM   28  N   UNL     1      27.138  44.155  52.796  1.00  0.00    -0.323 N 
HETATM   29  H   UNL     1      26.216  43.752  52.694  1.00  0.00     0.169 HD
HETATM   30  O   UNL     1      29.338  43.887  52.079  1.00  0.00    -0.267 OA
BRANCH  28  31
HETATM   31  C   UNL     1      27.224  45.295  53.625  1.00  0.00     0.035 A 
HETATM   32  C   UNL     1      28.108  45.415  54.700  1.00  0.00     0.029 A 
HETATM   33  C   UNL     1      28.094  46.556  55.510  1.00  0.00     0.002 A 
HETATM   34  C   UNL     1      27.191  47.585  55.255  1.00  0.00     0.000 A 
HETATM   35  C   UNL     1      26.309  47.479  54.184  1.00  0.00     0.002 A 
HETATM   36  C   UNL     1      26.328  46.342  53.371  1.00  0.00     0.029 A 
ENDBRANCH  28  31
ENDBRANCH  14  27
TORSDOF 4
ENDMDL
MODEL 4
REMARK VINA RESULT:      -8.7      3.270      8.722
REMARK  4 active torsions:
REMARK  status: ('A' for Active; 'I' for Inactive)
REMARK    1  A    between atoms: C_6  and  C_7 
REMARK    2  A    between atoms: C_10  and  N_11 
REMARK       I    between atoms: N_11  and  C_12 
REMARK    3  A    between atoms: C_24  and  C_25 
REMARK       I    between atoms: C_25  and  N_26 
REMARK    4  A    between atoms: N_26  and  C_27 
ROOT
HETATM    1  C   UNL     1      24.674  40.809  48.009  1.00  0.00     0.070 C 
HETATM    2  C   UNL     1      25.309  41.691  49.055  1.00  0.00     0.037 C 
HETATM    3  N   UNL     1      26.627  41.379  49.372  1.00  0.00    -0.193 N 
HETATM    4  C   UNL     1      27.219  41.767  50.520  1.00  0.00     0.709 A 
HETATM    5  N   UNL     1      26.609  42.724  51.291  1.00  0.00    -0.165 N 
HETATM    6  C   UNL     1      25.371  43.402  50.886  1.00  0.00     0.182 C 
HETATM    7  N   UNL     1      28.315  41.320  51.078  1.00  0.00    -0.062 NA
HETATM    8  C   UNL     1      28.386  41.972  52.289  1.00  0.00     0.103 A 
HETATM    9  C   UNL     1      27.318  42.854  52.457  1.00  0.00     0.082 A 
HETATM   10  C   UNL     1      29.336  41.846  53.314  1.00  0.00     0.034 A 
HETATM   11  C   UNL     1      29.178  42.605  54.479  1.00  0.00     0.002 A 
HETATM   12  C   UNL     1      28.100  43.481  54.621  1.00  0.00     0.002 A 
HETATM   13  C   UNL     1      27.144  43.629  53.609  1.00  0.00     0.032 A 
HETATM   14  C   UNL     1      24.672  42.669  49.748  1.00  0.00     0.061 C 
HETATM   15  H   UNL     1      27.040  40.577  48.901  1.00  0.00     0.184 HD
ENDROOT
BRANCH   6  16
HETATM   16  C   UNL     1      25.665  44.864  50.550  1.00  0.00    -0.030 A 
HETATM   17  C   UNL     1      24.808  45.903  50.947  1.00  0.00     0.012 A 
HETATM   18  C   UNL     1      25.053  47.227  50.566  1.00  0.00     0.030 A 
HETATM   19  C   UNL     1      26.166  47.547  49.790  1.00  0.00     0.034 A 
HETATM   20  C   UNL     1      27.050  46.523  49.428  1.00  0.00     0.030 A 
HETATM   21  C   UNL     1      26.807  45.197  49.808  1.00  0.00     0.012 A 
BRANCH  19  22
HETATM   22  N   UNL     1      26.450  48.844  49.314  1.00  0.00    -0.328 N 
HETATM   23  C   UNL     1      25.695  49.602  48.437  1.00  0.00     0.218 C 
HETATM   24  C   UNL     1      26.369  50.904  48.082  1.00  0.00     0.117 C 
HETATM   25  O   UNL     1      24.591  49.327  47.982  1.00  0.00    -0.274 OA
HETATM   26  H   UNL     1      27.316  49.255  49.639  1.00  0.00     0.169 HD
ENDBRANCH  19  22
ENDBRANCH   6  16
BRANCH  14  27
HETATM   27  C   UNL     1      23.224  43.004  49.623  1.00  0.00     0.256 C 
HETATM   28  N   UNL     1      22.918  43.847  48.578  1.00  0.00    -0.323 N 
HETATM   29  H   UNL     1      23.694  44.236  48.059  1.00  0.00     0.169 HD
HETATM   30  O   UNL     1      22.444  42.548  50.453  1.00  0.00    -0.267 OA
BRANCH  28  31
HETATM   31  C   UNL     1      21.630  44.160  48.090  1.00  0.00     0.035 A 
HETATM   32  C   UNL     1      21.102  43.658  46.898  1.00  0.00     0.029 A 
HETATM   33  C   UNL     1      19.838  44.060  46.454  1.00  0.00     0.002 A 
HETATM   34  C   UNL     1      19.092  44.973  47.195  1.00  0.00     0.000 A 
HETATM   35  C   UNL     1      19.606  45.476  48.387  1.00  0.00     0.002 A 
HETATM   36  C   UNL     1      20.866  45.068  48.834  1.00  0.00     0.029 A 
ENDBRANCH  28  31
ENDBRANCH  14  27
TORSDOF 4
ENDMDL
MODEL 5
REMARK VINA RESULT:      -8.5     20.646     24.818
REMARK  4 active torsions:
REMARK  status: ('A' for Active; 'I' for Inactive)
REMARK    1  A    between atoms: C_6  and  C_7 
REMARK    2  A    between atoms: C_10  and  N_11 
REMARK       I    between atoms: N_11  and  C_12 
REMARK    3  A    between atoms: C_24  and  C_25 
REMARK       I    between atoms: C_25  and  N_26 
REMARK    4  A    between atoms: N_26  and  C_27 
ROOT
HETATM    1  C   UNL     1      36.643  45.970  63.449  1.00  0.00     0.070 C 
HETATM    2  C   UNL     1      37.739  45.025  63.872  1.00  0.00     0.037 C 
HETATM    3  N   UNL     1      37.837  43.857  63.122  1.00  0.00    -0.193 N 
HETATM    4  C   UNL     1      38.456  42.746  63.568  1.00  0.00     0.709 A 
HETATM    5  N   UNL     1      39.252  42.831  64.682  1.00  0.00    -0.165 N 
HETATM    6  C   UNL     1      39.521  44.099  65.372  1.00  0.00     0.182 C 
HETATM    7  N   UNL     1      38.378  41.519  63.120  1.00  0.00    -0.062 NA
HETATM    8  C   UNL     1      39.105  40.769  64.017  1.00  0.00     0.103 A 
HETATM    9  C   UNL     1      39.659  41.566  65.019  1.00  0.00     0.082 A 
HETATM   10  C   UNL     1      39.325  39.383  64.047  1.00  0.00     0.034 A 
HETATM   11  C   UNL     1      40.088  38.842  65.088  1.00  0.00     0.002 A 
HETATM   12  C   UNL     1      40.630  39.663  66.079  1.00  0.00     0.002 A 
HETATM   13  C   UNL     1      40.430  41.049  66.065  1.00  0.00     0.032 A 
HETATM   14  C   UNL     1      38.543  45.189  64.953  1.00  0.00     0.061 C 
HETATM   15  H   UNL     1      37.154  43.725  62.378  1.00  0.00     0.184 HD
ENDROOT
BRANCH   6  16
HETATM   16  C   UNL     1      40.979  44.505  65.162  1.00  0.00    -0.030 A 
HETATM   17  C   UNL     1      41.450  44.963  63.921  1.00  0.00     0.012 A 
HETATM   18  C   UNL     1      42.804  45.259  63.726  1.00  0.00     0.030 A 
HETATM   19  C   UNL     1      43.718  45.115  64.769  1.00  0.00     0.034 A 
HETATM   20  C   UNL     1      43.249  44.701  66.021  1.00  0.00     0.030 A 
HETATM   21  C   UNL     1      41.895  44.405  66.219  1.00  0.00     0.012 A 
BRANCH  19  22
HETATM   22  N   UNL     1      45.105  45.332  64.637  1.00  0.00    -0.328 N 
HETATM   23  C   UNL     1      45.777  46.541  64.689  1.00  0.00     0.218 C 
HETATM   24  C   UNL     1      47.251  46.387  64.407  1.00  0.00     0.117 C 
HETATM   25  O   UNL     1      45.303  47.640  64.952  1.00  0.00    -0.274 OA
HETATM   26  H   UNL     1      45.668  44.508  64.466  1.00  0.00     0.169 HD
ENDBRANCH  19  22
ENDBRANCH   6  16
BRANCH  14  27
HETATM   27  C   UNL     1      38.444  46.311  65.932  1.00  0.00     0.256 C 
HETATM   28  N   UNL     1      38.994  47.497  65.502  1.00  0.00    -0.323 N 
HETATM   29  H   UNL     1      39.494  47.481  64.623  1.00  0.00     0.169 HD
HETATM   30  O   UNL     1      37.929  46.091  67.023  1.00  0.00    -0.267 OA
BRANCH  28  31
HETATM   31  C   UNL     1      38.861  48.764  66.113  1.00  0.00     0.035 A 
HETATM   32  C   UNL     1      39.494  49.127  67.305  1.00  0.00     0.029 A 
HETATM   33  C   UNL     1      39.267  50.383  67.877  1.00  0.00     0.002 A 
HETATM   34  C   UNL     1      38.401  51.286  67.266  1.00  0.00     0.000 A 
HETATM   35  C   UNL     1      37.768  50.937  66.076  1.00  0.00     0.002 A 
HETATM   36  C   UNL     1      38.001  49.684  65.501  1.00  0.00     0.029 A 
ENDBRANCH  28  31
ENDBRANCH  14  27
TORSDOF 4
ENDMDL
MODEL 6
REMARK VINA RESULT:      -8.4      2.019      2.168
REMARK  4 active torsions:
REMARK  status: ('A' for Active; 'I' for Inactive)
REMARK    1  A    between atoms: C_6  and  C_7 
REMARK    2  A    between atoms: C_10  and  N_11 
REMARK       I    between atoms: N_11  and  C_12 
REMARK    3  A    between atoms: C_24  and  C_25 
REMARK       I    between atoms: C_25  and  N_26 
REMARK    4  A    between atoms: N_26  and  C_27 
ROOT
HETATM    1  C   UNL     1      25.661  49.582  48.550  1.00  0.00     0.070 C 
HETATM    2  C   UNL     1      24.165  49.393  48.569  1.00  0.00     0.037 C 
HETATM    3  N   UNL     1      23.428  50.440  48.025  1.00  0.00    -0.193 N 
HETATM    4  C   UNL     1      22.124  50.643  48.301  1.00  0.00     0.709 A 
HETATM    5  N   UNL     1      21.414  49.647  48.922  1.00  0.00    -0.165 N 
HETATM    6  C   UNL     1      21.992  48.335  49.237  1.00  0.00     0.182 C 
HETATM    7  N   UNL     1      21.394  51.712  48.109  1.00  0.00    -0.062 NA
HETATM    8  C   UNL     1      20.179  51.418  48.685  1.00  0.00     0.103 A 
HETATM    9  C   UNL     1      20.164  50.128  49.216  1.00  0.00     0.082 A 
HETATM   10  C   UNL     1      19.034  52.220  48.807  1.00  0.00     0.034 A 
HETATM   11  C   UNL     1      17.913  51.702  49.466  1.00  0.00     0.002 A 
HETATM   12  C   UNL     1      17.925  50.407  49.989  1.00  0.00     0.002 A 
HETATM   13  C   UNL     1      19.053  49.587  49.872  1.00  0.00     0.032 A 
HETATM   14  C   UNL     1      23.514  48.352  49.148  1.00  0.00     0.061 C 
HETATM   15  H   UNL     1      23.948  51.247  47.688  1.00  0.00     0.184 HD
ENDROOT
BRANCH   6  16
HETATM   16  C   UNL     1      21.364  47.263  48.348  1.00  0.00    -0.030 A 
HETATM   17  C   UNL     1      21.614  47.204  46.968  1.00  0.00     0.012 A 
HETATM   18  C   UNL     1      20.971  46.262  46.156  1.00  0.00     0.030 A 
HETATM   19  C   UNL     1      20.071  45.350  46.705  1.00  0.00     0.034 A 
HETATM   20  C   UNL     1      19.850  45.374  48.087  1.00  0.00     0.030 A 
HETATM   21  C   UNL     1      20.492  46.314  48.902  1.00  0.00     0.012 A 
BRANCH  19  22
HETATM   22  N   UNL     1      19.337  44.413  45.949  1.00  0.00    -0.328 N 
HETATM   23  C   UNL     1      19.814  43.267  45.336  1.00  0.00     0.218 C 
HETATM   24  C   UNL     1      18.748  42.565  44.531  1.00  0.00     0.117 C 
HETATM   25  O   UNL     1      20.945  42.802  45.414  1.00  0.00    -0.274 OA
HETATM   26  H   UNL     1      18.353  44.616  45.827  1.00  0.00     0.169 HD
ENDBRANCH  19  22
ENDBRANCH   6  16
BRANCH  14  27
HETATM   27  C   UNL     1      24.168  47.244  49.903  1.00  0.00     0.256 C 
HETATM   28  N   UNL     1      24.144  46.024  49.265  1.00  0.00    -0.323 N 
HETATM   29  H   UNL     1      23.611  45.963  48.407  1.00  0.00     0.169 HD
HETATM   30  O   UNL     1      24.632  47.486  51.012  1.00  0.00    -0.267 OA
BRANCH  28  31
HETATM   31  C   UNL     1      24.860  44.862  49.631  1.00  0.00     0.035 A 
HETATM   32  C   UNL     1      24.258  43.676  50.058  1.00  0.00     0.029 A 
HETATM   33  C   UNL     1      25.038  42.586  50.457  1.00  0.00     0.002 A 
HETATM   34  C   UNL     1      26.427  42.673  50.438  1.00  0.00     0.000 A 
HETATM   35  C   UNL     1      27.038  43.849  50.010  1.00  0.00     0.002 A 
HETATM   36  C   UNL     1      26.258  44.935  49.604  1.00  0.00     0.029 A 
ENDBRANCH  28  31
ENDBRANCH  14  27
TORSDOF 4
ENDMDL
MODEL 7
REMARK VINA RESULT:      -8.4      3.397      7.558
REMARK  4 active torsions:
REMARK  status: ('A' for Active; 'I' for Inactive)
REMARK    1  A    between atoms: C_6  and  C_7 
REMARK    2  A    between atoms: C_10  and  N_11 
REMARK       I    between atoms: N_11  and  C_12 
REMARK    3  A    between atoms: C_24  and  C_25 
REMARK       I    between atoms: C_25  and  N_26 
REMARK    4  A    between atoms: N_26  and  C_27 
ROOT
HETATM    1  C   UNL     1      26.529  45.339  54.260  1.00  0.00     0.070 C 
HETATM    2  C   UNL     1      26.376  44.554  52.982  1.00  0.00     0.037 C 
HETATM    3  N   UNL     1      26.519  43.176  53.112  1.00  0.00    -0.193 N 
HETATM    4  C   UNL     1      26.811  42.365  52.074  1.00  0.00     0.709 A 
HETATM    5  N   UNL     1      26.705  42.856  50.798  1.00  0.00    -0.165 N 
HETATM    6  C   UNL     1      26.215  44.209  50.503  1.00  0.00     0.182 C 
HETATM    7  N   UNL     1      27.252  41.134  52.086  1.00  0.00    -0.062 NA
HETATM    8  C   UNL     1      27.500  40.835  50.764  1.00  0.00     0.103 A 
HETATM    9  C   UNL     1      27.176  41.905  49.930  1.00  0.00     0.082 A 
HETATM   10  C   UNL     1      28.024  39.662  50.200  1.00  0.00     0.034 A 
HETATM   11  C   UNL     1      28.212  39.605  48.813  1.00  0.00     0.002 A 
HETATM   12  C   UNL     1      27.879  40.691  48.001  1.00  0.00     0.002 A 
HETATM   13  C   UNL     1      27.348  41.868  48.542  1.00  0.00     0.032 A 
HETATM   14  C   UNL     1      26.212  45.091  51.746  1.00  0.00     0.061 C 
HETATM   15  H   UNL     1      26.738  42.818  54.039  1.00  0.00     0.184 HD
ENDROOT
BRANCH   6  16
HETATM   16  C   UNL     1      24.843  44.131  49.835  1.00  0.00    -0.030 A 
HETATM   17  C   UNL     1      24.681  44.309  48.452  1.00  0.00     0.012 A 
HETATM   18  C   UNL     1      23.409  44.310  47.867  1.00  0.00     0.030 A 
HETATM   19  C   UNL     1      22.270  44.121  48.648  1.00  0.00     0.034 A 
HETATM   20  C   UNL     1      22.427  43.899  50.022  1.00  0.00     0.030 A 
HETATM   21  C   UNL     1      23.697  43.897  50.609  1.00  0.00     0.012 A 
BRANCH  19  22
HETATM   22  N   UNL     1      20.953  44.170  48.147  1.00  0.00    -0.328 N 
HETATM   23  C   UNL     1      20.107  45.264  48.108  1.00  0.00     0.218 C 
HETATM   24  C   UNL     1      18.736  44.907  47.589  1.00  0.00     0.117 C 
HETATM   25  O   UNL     1      20.376  46.419  48.417  1.00  0.00    -0.274 OA
HETATM   26  H   UNL     1      20.582  43.297  47.793  1.00  0.00     0.169 HD
ENDBRANCH  19  22
ENDBRANCH   6  16
BRANCH  14  27
HETATM   27  C   UNL     1      26.201  46.551  51.441  1.00  0.00     0.256 C 
HETATM   28  N   UNL     1      26.482  46.865  50.130  1.00  0.00    -0.323 N 
HETATM   29  H   UNL     1      26.764  46.105  49.525  1.00  0.00     0.169 HD
HETATM   30  O   UNL     1      25.983  47.338  52.355  1.00  0.00    -0.267 OA
BRANCH  28  31
HETATM   31  C   UNL     1      26.334  48.125  49.509  1.00  0.00     0.035 A 
HETATM   32  C   UNL     1      25.116  48.634  49.053  1.00  0.00     0.029 A 
HETATM   33  C   UNL     1      25.060  49.868  48.398  1.00  0.00     0.002 A 
HETATM   34  C   UNL     1      26.223  50.603  48.186  1.00  0.00     0.000 A 
HETATM   35  C   UNL     1      27.443  50.108  48.640  1.00  0.00     0.002 A 
HETATM   36  C   UNL     1      27.497  48.879  49.303  1.00  0.00     0.029 A 
ENDBRANCH  28  31
ENDBRANCH  14  27
TORSDOF 4
ENDMDL
MODEL 8
REMARK VINA RESULT:      -8.3      4.125      8.279
REMARK  4 active torsions:
REMARK  status: ('A' for Active; 'I' for Inactive)
REMARK    1  A    between atoms: C_6  and  C_7 
REMARK    2  A    between atoms: C_10  and  N_11 
REMARK       I    between atoms: N_11  and  C_12 
REMARK    3  A    between atoms: C_24  and  C_25 
REMARK       I    between atoms: C_25  and  N_26 
REMARK    4  A    between atoms: N_26  and  C_27 
ROOT
HETATM    1  C   UNL     1      26.618  45.302  53.022  1.00  0.00     0.070 C 
HETATM    2  C   UNL     1      26.714  44.112  52.101  1.00  0.00     0.037 C 
HETATM    3  N   UNL     1      27.017  42.904  52.723  1.00  0.00    -0.193 N 
HETATM    4  C   UNL     1      27.527  41.844  52.063  1.00  0.00     0.709 A 
HETATM    5  N   UNL     1      27.505  41.843  50.692  1.00  0.00    -0.165 N 
HETATM    6  C   UNL     1      26.882  42.914  49.904  1.00  0.00     0.182 C 
HETATM    7  N   UNL     1      28.119  40.779  52.540  1.00  0.00    -0.062 NA
HETATM    8  C   UNL     1      28.552  40.089  51.431  1.00  0.00     0.103 A 
HETATM    9  C   UNL     1      28.190  40.740  50.251  1.00  0.00     0.082 A 
HETATM   10  C   UNL     1      29.282  38.893  51.355  1.00  0.00     0.034 A 
HETATM   11  C   UNL     1      29.633  38.394  50.095  1.00  0.00     0.002 A 
HETATM   12  C   UNL     1      29.258  39.066  48.930  1.00  0.00     0.002 A 
HETATM   13  C   UNL     1      28.523  40.256  48.981  1.00  0.00     0.032 A 
HETATM   14  C   UNL     1      26.624  44.157  50.747  1.00  0.00     0.061 C 
HETATM   15  H   UNL     1      27.173  42.927  53.728  1.00  0.00     0.184 HD
ENDROOT
BRANCH   6  16
HETATM   16  C   UNL     1      25.617  42.392  49.225  1.00  0.00    -0.030 A 
HETATM   17  C   UNL     1      24.359  42.467  49.842  1.00  0.00     0.012 A 
HETATM   18  C   UNL     1      23.223  41.915  49.238  1.00  0.00     0.030 A 
HETATM   19  C   UNL     1      23.315  41.287  47.997  1.00  0.00     0.034 A 
HETATM   20  C   UNL     1      24.558  41.247  47.355  1.00  0.00     0.030 A 
HETATM   21  C   UNL     1      25.696  41.798  47.957  1.00  0.00     0.012 A 
BRANCH  19  22
HETATM   22  N   UNL     1      22.233  40.653  47.351  1.00  0.00    -0.328 N 
HETATM   23  C   UNL     1      21.456  41.156  46.322  1.00  0.00     0.218 C 
HETATM   24  C   UNL     1      20.325  40.227  45.956  1.00  0.00     0.117 C 
HETATM   25  O   UNL     1      21.621  42.207  45.716  1.00  0.00    -0.274 OA
HETATM   26  H   UNL     1      21.989  39.733  47.696  1.00  0.00     0.169 HD
ENDBRANCH  19  22
ENDBRANCH   6  16
BRANCH  14  27
HETATM   27  C   UNL     1      26.461  45.402  49.941  1.00  0.00     0.256 C 
HETATM   28  N   UNL     1      25.215  45.982  50.028  1.00  0.00    -0.323 N 
HETATM   29  H   UNL     1      24.505  45.473  50.538  1.00  0.00     0.169 HD
HETATM   30  O   UNL     1      27.404  45.783  49.256  1.00  0.00    -0.267 OA
BRANCH  28  31
HETATM   31  C   UNL     1      24.840  47.259  49.555  1.00  0.00     0.035 A 
HETATM   32  C   UNL     1      23.537  47.604  49.187  1.00  0.00     0.029 A 
HETATM   33  C   UNL     1      23.255  48.875  48.675  1.00  0.00     0.002 A 
HETATM   34  C   UNL     1      24.274  49.810  48.521  1.00  0.00     0.000 A 
HETATM   35  C   UNL     1      25.576  49.479  48.888  1.00  0.00     0.002 A 
HETATM   36  C   UNL     1      25.856  48.212  49.407  1.00  0.00     0.029 A 
ENDBRANCH  28  31
ENDBRANCH  14  27
TORSDOF 4
ENDMDL
MODEL 9
REMARK VINA RESULT:      -8.3     21.823     24.994
REMARK  4 active torsions:
REMARK  status: ('A' for Active; 'I' for Inactive)
REMARK    1  A    between atoms: C_6  and  C_7 
REMARK    2  A    between atoms: C_10  and  N_11 
REMARK       I    between atoms: N_11  and  C_12 
REMARK    3  A    between atoms: C_24  and  C_25 
REMARK       I    between atoms: C_25  and  N_26 
REMARK    4  A    between atoms: N_26  and  C_27 
ROOT
HETATM    1  C   UNL     1      40.387  43.544  63.171  1.00  0.00     0.070 C 
HETATM    2  C   UNL     1      40.996  44.678  63.956  1.00  0.00     0.037 C 
HETATM    3  N   UNL     1      42.203  45.162  63.459  1.00  0.00    -0.193 N 
HETATM    4  C   UNL     1      43.077  45.866  64.206  1.00  0.00     0.709 A 
HETATM    5  N   UNL     1      42.666  46.362  65.417  1.00  0.00    -0.165 N 
HETATM    6  C   UNL     1      41.289  46.223  65.909  1.00  0.00     0.182 C 
HETATM    7  N   UNL     1      44.339  46.126  63.978  1.00  0.00    -0.062 NA
HETATM    8  C   UNL     1      44.779  46.765  65.115  1.00  0.00     0.103 A 
HETATM    9  C   UNL     1      43.751  46.917  66.046  1.00  0.00     0.082 A 
HETATM   10  C   UNL     1      46.063  47.233  65.433  1.00  0.00     0.034 A 
HETATM   11  C   UNL     1      46.275  47.833  66.680  1.00  0.00     0.002 A 
HETATM   12  C   UNL     1      45.227  47.972  67.593  1.00  0.00     0.002 A 
HETATM   13  C   UNL     1      43.937  47.520  67.295  1.00  0.00     0.032 A 
HETATM   14  C   UNL     1      40.513  45.173  65.124  1.00  0.00     0.061 C 
HETATM   15  H   UNL     1      42.583  44.701  62.635  1.00  0.00     0.184 HD
ENDROOT
BRANCH   6  16
HETATM   16  C   UNL     1      40.598  47.586  65.910  1.00  0.00    -0.030 A 
HETATM   17  C   UNL     1      40.169  48.201  64.724  1.00  0.00     0.012 A 
HETATM   18  C   UNL     1      39.606  49.483  64.737  1.00  0.00     0.030 A 
HETATM   19  C   UNL     1      39.449  50.175  65.936  1.00  0.00     0.034 A 
HETATM   20  C   UNL     1      39.835  49.551  67.128  1.00  0.00     0.030 A 
HETATM   21  C   UNL     1      40.397  48.269  67.119  1.00  0.00     0.012 A 
BRANCH  19  22
HETATM   22  N   UNL     1      38.950  51.491  66.027  1.00  0.00    -0.328 N 
HETATM   23  C   UNL     1      37.867  51.931  66.767  1.00  0.00     0.218 C 
HETATM   24  C   UNL     1      37.574  53.393  66.536  1.00  0.00     0.117 C 
HETATM   25  O   UNL     1      37.195  51.277  67.556  1.00  0.00    -0.274 OA
HETATM   26  H   UNL     1      39.431  52.187  65.471  1.00  0.00     0.169 HD
ENDBRANCH  19  22
ENDBRANCH   6  16
BRANCH  14  27
HETATM   27  C   UNL     1      39.321  44.645  65.850  1.00  0.00     0.256 C 
HETATM   28  N   UNL     1      38.150  44.675  65.128  1.00  0.00    -0.323 N 
HETATM   29  H   UNL     1      38.177  45.133  64.226  1.00  0.00     0.169 HD
HETATM   30  O   UNL     1      39.462  44.270  67.009  1.00  0.00    -0.267 OA
BRANCH  28  31
HETATM   31  C   UNL     1      36.927  44.056  65.469  1.00  0.00     0.035 A 
HETATM   32  C   UNL     1      35.985  44.611  66.339  1.00  0.00     0.029 A 
HETATM   33  C   UNL     1      34.823  43.909  66.672  1.00  0.00     0.002 A 
HETATM   34  C   UNL     1      34.593  42.642  66.143  1.00  0.00     0.000 A 
HETATM   35  C   UNL     1      35.522  42.080  65.271  1.00  0.00     0.002 A 
HETATM   36  C   UNL     1      36.680  42.786  64.933  1.00  0.00     0.029 A 
ENDBRANCH  28  31
ENDBRANCH  14  27
TORSDOF 4
ENDMDL
MODEL 10
REMARK VINA RESULT:      -8.2      2.995      7.634
REMARK  4 active torsions:
REMARK  status: ('A' for Active; 'I' for Inactive)
REMARK    1  A    between atoms: C_6  and  C_7 
REMARK    2  A    between atoms: C_10  and  N_11 
REMARK       I    between atoms: N_11  and  C_12 
REMARK    3  A    between atoms: C_24  and  C_25 
REMARK       I    between atoms: C_25  and  N_26 
REMARK    4  A    between atoms: N_26  and  C_27 
ROOT
HETATM    1  C   UNL     1      25.473  47.486  53.471  1.00  0.00     0.070 C 
HETATM    2  C   UNL     1      25.726  46.144  52.831  1.00  0.00     0.037 C 
HETATM    3  N   UNL     1      25.944  45.096  53.720  1.00  0.00    -0.193 N 
HETATM    4  C   UNL     1      26.563  43.951  53.368  1.00  0.00     0.709 A 
HETATM    5  N   UNL     1      26.752  43.680  52.037  1.00  0.00    -0.165 N 
HETATM    6  C   UNL     1      26.245  44.550  50.968  1.00  0.00     0.182 C 
HETATM    7  N   UNL     1      27.088  43.026  54.131  1.00  0.00    -0.062 NA
HETATM    8  C   UNL     1      27.695  42.151  53.258  1.00  0.00     0.103 A 
HETATM    9  C   UNL     1      27.511  42.543  51.932  1.00  0.00     0.082 A 
HETATM   10  C   UNL     1      28.444  40.996  53.532  1.00  0.00     0.034 A 
HETATM   11  C   UNL     1      28.991  40.276  52.463  1.00  0.00     0.002 A 
HETATM   12  C   UNL     1      28.792  40.691  51.145  1.00  0.00     0.002 A 
HETATM   13  C   UNL     1      28.042  41.836  50.848  1.00  0.00     0.032 A 
HETATM   14  C   UNL     1      25.845  45.921  51.498  1.00  0.00     0.061 C 
HETATM   15  H   UNL     1      25.943  45.321  54.712  1.00  0.00     0.184 HD
ENDROOT
BRANCH   6  16
HETATM   16  C   UNL     1      25.107  43.851  50.226  1.00  0.00    -0.030 A 
HETATM   17  C   UNL     1      23.965  43.379  50.893  1.00  0.00     0.012 A 
HETATM   18  C   UNL     1      22.967  42.675  50.210  1.00  0.00     0.030 A 
HETATM   19  C   UNL     1      23.081  42.435  48.841  1.00  0.00     0.034 A 
HETATM   20  C   UNL     1      24.194  42.940  48.160  1.00  0.00     0.030 A 
HETATM   21  C   UNL     1      25.194  43.645  48.841  1.00  0.00     0.012 A 
BRANCH  19  22
HETATM   22  N   UNL     1      22.152  41.681  48.093  1.00  0.00    -0.328 N 
HETATM   23  C   UNL     1      22.396  40.537  47.355  1.00  0.00     0.218 C 
HETATM   24  C   UNL     1      21.172  40.067  46.609  1.00  0.00     0.117 C 
HETATM   25  O   UNL     1      23.447  39.909  47.289  1.00  0.00    -0.274 OA
HETATM   26  H   UNL     1      21.203  42.033  48.083  1.00  0.00     0.169 HD
ENDBRANCH  19  22
ENDBRANCH   6  16
BRANCH  14  27
HETATM   27  C   UNL     1      25.791  46.976  50.444  1.00  0.00     0.256 C 
HETATM   28  N   UNL     1      24.522  47.305  50.025  1.00  0.00    -0.323 N 
HETATM   29  H   UNL     1      23.759  46.747  50.387  1.00  0.00     0.169 HD
HETATM   30  O   UNL     1      26.848  47.431  50.018  1.00  0.00    -0.267 OA
BRANCH  28  31
HETATM   31  C   UNL     1      24.154  48.399  49.211  1.00  0.00     0.035 A 
HETATM   32  C   UNL     1      25.055  49.352  48.730  1.00  0.00     0.029 A 
HETATM   33  C   UNL     1      24.604  50.440  47.975  1.00  0.00     0.002 A 
HETATM   34  C   UNL     1      23.248  50.588  47.698  1.00  0.00     0.000 A 
HETATM   35  C   UNL     1      22.342  49.641  48.168  1.00  0.00     0.002 A 
HETATM   36  C   UNL     1      22.793  48.550  48.917  1.00  0.00     0.029 A 
ENDBRANCH  28  31
ENDBRANCH  14  27
TORSDOF 4
ENDMDL
