MODEL 1
REMARK VINA RESULT:     -10.5      0.000      0.000
REMARK  7 active torsions:
REMARK  status: ('A' for Active; 'I' for Inactive)
REMARK    1  A    between atoms: C_2  and  C_3 
REMARK    2  A    between atoms: C_5  and  N_6 
REMARK    3  A    between atoms: C_8  and  C_9 
REMARK    4  A    between atoms: C_15  and  N_16 
REMARK       I    between atoms: N_16  and  C_17 
REMARK    5  A    between atoms: C_17  and  C_18 
REMARK    6  A    between atoms: C_18  and  O_19 
REMARK    7  A    between atoms: O_19  and  C_20 
ROOT
HETATM    1  N   UNL     1      22.804  46.894  48.798  1.00  0.00    -0.044 N 
HETATM    2  N   UNL     1      22.224  46.131  47.817  1.00  0.00    -0.148 NA
HETATM    3  C   UNL     1      22.830  44.943  47.927  1.00  0.00     0.115 C 
HETATM    4  C   UNL     1      23.736  44.899  49.009  1.00  0.00     0.087 C 
HETATM    5  C   UNL     1      23.615  46.122  49.625  1.00  0.00     0.152 C 
ENDROOT
BRANCH   5   6
HETATM    6  N   UNL     1      24.244  46.443  50.819  1.00  0.00    -0.309 N 
HETATM    7  C   UNL     1      25.517  47.117  50.821  1.00  0.00     0.247 C 
HETATM    8  O   UNL     1      25.918  47.652  49.798  1.00  0.00    -0.271 OA
HETATM    9  H   UNL     1      23.769  46.317  51.707  1.00  0.00     0.170 HD
BRANCH   7  10
HETATM   10  C   UNL     1      26.256  47.094  52.142  1.00  0.00     0.278 C 
BRANCH  10  11
HETATM   11  O   UNL     1      25.931  45.907  52.861  1.00  0.00    -0.342 OA
BRANCH  11  12
HETATM   12  C   UNL     1      27.014  45.187  53.300  1.00  0.00     0.070 A 
HETATM   13  C   UNL     1      27.651  45.692  54.435  1.00  0.00     0.049 A 
HETATM   14  C   UNL     1      28.781  45.054  54.979  1.00  0.00    -0.023 A 
HETATM   15  C   UNL     1      29.264  43.872  54.374  1.00  0.00    -0.026 A 
HETATM   16  C   UNL     1      29.445  45.564  56.107  1.00  0.00     0.012 A 
HETATM   17  C   UNL     1      28.605  43.362  53.248  1.00  0.00     0.015 A 
HETATM   18  C   UNL     1      30.393  43.232  54.910  1.00  0.00     0.012 A 
HETATM   19  C   UNL     1      27.487  44.011  52.715  1.00  0.00     0.037 A 
HETATM   20  C   UNL     1      31.041  43.753  56.029  1.00  0.00     0.001 A 
HETATM   21  C   UNL     1      30.568  44.918  56.627  1.00  0.00     0.001 A 
ENDBRANCH  11  12
ENDBRANCH  10  11
ENDBRANCH   7  10
ENDBRANCH   5   6
BRANCH   1  22
HETATM   22  C   UNL     1      22.652  48.295  48.743  1.00  0.00     0.732 A 
HETATM   23  N   UNL     1      21.649  48.938  49.255  1.00  0.00    -0.067 NA
HETATM   24  C   UNL     1      21.682  50.316  49.133  1.00  0.00     0.062 A 
HETATM   25  C   UNL     1      22.699  50.985  48.564  1.00  0.00     0.103 A 
HETATM   26  C   UNL     1      23.839  50.230  48.023  1.00  0.00     0.261 A 
HETATM   27  N   UNL     1      23.728  48.882  48.132  1.00  0.00    -0.152 N 
HETATM   28  O   UNL     1      24.804  50.792  47.526  1.00  0.00    -0.268 OA
HETATM   29  H   UNL     1      24.495  48.306  47.798  1.00  0.00     0.187 HD
BRANCH  24  30
HETATM   30  C   UNL     1      20.488  51.082  49.686  1.00  0.00     0.030 C 
HETATM   31  C   UNL     1      19.472  50.153  50.357  1.00  0.00     0.016 C 
HETATM   32  C   UNL     1      19.825  51.921  48.593  1.00  0.00     0.016 C 
ENDBRANCH  24  30
ENDBRANCH   1  22
BRANCH   3  33
HETATM   33  C   UNL     1      22.544  43.807  47.003  1.00  0.00     0.105 A 
HETATM   34  O   UNL     1      21.648  42.808  47.265  1.00  0.00    -0.320 OA
HETATM   35  C   UNL     1      21.661  41.965  46.200  1.00  0.00     0.142 A 
HETATM   36  C   UNL     1      22.554  42.403  45.251  1.00  0.00     0.027 A 
HETATM   37  C   UNL     1      23.125  43.591  45.767  1.00  0.00     0.041 A 
ENDBRANCH   3  33
TORSDOF 7
ENDMDL
MODEL 2
REMARK VINA RESULT:     -10.5      4.272     10.306
REMARK  7 active torsions:
REMARK  status: ('A' for Active; 'I' for Inactive)
REMARK    1  A    between atoms: C_2  and  C_3 
REMARK    2  A    between atoms: C_5  and  N_6 
REMARK    3  A    between atoms: C_8  and  C_9 
REMARK    4  A    between atoms: C_15  and  N_16 
REMARK       I    between atoms: N_16  and  C_17 
REMARK    5  A    between atoms: C_17  and  C_18 
REMARK    6  A    between atoms: C_18  and  O_19 
REMARK    7  A    between atoms: O_19  and  C_20 
ROOT
HETATM    1  N   UNL     1      28.154  41.539  51.850  1.00  0.00    -0.044 N 
HETATM    2  N   UNL     1      29.028  41.700  52.893  1.00  0.00    -0.148 NA
HETATM    3  C   UNL     1      28.761  42.926  53.357  1.00  0.00     0.115 C 
HETATM    4  C   UNL     1      27.679  43.533  52.683  1.00  0.00     0.087 C 
HETATM    5  C   UNL     1      27.228  42.579  51.801  1.00  0.00     0.152 C 
ENDROOT
BRANCH   5   6
HETATM    6  N   UNL     1      26.084  42.727  51.031  1.00  0.00    -0.309 N 
HETATM    7  C   UNL     1      26.100  43.533  49.838  1.00  0.00     0.247 C 
HETATM    8  O   UNL     1      27.170  43.863  49.347  1.00  0.00    -0.271 OA
HETATM    9  H   UNL     1      25.252  42.179  51.226  1.00  0.00     0.170 HD
BRANCH   7  10
HETATM   10  C   UNL     1      24.738  43.903  49.291  1.00  0.00     0.278 C 
BRANCH  10  11
HETATM   11  O   UNL     1      24.113  44.854  50.149  1.00  0.00    -0.342 OA
BRANCH  11  12
HETATM   12  C   UNL     1      24.300  46.165  49.787  1.00  0.00     0.070 A 
HETATM   13  C   UNL     1      23.205  46.784  49.181  1.00  0.00     0.049 A 
HETATM   14  C   UNL     1      23.272  48.123  48.752  1.00  0.00    -0.023 A 
HETATM   15  C   UNL     1      24.464  48.853  48.956  1.00  0.00    -0.026 A 
HETATM   16  C   UNL     1      22.186  48.751  48.121  1.00  0.00     0.012 A 
HETATM   17  C   UNL     1      25.550  48.230  49.584  1.00  0.00     0.015 A 
HETATM   18  C   UNL     1      24.539  50.188  48.527  1.00  0.00     0.012 A 
HETATM   19  C   UNL     1      25.470  46.896  49.999  1.00  0.00     0.037 A 
HETATM   20  C   UNL     1      23.451  50.796  47.900  1.00  0.00     0.001 A 
HETATM   21  C   UNL     1      22.276  50.078  47.697  1.00  0.00     0.001 A 
ENDBRANCH  11  12
ENDBRANCH  10  11
ENDBRANCH   7  10
ENDBRANCH   5   6
BRANCH   1  22
HETATM   22  C   UNL     1      28.392  40.506  50.920  1.00  0.00     0.732 A 
HETATM   23  N   UNL     1      27.960  40.514  49.697  1.00  0.00    -0.067 NA
HETATM   24  C   UNL     1      28.316  39.428  48.918  1.00  0.00     0.062 A 
HETATM   25  C   UNL     1      29.101  38.428  49.354  1.00  0.00     0.103 A 
HETATM   26  C   UNL     1      29.604  38.464  50.735  1.00  0.00     0.261 A 
HETATM   27  N   UNL     1      29.184  39.529  51.463  1.00  0.00    -0.152 N 
HETATM   28  O   UNL     1      30.348  37.597  51.171  1.00  0.00    -0.268 OA
HETATM   29  H   UNL     1      29.517  39.623  52.418  1.00  0.00     0.187 HD
BRANCH  24  30
HETATM   30  C   UNL     1      27.775  39.399  47.494  1.00  0.00     0.030 C 
HETATM   31  C   UNL     1      28.381  38.258  46.674  1.00  0.00     0.016 C 
HETATM   32  C   UNL     1      27.990  40.746  46.803  1.00  0.00     0.016 C 
ENDBRANCH  24  30
ENDBRANCH   1  22
BRANCH   3  33
HETATM   33  C   UNL     1      29.529  43.547  54.475  1.00  0.00     0.105 A 
HETATM   34  O   UNL     1      29.211  44.744  55.056  1.00  0.00    -0.320 OA
HETATM   35  C   UNL     1      30.130  44.975  56.029  1.00  0.00     0.142 A 
HETATM   36  C   UNL     1      31.040  43.946  56.088  1.00  0.00     0.027 A 
HETATM   37  C   UNL     1      30.654  43.024  55.085  1.00  0.00     0.041 A 
ENDBRANCH   3  33
TORSDOF 7
ENDMDL
MODEL 3
REMARK VINA RESULT:     -10.2      2.427      8.282
REMARK  7 active torsions:
REMARK  status: ('A' for Active; 'I' for Inactive)
REMARK    1  A    between atoms: C_2  and  C_3 
REMARK    2  A    between atoms: C_5  and  N_6 
REMARK    3  A    between atoms: C_8  and  C_9 
REMARK    4  A    between atoms: C_15  and  N_16 
REMARK       I    between atoms: N_16  and  C_17 
REMARK    5  A    between atoms: C_17  and  C_18 
REMARK    6  A    between atoms: C_18  and  O_19 
REMARK    7  A    between atoms: O_19  and  C_20 
ROOT
HETATM    1  N   UNL     1      25.233  46.384  50.167  1.00  0.00    -0.044 N 
HETATM    2  N   UNL     1      26.274  45.813  50.852  1.00  0.00    -0.148 NA
HETATM    3  C   UNL     1      25.703  44.823  51.547  1.00  0.00     0.115 C 
HETATM    4  C   UNL     1      24.325  44.693  51.266  1.00  0.00     0.087 C 
HETATM    5  C   UNL     1      24.071  45.626  50.290  1.00  0.00     0.152 C 
ENDROOT
BRANCH   5   6
HETATM    6  N   UNL     1      22.853  45.738  49.636  1.00  0.00    -0.309 N 
HETATM    7  C   UNL     1      22.678  45.205  48.310  1.00  0.00     0.247 C 
HETATM    8  O   UNL     1      23.499  44.417  47.864  1.00  0.00    -0.271 OA
HETATM    9  H   UNL     1      22.034  46.090  50.121  1.00  0.00     0.170 HD
BRANCH   7  10
HETATM   10  C   UNL     1      21.446  45.690  47.576  1.00  0.00     0.278 C 
BRANCH  10  11
HETATM   11  O   UNL     1      20.515  46.244  48.503  1.00  0.00    -0.342 OA
BRANCH  11  12
HETATM   12  C   UNL     1      20.061  47.498  48.180  1.00  0.00     0.070 A 
HETATM   13  C   UNL     1      19.954  48.393  49.247  1.00  0.00     0.049 A 
HETATM   14  C   UNL     1      19.489  49.706  49.050  1.00  0.00    -0.023 A 
HETATM   15  C   UNL     1      19.144  50.128  47.747  1.00  0.00    -0.026 A 
HETATM   16  C   UNL     1      19.354  50.609  50.117  1.00  0.00     0.012 A 
HETATM   17  C   UNL     1      19.276  49.230  46.680  1.00  0.00     0.015 A 
HETATM   18  C   UNL     1      18.676  51.436  47.544  1.00  0.00     0.012 A 
HETATM   19  C   UNL     1      19.732  47.925  46.892  1.00  0.00     0.037 A 
HETATM   20  C   UNL     1      18.547  52.319  48.616  1.00  0.00     0.001 A 
HETATM   21  C   UNL     1      18.886  51.906  49.902  1.00  0.00     0.001 A 
ENDBRANCH  11  12
ENDBRANCH  10  11
ENDBRANCH   7  10
ENDBRANCH   5   6
BRANCH   1  22
HETATM   22  C   UNL     1      25.413  47.665  49.606  1.00  0.00     0.732 A 
HETATM   23  N   UNL     1      24.443  48.476  49.316  1.00  0.00    -0.067 NA
HETATM   24  C   UNL     1      24.810  49.706  48.800  1.00  0.00     0.062 A 
HETATM   25  C   UNL     1      26.087  50.091  48.637  1.00  0.00     0.103 A 
HETATM   26  C   UNL     1      27.166  49.163  49.006  1.00  0.00     0.261 A 
HETATM   27  N   UNL     1      26.744  47.957  49.464  1.00  0.00    -0.152 N 
HETATM   28  O   UNL     1      28.344  49.475  48.909  1.00  0.00    -0.268 OA
HETATM   29  H   UNL     1      27.443  47.281  49.757  1.00  0.00     0.187 HD
BRANCH  24  30
HETATM   30  C   UNL     1      23.680  50.650  48.410  1.00  0.00     0.030 C 
HETATM   31  C   UNL     1      22.892  51.136  49.629  1.00  0.00     0.016 C 
HETATM   32  C   UNL     1      22.754  49.995  47.383  1.00  0.00     0.016 C 
ENDBRANCH  24  30
ENDBRANCH   1  22
BRANCH   3  33
HETATM   33  C   UNL     1      26.469  43.960  52.492  1.00  0.00     0.105 A 
HETATM   34  O   UNL     1      27.155  42.835  52.125  1.00  0.00    -0.320 OA
HETATM   35  C   UNL     1      27.721  42.324  53.249  1.00  0.00     0.142 A 
HETATM   36  C   UNL     1      27.411  43.100  54.341  1.00  0.00     0.027 A 
HETATM   37  C   UNL     1      26.603  44.156  53.855  1.00  0.00     0.041 A 
ENDBRANCH   3  33
TORSDOF 7
ENDMDL
MODEL 4
REMARK VINA RESULT:     -10.2      2.211      5.905
REMARK  7 active torsions:
REMARK  status: ('A' for Active; 'I' for Inactive)
REMARK    1  A    between atoms: C_2  and  C_3 
REMARK    2  A    between atoms: C_5  and  N_6 
REMARK    3  A    between atoms: C_8  and  C_9 
REMARK    4  A    between atoms: C_15  and  N_16 
REMARK       I    between atoms: N_16  and  C_17 
REMARK    5  A    between atoms: C_17  and  C_18 
REMARK    6  A    between atoms: C_18  and  O_19 
REMARK    7  A    between atoms: O_19  and  C_20 
ROOT
HETATM    1  N   UNL     1      24.331  45.544  49.241  1.00  0.00    -0.044 N 
HETATM    2  N   UNL     1      23.484  46.295  48.468  1.00  0.00    -0.148 NA
HETATM    3  C   UNL     1      23.393  47.459  49.121  1.00  0.00     0.115 C 
HETATM    4  C   UNL     1      24.225  47.504  50.261  1.00  0.00     0.087 C 
HETATM    5  C   UNL     1      24.906  46.310  50.251  1.00  0.00     0.152 C 
ENDROOT
BRANCH   5   6
HETATM    6  N   UNL     1      25.929  46.005  51.138  1.00  0.00    -0.309 N 
HETATM    7  C   UNL     1      25.652  45.318  52.373  1.00  0.00     0.247 C 
HETATM    8  O   UNL     1      24.575  44.759  52.523  1.00  0.00    -0.271 OA
HETATM    9  H   UNL     1      26.900  46.152  50.882  1.00  0.00     0.170 HD
BRANCH   7  10
HETATM   10  C   UNL     1      26.764  45.358  53.398  1.00  0.00     0.278 C 
BRANCH  10  11
HETATM   11  O   UNL     1      27.855  44.550  52.962  1.00  0.00    -0.342 OA
BRANCH  11  12
HETATM   12  C   UNL     1      28.790  44.279  53.930  1.00  0.00     0.070 A 
HETATM   13  C   UNL     1      28.782  45.137  55.031  1.00  0.00     0.049 A 
HETATM   14  C   UNL     1      29.698  44.973  56.087  1.00  0.00    -0.023 A 
HETATM   15  C   UNL     1      30.627  43.910  56.036  1.00  0.00    -0.026 A 
HETATM   16  C   UNL     1      29.716  45.843  57.189  1.00  0.00     0.012 A 
HETATM   17  C   UNL     1      30.612  43.041  54.937  1.00  0.00     0.015 A 
HETATM   18  C   UNL     1      31.546  43.743  57.085  1.00  0.00     0.012 A 
HETATM   19  C   UNL     1      29.700  43.221  53.892  1.00  0.00     0.037 A 
HETATM   20  C   UNL     1      31.551  44.618  58.171  1.00  0.00     0.001 A 
HETATM   21  C   UNL     1      30.637  45.667  58.224  1.00  0.00     0.001 A 
ENDBRANCH  11  12
ENDBRANCH  10  11
ENDBRANCH   7  10
ENDBRANCH   5   6
BRANCH   1  22
HETATM   22  C   UNL     1      24.377  44.149  49.036  1.00  0.00     0.732 A 
HETATM   23  N   UNL     1      25.381  43.398  49.367  1.00  0.00    -0.067 NA
HETATM   24  C   UNL     1      25.238  42.044  49.118  1.00  0.00     0.062 A 
HETATM   25  C   UNL     1      24.122  41.499  48.606  1.00  0.00     0.103 A 
HETATM   26  C   UNL     1      22.987  42.372  48.271  1.00  0.00     0.261 A 
HETATM   27  N   UNL     1      23.204  43.693  48.496  1.00  0.00    -0.152 N 
HETATM   28  O   UNL     1      21.938  41.923  47.834  1.00  0.00    -0.268 OA
HETATM   29  H   UNL     1      22.449  44.345  48.307  1.00  0.00     0.187 HD
BRANCH  24  30
HETATM   30  C   UNL     1      26.428  41.156  49.457  1.00  0.00     0.030 C 
HETATM   31  C   UNL     1      26.191  39.700  49.047  1.00  0.00     0.016 C 
HETATM   32  C   UNL     1      26.777  41.257  50.942  1.00  0.00     0.016 C 
ENDBRANCH  24  30
ENDBRANCH   1  22
BRANCH   3  33
HETATM   33  C   UNL     1      22.515  48.572  48.659  1.00  0.00     0.105 A 
HETATM   34  O   UNL     1      21.154  48.590  48.799  1.00  0.00    -0.320 OA
HETATM   35  C   UNL     1      20.709  49.757  48.266  1.00  0.00     0.142 A 
HETATM   36  C   UNL     1      21.761  50.497  47.780  1.00  0.00     0.027 A 
HETATM   37  C   UNL     1      22.927  49.734  48.032  1.00  0.00     0.041 A 
ENDBRANCH   3  33
TORSDOF 7
ENDMDL
MODEL 5
REMARK VINA RESULT:     -10.2      2.160      3.261
REMARK  7 active torsions:
REMARK  status: ('A' for Active; 'I' for Inactive)
REMARK    1  A    between atoms: C_2  and  C_3 
REMARK    2  A    between atoms: C_5  and  N_6 
REMARK    3  A    between atoms: C_8  and  C_9 
REMARK    4  A    between atoms: C_15  and  N_16 
REMARK       I    between atoms: N_16  and  C_17 
REMARK    5  A    between atoms: C_17  and  C_18 
REMARK    6  A    between atoms: C_18  and  O_19 
REMARK    7  A    between atoms: O_19  and  C_20 
ROOT
HETATM    1  N   UNL     1      23.992  44.997  49.314  1.00  0.00    -0.044 N 
HETATM    2  N   UNL     1      23.029  44.389  48.551  1.00  0.00    -0.148 NA
HETATM    3  C   UNL     1      23.417  43.110  48.495  1.00  0.00     0.115 C 
HETATM    4  C   UNL     1      24.572  42.863  49.269  1.00  0.00     0.087 C 
HETATM    5  C   UNL     1      24.853  44.062  49.881  1.00  0.00     0.152 C 
ENDROOT
BRANCH   5   6
HETATM    6  N   UNL     1      25.845  44.218  50.839  1.00  0.00    -0.309 N 
HETATM    7  C   UNL     1      25.505  44.491  52.211  1.00  0.00     0.247 C 
HETATM    8  O   UNL     1      24.358  44.314  52.595  1.00  0.00    -0.271 OA
HETATM    9  H   UNL     1      26.817  44.028  50.616  1.00  0.00     0.170 HD
BRANCH   7  10
HETATM   10  C   UNL     1      26.647  44.986  53.072  1.00  0.00     0.278 C 
BRANCH  10  11
HETATM   11  O   UNL     1      27.878  44.434  52.611  1.00  0.00    -0.342 OA
BRANCH  11  12
HETATM   12  C   UNL     1      28.789  44.160  53.600  1.00  0.00     0.070 A 
HETATM   13  C   UNL     1      28.755  45.015  54.704  1.00  0.00     0.049 A 
HETATM   14  C   UNL     1      29.645  44.848  55.781  1.00  0.00    -0.023 A 
HETATM   15  C   UNL     1      30.575  43.785  55.749  1.00  0.00    -0.026 A 
HETATM   16  C   UNL     1      29.638  45.715  56.886  1.00  0.00     0.012 A 
HETATM   17  C   UNL     1      30.587  42.919  54.647  1.00  0.00     0.015 A 
HETATM   18  C   UNL     1      31.469  43.615  56.818  1.00  0.00     0.012 A 
HETATM   19  C   UNL     1      29.700  43.102  53.581  1.00  0.00     0.037 A 
HETATM   20  C   UNL     1      31.448  44.486  57.908  1.00  0.00     0.001 A 
HETATM   21  C   UNL     1      30.534  45.535  57.941  1.00  0.00     0.001 A 
ENDBRANCH  11  12
ENDBRANCH  10  11
ENDBRANCH   7  10
ENDBRANCH   5   6
BRANCH   1  22
HETATM   22  C   UNL     1      24.085  46.404  49.290  1.00  0.00     0.732 A 
HETATM   23  N   UNL     1      25.205  47.058  49.245  1.00  0.00    -0.067 NA
HETATM   24  C   UNL     1      25.103  48.437  49.197  1.00  0.00     0.062 A 
HETATM   25  C   UNL     1      23.932  49.093  49.151  1.00  0.00     0.103 A 
HETATM   26  C   UNL     1      22.679  48.323  49.169  1.00  0.00     0.261 A 
HETATM   27  N   UNL     1      22.843  46.979  49.263  1.00  0.00    -0.152 N 
HETATM   28  O   UNL     1      21.588  48.869  49.096  1.00  0.00    -0.268 OA
HETATM   29  H   UNL     1      22.015  46.390  49.256  1.00  0.00     0.187 HD
BRANCH  24  30
HETATM   30  C   UNL     1      26.409  49.220  49.193  1.00  0.00     0.030 C 
HETATM   31  C   UNL     1      26.463  50.239  48.052  1.00  0.00     0.016 C 
HETATM   32  C   UNL     1      27.611  48.276  49.141  1.00  0.00     0.016 C 
ENDBRANCH  24  30
ENDBRANCH   1  22
BRANCH   3  33
HETATM   33  C   UNL     1      22.681  42.081  47.706  1.00  0.00     0.105 A 
HETATM   34  O   UNL     1      21.647  42.357  46.853  1.00  0.00    -0.320 OA
HETATM   35  C   UNL     1      21.237  41.176  46.322  1.00  0.00     0.142 A 
HETATM   36  C   UNL     1      21.988  40.137  46.817  1.00  0.00     0.027 A 
HETATM   37  C   UNL     1      22.920  40.719  47.711  1.00  0.00     0.041 A 
ENDBRANCH   3  33
TORSDOF 7
ENDMDL
MODEL 6
REMARK VINA RESULT:     -10.1      3.545      8.804
REMARK  7 active torsions:
REMARK  status: ('A' for Active; 'I' for Inactive)
REMARK    1  A    between atoms: C_2  and  C_3 
REMARK    2  A    between atoms: C_5  and  N_6 
REMARK    3  A    between atoms: C_8  and  C_9 
REMARK    4  A    between atoms: C_15  and  N_16 
REMARK       I    between atoms: N_16  and  C_17 
REMARK    5  A    between atoms: C_17  and  C_18 
REMARK    6  A    between atoms: C_18  and  O_19 
REMARK    7  A    between atoms: O_19  and  C_20 
ROOT
HETATM    1  N   UNL     1      27.645  42.962  51.629  1.00  0.00    -0.044 N 
HETATM    2  N   UNL     1      28.465  41.882  51.431  1.00  0.00    -0.148 NA
HETATM    3  C   UNL     1      27.804  41.127  50.547  1.00  0.00     0.115 C 
HETATM    4  C   UNL     1      26.606  41.734  50.110  1.00  0.00     0.087 C 
HETATM    5  C   UNL     1      26.584  42.963  50.727  1.00  0.00     0.152 C 
ENDROOT
BRANCH   5   6
HETATM    6  N   UNL     1      25.630  43.935  50.463  1.00  0.00    -0.309 N 
HETATM    7  C   UNL     1      26.000  45.176  49.834  1.00  0.00     0.247 C 
HETATM    8  O   UNL     1      27.088  45.273  49.283  1.00  0.00    -0.271 OA
HETATM    9  H   UNL     1      24.643  43.744  50.598  1.00  0.00     0.170 HD
BRANCH   7  10
HETATM   10  C   UNL     1      24.966  46.277  49.921  1.00  0.00     0.278 C 
BRANCH  10  11
HETATM   11  O   UNL     1      25.536  47.514  49.499  1.00  0.00    -0.342 OA
BRANCH  11  12
HETATM   12  C   UNL     1      24.622  48.477  49.151  1.00  0.00     0.070 A 
HETATM   13  C   UNL     1      23.285  48.150  49.383  1.00  0.00     0.049 A 
HETATM   14  C   UNL     1      22.250  49.047  49.060  1.00  0.00    -0.023 A 
HETATM   15  C   UNL     1      22.575  50.306  48.508  1.00  0.00    -0.026 A 
HETATM   16  C   UNL     1      20.899  48.721  49.266  1.00  0.00     0.012 A 
HETATM   17  C   UNL     1      23.921  50.634  48.299  1.00  0.00     0.015 A 
HETATM   18  C   UNL     1      21.547  51.204  48.180  1.00  0.00     0.012 A 
HETATM   19  C   UNL     1      24.939  49.729  48.619  1.00  0.00     0.037 A 
HETATM   20  C   UNL     1      20.211  50.863  48.390  1.00  0.00     0.001 A 
HETATM   21  C   UNL     1      19.887  49.623  48.933  1.00  0.00     0.001 A 
ENDBRANCH  11  12
ENDBRANCH  10  11
ENDBRANCH   7  10
ENDBRANCH   5   6
BRANCH   1  22
HETATM   22  C   UNL     1      27.867  43.784  52.753  1.00  0.00     0.732 A 
HETATM   23  N   UNL     1      27.127  44.802  53.068  1.00  0.00    -0.067 NA
HETATM   24  C   UNL     1      27.477  45.475  54.224  1.00  0.00     0.062 A 
HETATM   25  C   UNL     1      28.489  45.099  55.024  1.00  0.00     0.103 A 
HETATM   26  C   UNL     1      29.289  43.920  54.659  1.00  0.00     0.261 A 
HETATM   27  N   UNL     1      28.926  43.329  53.493  1.00  0.00    -0.152 N 
HETATM   28  O   UNL     1      30.199  43.516  55.368  1.00  0.00    -0.268 OA
HETATM   29  H   UNL     1      29.426  42.496  53.198  1.00  0.00     0.187 HD
BRANCH  24  30
HETATM   30  C   UNL     1      26.647  46.702  54.581  1.00  0.00     0.030 C 
HETATM   31  C   UNL     1      25.760  47.151  53.417  1.00  0.00     0.016 C 
HETATM   32  C   UNL     1      27.543  47.845  55.061  1.00  0.00     0.016 C 
ENDBRANCH  24  30
ENDBRANCH   1  22
BRANCH   3  33
HETATM   33  C   UNL     1      28.312  39.805  50.081  1.00  0.00     0.105 A 
HETATM   34  O   UNL     1      29.184  39.022  50.786  1.00  0.00    -0.320 OA
HETATM   35  C   UNL     1      29.409  37.904  50.048  1.00  0.00     0.142 A 
HETATM   36  C   UNL     1      28.697  37.950  48.874  1.00  0.00     0.027 A 
HETATM   37  C   UNL     1      27.988  39.175  48.893  1.00  0.00     0.041 A 
ENDBRANCH   3  33
TORSDOF 7
ENDMDL
MODEL 7
REMARK VINA RESULT:     -10.0      1.931      2.793
REMARK  7 active torsions:
REMARK  status: ('A' for Active; 'I' for Inactive)
REMARK    1  A    between atoms: C_2  and  C_3 
REMARK    2  A    between atoms: C_5  and  N_6 
REMARK    3  A    between atoms: C_8  and  C_9 
REMARK    4  A    between atoms: C_15  and  N_16 
REMARK       I    between atoms: N_16  and  C_17 
REMARK    5  A    between atoms: C_17  and  C_18 
REMARK    6  A    between atoms: C_18  and  O_19 
REMARK    7  A    between atoms: O_19  and  C_20 
ROOT
HETATM    1  N   UNL     1      22.881  45.267  48.716  1.00  0.00    -0.044 N 
HETATM    2  N   UNL     1      22.175  44.230  48.165  1.00  0.00    -0.148 NA
HETATM    3  C   UNL     1      23.053  43.221  48.126  1.00  0.00     0.115 C 
HETATM    4  C   UNL     1      24.292  43.563  48.711  1.00  0.00     0.087 C 
HETATM    5  C   UNL     1      24.119  44.840  49.189  1.00  0.00     0.152 C 
ENDROOT
BRANCH   5   6
HETATM    6  N   UNL     1      25.065  45.505  49.956  1.00  0.00    -0.309 N 
HETATM    7  C   UNL     1      24.959  45.535  51.392  1.00  0.00     0.247 C 
HETATM    8  O   UNL     1      24.205  44.756  51.957  1.00  0.00    -0.271 OA
HETATM    9  H   UNL     1      25.908  45.879  49.532  1.00  0.00     0.170 HD
BRANCH   7  10
HETATM   10  C   UNL     1      25.825  46.566  52.082  1.00  0.00     0.278 C 
BRANCH  10  11
HETATM   11  O   UNL     1      25.659  46.473  53.495  1.00  0.00    -0.342 OA
BRANCH  11  12
HETATM   12  C   UNL     1      26.809  46.197  54.191  1.00  0.00     0.070 A 
HETATM   13  C   UNL     1      27.437  44.994  53.863  1.00  0.00     0.049 A 
HETATM   14  C   UNL     1      28.618  44.589  54.513  1.00  0.00    -0.023 A 
HETATM   15  C   UNL     1      29.184  45.427  55.499  1.00  0.00    -0.026 A 
HETATM   16  C   UNL     1      29.246  43.370  54.210  1.00  0.00     0.012 A 
HETATM   17  C   UNL     1      28.559  46.643  55.805  1.00  0.00     0.015 A 
HETATM   18  C   UNL     1      30.361  45.027  56.153  1.00  0.00     0.012 A 
HETATM   19  C   UNL     1      27.381  47.028  55.156  1.00  0.00     0.037 A 
HETATM   20  C   UNL     1      30.971  43.812  55.841  1.00  0.00     0.001 A 
HETATM   21  C   UNL     1      30.414  42.985  54.870  1.00  0.00     0.001 A 
ENDBRANCH  11  12
ENDBRANCH  10  11
ENDBRANCH   7  10
ENDBRANCH   5   6
BRANCH   1  22
HETATM   22  C   UNL     1      22.373  46.576  48.587  1.00  0.00     0.732 A 
HETATM   23  N   UNL     1      23.091  47.607  48.264  1.00  0.00    -0.067 NA
HETATM   24  C   UNL     1      22.416  48.810  48.154  1.00  0.00     0.062 A 
HETATM   25  C   UNL     1      21.089  48.933  48.320  1.00  0.00     0.103 A 
HETATM   26  C   UNL     1      20.296  47.740  48.652  1.00  0.00     0.261 A 
HETATM   27  N   UNL     1      21.019  46.600  48.790  1.00  0.00    -0.152 N 
HETATM   28  O   UNL     1      19.081  47.791  48.781  1.00  0.00    -0.268 OA
HETATM   29  H   UNL     1      20.525  45.737  48.997  1.00  0.00     0.187 HD
BRANCH  24  30
HETATM   30  C   UNL     1      23.254  50.038  47.824  1.00  0.00     0.030 C 
HETATM   31  C   UNL     1      24.746  49.796  48.067  1.00  0.00     0.016 C 
HETATM   32  C   UNL     1      22.762  51.259  48.602  1.00  0.00     0.016 C 
ENDBRANCH  24  30
ENDBRANCH   1  22
BRANCH   3  33
HETATM   33  C   UNL     1      22.723  41.891  47.538  1.00  0.00     0.105 A 
HETATM   34  O   UNL     1      21.502  41.560  47.016  1.00  0.00    -0.320 OA
HETATM   35  C   UNL     1      21.586  40.277  46.579  1.00  0.00     0.142 A 
HETATM   36  C   UNL     1      22.842  39.769  46.811  1.00  0.00     0.027 A 
HETATM   37  C   UNL     1      23.577  40.809  47.430  1.00  0.00     0.041 A 
ENDBRANCH   3  33
TORSDOF 7
ENDMDL
MODEL 8
REMARK VINA RESULT:      -9.9      2.564      8.464
REMARK  7 active torsions:
REMARK  status: ('A' for Active; 'I' for Inactive)
REMARK    1  A    between atoms: C_2  and  C_3 
REMARK    2  A    between atoms: C_5  and  N_6 
REMARK    3  A    between atoms: C_8  and  C_9 
REMARK    4  A    between atoms: C_15  and  N_16 
REMARK       I    between atoms: N_16  and  C_17 
REMARK    5  A    between atoms: C_17  and  C_18 
REMARK    6  A    between atoms: C_18  and  O_19 
REMARK    7  A    between atoms: O_19  and  C_20 
ROOT
HETATM    1  N   UNL     1      25.008  47.052  50.640  1.00  0.00    -0.044 N 
HETATM    2  N   UNL     1      26.017  47.373  51.510  1.00  0.00    -0.148 NA
HETATM    3  C   UNL     1      25.964  46.414  52.440  1.00  0.00     0.115 C 
HETATM    4  C   UNL     1      24.989  45.434  52.149  1.00  0.00     0.087 C 
HETATM    5  C   UNL     1      24.471  45.800  50.929  1.00  0.00     0.152 C 
ENDROOT
BRANCH   5   6
HETATM    6  N   UNL     1      23.568  45.024  50.217  1.00  0.00    -0.309 N 
HETATM    7  C   UNL     1      24.004  44.221  49.105  1.00  0.00     0.247 C 
HETATM    8  O   UNL     1      25.197  44.000  48.952  1.00  0.00    -0.271 OA
HETATM    9  H   UNL     1      22.611  44.916  50.537  1.00  0.00     0.170 HD
BRANCH   7  10
HETATM   10  C   UNL     1      22.900  43.710  48.204  1.00  0.00     0.278 C 
BRANCH  10  11
HETATM   11  O   UNL     1      21.630  44.069  48.743  1.00  0.00    -0.342 OA
BRANCH  11  12
HETATM   12  C   UNL     1      20.946  45.013  48.019  1.00  0.00     0.070 A 
HETATM   13  C   UNL     1      19.635  45.258  48.435  1.00  0.00     0.049 A 
HETATM   14  C   UNL     1      18.824  46.195  47.768  1.00  0.00    -0.023 A 
HETATM   15  C   UNL     1      19.354  46.910  46.672  1.00  0.00    -0.026 A 
HETATM   16  C   UNL     1      17.497  46.434  48.162  1.00  0.00     0.012 A 
HETATM   17  C   UNL     1      20.677  46.674  46.276  1.00  0.00     0.015 A 
HETATM   18  C   UNL     1      18.549  47.844  46.000  1.00  0.00     0.012 A 
HETATM   19  C   UNL     1      21.469  45.734  46.944  1.00  0.00     0.037 A 
HETATM   20  C   UNL     1      17.232  48.068  46.404  1.00  0.00     0.001 A 
HETATM   21  C   UNL     1      16.707  47.364  47.483  1.00  0.00     0.001 A 
ENDBRANCH  11  12
ENDBRANCH  10  11
ENDBRANCH   7  10
ENDBRANCH   5   6
BRANCH   1  22
HETATM   22  C   UNL     1      24.557  48.034  49.733  1.00  0.00     0.732 A 
HETATM   23  N   UNL     1      23.309  48.334  49.547  1.00  0.00    -0.067 NA
HETATM   24  C   UNL     1      23.055  49.346  48.639  1.00  0.00     0.062 A 
HETATM   25  C   UNL     1      24.020  50.031  48.003  1.00  0.00     0.103 A 
HETATM   26  C   UNL     1      25.427  49.691  48.260  1.00  0.00     0.261 A 
HETATM   27  N   UNL     1      25.611  48.662  49.125  1.00  0.00    -0.152 N 
HETATM   28  O   UNL     1      26.343  50.305  47.733  1.00  0.00    -0.268 OA
HETATM   29  H   UNL     1      26.563  48.394  49.361  1.00  0.00     0.187 HD
BRANCH  24  30
HETATM   30  C   UNL     1      21.592  49.676  48.373  1.00  0.00     0.030 C 
HETATM   31  C   UNL     1      21.321  51.181  48.447  1.00  0.00     0.016 C 
HETATM   32  C   UNL     1      20.678  48.907  49.328  1.00  0.00     0.016 C 
ENDBRANCH  24  30
ENDBRANCH   1  22
BRANCH   3  33
HETATM   33  C   UNL     1      26.860  46.399  53.632  1.00  0.00     0.105 A 
HETATM   34  O   UNL     1      27.679  45.356  53.968  1.00  0.00    -0.320 OA
HETATM   35  C   UNL     1      28.336  45.710  55.103  1.00  0.00     0.142 A 
HETATM   36  C   UNL     1      27.955  46.966  55.510  1.00  0.00     0.027 A 
HETATM   37  C   UNL     1      27.002  47.413  54.562  1.00  0.00     0.041 A 
ENDBRANCH   3  33
TORSDOF 7
ENDMDL
MODEL 9
REMARK VINA RESULT:      -9.7      4.105      8.404
REMARK  7 active torsions:
REMARK  status: ('A' for Active; 'I' for Inactive)
REMARK    1  A    between atoms: C_2  and  C_3 
REMARK    2  A    between atoms: C_5  and  N_6 
REMARK    3  A    between atoms: C_8  and  C_9 
REMARK    4  A    between atoms: C_15  and  N_16 
REMARK       I    between atoms: N_16  and  C_17 
REMARK    5  A    between atoms: C_17  and  C_18 
REMARK    6  A    between atoms: C_18  and  O_19 
REMARK    7  A    between atoms: O_19  and  C_20 
ROOT
HETATM    1  N   UNL     1      26.198  45.818  51.701  1.00  0.00    -0.044 N 
HETATM    2  N   UNL     1      25.624  47.053  51.552  1.00  0.00    -0.148 NA
HETATM    3  C   UNL     1      25.299  47.107  50.255  1.00  0.00     0.115 C 
HETATM    4  C   UNL     1      25.582  45.901  49.578  1.00  0.00     0.087 C 
HETATM    5  C   UNL     1      26.047  45.048  50.551  1.00  0.00     0.152 C 
ENDROOT
BRANCH   5   6
HETATM    6  N   UNL     1      26.318  43.706  50.327  1.00  0.00    -0.309 N 
HETATM    7  C   UNL     1      25.463  42.682  50.868  1.00  0.00     0.247 C 
HETATM    8  O   UNL     1      24.355  42.982  51.289  1.00  0.00    -0.271 OA
HETATM    9  H   UNL     1      27.050  43.424  49.683  1.00  0.00     0.170 HD
BRANCH   7  10
HETATM   10  C   UNL     1      26.044  41.285  50.861  1.00  0.00     0.278 C 
BRANCH  10  11
HETATM   11  O   UNL     1      27.426  41.336  50.515  1.00  0.00    -0.342 OA
BRANCH  11  12
HETATM   12  C   UNL     1      27.846  40.328  49.683  1.00  0.00     0.070 A 
HETATM   13  C   UNL     1      27.541  40.497  48.331  1.00  0.00     0.049 A 
HETATM   14  C   UNL     1      27.906  39.529  47.377  1.00  0.00    -0.023 A 
HETATM   15  C   UNL     1      28.609  38.379  47.796  1.00  0.00    -0.026 A 
HETATM   16  C   UNL     1      27.584  39.675  46.017  1.00  0.00     0.012 A 
HETATM   17  C   UNL     1      28.931  38.229  49.151  1.00  0.00     0.015 A 
HETATM   18  C   UNL     1      28.974  37.407  46.849  1.00  0.00     0.012 A 
HETATM   19  C   UNL     1      28.555  39.196  50.089  1.00  0.00     0.037 A 
HETATM   20  C   UNL     1      28.645  37.568  45.503  1.00  0.00     0.001 A 
HETATM   21  C   UNL     1      27.951  38.701  45.087  1.00  0.00     0.001 A 
ENDBRANCH  11  12
ENDBRANCH  10  11
ENDBRANCH   7  10
ENDBRANCH   5   6
BRANCH   1  22
HETATM   22  C   UNL     1      26.965  45.563  52.857  1.00  0.00     0.732 A 
HETATM   23  N   UNL     1      27.777  44.560  52.985  1.00  0.00    -0.067 NA
HETATM   24  C   UNL     1      28.471  44.485  54.180  1.00  0.00     0.062 A 
HETATM   25  C   UNL     1      28.369  45.404  55.154  1.00  0.00     0.103 A 
HETATM   26  C   UNL     1      27.466  46.550  54.966  1.00  0.00     0.261 A 
HETATM   27  N   UNL     1      26.781  46.544  53.795  1.00  0.00    -0.152 N 
HETATM   28  O   UNL     1      27.362  47.431  55.807  1.00  0.00    -0.268 OA
HETATM   29  H   UNL     1      26.158  47.321  53.596  1.00  0.00     0.187 HD
BRANCH  24  30
HETATM   30  C   UNL     1      29.391  43.285  54.364  1.00  0.00     0.030 C 
HETATM   31  C   UNL     1      30.529  43.581  55.344  1.00  0.00     0.016 C 
HETATM   32  C   UNL     1      29.937  42.806  53.018  1.00  0.00     0.016 C 
ENDBRANCH  24  30
ENDBRANCH   1  22
BRANCH   3  33
HETATM   33  C   UNL     1      24.691  48.317  49.629  1.00  0.00     0.105 A 
HETATM   34  O   UNL     1      23.409  48.738  49.853  1.00  0.00    -0.320 OA
HETATM   35  C   UNL     1      23.221  49.864  49.117  1.00  0.00     0.142 A 
HETATM   36  C   UNL     1      24.361  50.179  48.417  1.00  0.00     0.027 A 
HETATM   37  C   UNL     1      25.311  49.182  48.746  1.00  0.00     0.041 A 
ENDBRANCH   3  33
TORSDOF 7
ENDMDL
MODEL 10
REMARK VINA RESULT:      -9.6      4.461      9.755
REMARK  7 active torsions:
REMARK  status: ('A' for Active; 'I' for Inactive)
REMARK    1  A    between atoms: C_2  and  C_3 
REMARK    2  A    between atoms: C_5  and  N_6 
REMARK    3  A    between atoms: C_8  and  C_9 
REMARK    4  A    between atoms: C_15  and  N_16 
REMARK       I    between atoms: N_16  and  C_17 
REMARK    5  A    between atoms: C_17  and  C_18 
REMARK    6  A    between atoms: C_18  and  O_19 
REMARK    7  A    between atoms: O_19  and  C_20 
ROOT
HETATM    1  N   UNL     1      21.875  48.733  49.111  1.00  0.00    -0.044 N 
HETATM    2  N   UNL     1      23.030  49.465  49.006  1.00  0.00    -0.148 NA
HETATM    3  C   UNL     1      24.001  48.545  49.025  1.00  0.00     0.115 C 
HETATM    4  C   UNL     1      23.495  47.227  49.062  1.00  0.00     0.087 C 
HETATM    5  C   UNL     1      22.129  47.369  48.996  1.00  0.00     0.152 C 
ENDROOT
BRANCH   5   6
HETATM    6  N   UNL     1      21.253  46.300  48.875  1.00  0.00    -0.309 N 
HETATM    7  C   UNL     1      20.603  46.020  47.622  1.00  0.00     0.247 C 
HETATM    8  O   UNL     1      21.019  46.540  46.597  1.00  0.00    -0.271 OA
HETATM    9  H   UNL     1      21.146  45.629  49.629  1.00  0.00     0.170 HD
BRANCH   7  10
HETATM   10  C   UNL     1      19.426  45.072  47.703  1.00  0.00     0.278 C 
BRANCH  10  11
HETATM   11  O   UNL     1      18.461  45.410  46.709  1.00  0.00    -0.342 OA
BRANCH  11  12
HETATM   12  C   UNL     1      17.696  46.511  47.004  1.00  0.00     0.070 A 
HETATM   13  C   UNL     1      17.516  47.416  45.956  1.00  0.00     0.049 A 
HETATM   14  C   UNL     1      16.762  48.591  46.132  1.00  0.00    -0.023 A 
HETATM   15  C   UNL     1      16.165  48.847  47.386  1.00  0.00    -0.026 A 
HETATM   16  C   UNL     1      16.592  49.522  45.093  1.00  0.00     0.012 A 
HETATM   17  C   UNL     1      16.333  47.922  48.425  1.00  0.00     0.015 A 
HETATM   18  C   UNL     1      15.414  50.019  47.569  1.00  0.00     0.012 A 
HETATM   19  C   UNL     1      17.091  46.761  48.237  1.00  0.00     0.037 A 
HETATM   20  C   UNL     1      15.257  50.933  46.527  1.00  0.00     0.001 A 
HETATM   21  C   UNL     1      15.845  50.685  45.290  1.00  0.00     0.001 A 
ENDBRANCH  11  12
ENDBRANCH  10  11
ENDBRANCH   7  10
ENDBRANCH   5   6
BRANCH   1  22
HETATM   22  C   UNL     1      20.683  49.397  49.469  1.00  0.00     0.732 A 
HETATM   23  N   UNL     1      20.277  50.504  48.928  1.00  0.00    -0.067 NA
HETATM   24  C   UNL     1      19.067  50.997  49.383  1.00  0.00     0.062 A 
HETATM   25  C   UNL     1      18.308  50.369  50.297  1.00  0.00     0.103 A 
HETATM   26  C   UNL     1      18.779  49.098  50.867  1.00  0.00     0.261 A 
HETATM   27  N   UNL     1      19.991  48.690  50.415  1.00  0.00    -0.152 N 
HETATM   28  O   UNL     1      18.111  48.470  51.676  1.00  0.00    -0.268 OA
HETATM   29  H   UNL     1      20.360  47.806  50.754  1.00  0.00     0.187 HD
BRANCH  24  30
HETATM   30  C   UNL     1      18.601  52.321  48.793  1.00  0.00     0.030 C 
HETATM   31  C   UNL     1      17.285  52.795  49.416  1.00  0.00     0.016 C 
HETATM   32  C   UNL     1      18.486  52.229  47.271  1.00  0.00     0.016 C 
ENDBRANCH  24  30
ENDBRANCH   1  22
BRANCH   3  33
HETATM   33  C   UNL     1      25.448  48.905  48.991  1.00  0.00     0.105 A 
HETATM   34  O   UNL     1      25.948  50.035  48.404  1.00  0.00    -0.320 OA
HETATM   35  C   UNL     1      27.295  50.016  48.577  1.00  0.00     0.142 A 
HETATM   36  C   UNL     1      27.677  48.890  49.266  1.00  0.00     0.027 A 
HETATM   37  C   UNL     1      26.487  48.171  49.533  1.00  0.00     0.041 A 
ENDBRANCH   3  33
TORSDOF 7
ENDMDL
