MODEL 1
REMARK VINA RESULT:      -9.1      0.000      0.000
REMARK  6 active torsions:
REMARK  status: ('A' for Active; 'I' for Inactive)
REMARK    1  A    between atoms: C_3  and  C_4 
REMARK    2  A    between atoms: C_4  and  N_5 
REMARK       I    between atoms: N_5  and  C_6 
REMARK    3  A    between atoms: C_6  and  C_7 
REMARK    4  A    between atoms: C_7  and  N_8 
REMARK    5  A    between atoms: C_12  and  N_13 
REMARK       I    between atoms: N_13  and  C_14 
REMARK       I    between atoms: C_14  and  N_15 
REMARK    6  A    between atoms: N_15  and  C_16 
ROOT
HETATM    1  N   UNL     1      25.106  45.687  50.463  1.00  0.00    -0.063 N 
HETATM    2  H   UNL     1      24.517  45.393  49.674  1.00  0.00     0.280 HD
HETATM    3  C   UNL     1      26.534  45.486  50.008  1.00  0.00     0.237 C 
HETATM    4  C   UNL     1      26.872  44.013  49.866  1.00  0.00     0.053 C 
HETATM    5  C   UNL     1      26.494  43.156  51.074  1.00  0.00     0.089 C 
HETATM    6  C   UNL     1      25.048  43.402  51.498  1.00  0.00     0.053 C 
HETATM    7  C   UNL     1      24.660  44.863  51.642  1.00  0.00     0.237 C 
ENDROOT
BRANCH   1   8
HETATM    8  C   UNL     1      24.772  47.181  50.670  1.00  0.00     0.337 C 
BRANCH   8   9
HETATM    9  C   UNL     1      23.972  47.867  49.555  1.00  0.00     0.243 C 
HETATM   10  N   UNL     1      22.655  47.494  49.432  1.00  0.00    -0.355 N 
HETATM   11  H   UNL     1      22.153  47.235  50.277  1.00  0.00     0.162 HD
HETATM   12  O   UNL     1      24.497  48.726  48.850  1.00  0.00    -0.272 OA
BRANCH  10  13
HETATM   13  C   UNL     1      21.808  48.161  48.461  1.00  0.00     0.169 C 
BRANCH  13  14
HETATM   14  C   UNL     1      20.881  49.160  49.104  1.00  0.00     0.006 A 
HETATM   15  C   UNL     1      21.093  50.528  49.243  1.00  0.00    -0.047 A 
HETATM   16  C   UNL     1      22.293  51.270  48.743  1.00  0.00     0.049 C 
HETATM   17  C   UNL     1      20.016  51.160  49.948  1.00  0.00     0.015 A 
HETATM   18  C   UNL     1      19.034  50.275  50.320  1.00  0.00     0.051 A 
HETATM   19  S   UNL     1      19.396  48.686  49.833  1.00  0.00    -0.104 SA
ENDBRANCH  13  14
ENDBRANCH  10  13
ENDBRANCH   8   9
ENDBRANCH   1   8
BRANCH   5  20
HETATM   20  N   UNL     1      27.465  43.176  52.170  1.00  0.00    -0.338 N 
HETATM   21  C   UNL     1      27.977  42.106  52.826  1.00  0.00     0.321 C 
HETATM   22  N   UNL     1      28.884  42.320  53.807  1.00  0.00    -0.309 N 
HETATM   23  O   UNL     1      27.688  40.952  52.519  1.00  0.00    -0.247 OA
HETATM   24  H   UNL     1      29.358  41.462  54.073  1.00  0.00     0.170 HD
HETATM   25  H   UNL     1      28.069  43.990  52.211  1.00  0.00     0.164 HD
BRANCH  22  26
HETATM   26  C   UNL     1      29.228  43.454  54.566  1.00  0.00     0.036 A 
HETATM   27  C   UNL     1      28.399  44.561  54.757  1.00  0.00     0.029 A 
HETATM   28  C   UNL     1      28.826  45.635  55.546  1.00  0.00     0.002 A 
HETATM   29  C   UNL     1      30.074  45.601  56.164  1.00  0.00     0.000 A 
HETATM   30  C   UNL     1      30.894  44.489  56.006  1.00  0.00     0.002 A 
HETATM   31  C   UNL     1      30.470  43.418  55.217  1.00  0.00     0.029 A 
ENDBRANCH  22  26
ENDBRANCH   5  20
TORSDOF 6
ENDMDL
MODEL 2
REMARK VINA RESULT:      -8.9      1.513      2.097
REMARK  6 active torsions:
REMARK  status: ('A' for Active; 'I' for Inactive)
REMARK    1  A    between atoms: C_3  and  C_4 
REMARK    2  A    between atoms: C_4  and  N_5 
REMARK       I    between atoms: N_5  and  C_6 
REMARK    3  A    between atoms: C_6  and  C_7 
REMARK    4  A    between atoms: C_7  and  N_8 
REMARK    5  A    between atoms: C_12  and  N_13 
REMARK       I    between atoms: N_13  and  C_14 
REMARK       I    between atoms: C_14  and  N_15 
REMARK    6  A    between atoms: N_15  and  C_16 
ROOT
HETATM    1  N   UNL     1      25.547  45.535  52.115  1.00  0.00    -0.063 N 
HETATM    2  H   UNL     1      24.734  45.065  51.697  1.00  0.00     0.280 HD
HETATM    3  C   UNL     1      26.761  44.939  51.439  1.00  0.00     0.237 C 
HETATM    4  C   UNL     1      26.968  43.491  51.840  1.00  0.00     0.053 C 
HETATM    5  C   UNL     1      26.928  43.237  53.348  1.00  0.00     0.089 C 
HETATM    6  C   UNL     1      25.690  43.866  53.983  1.00  0.00     0.053 C 
HETATM    7  C   UNL     1      25.435  45.314  53.600  1.00  0.00     0.237 C 
ENDROOT
BRANCH   1   8
HETATM    8  C   UNL     1      25.364  47.028  51.761  1.00  0.00     0.337 C 
BRANCH   8   9
HETATM    9  C   UNL     1      24.932  47.345  50.324  1.00  0.00     0.243 C 
HETATM   10  N   UNL     1      23.597  47.185  50.040  1.00  0.00    -0.355 N 
HETATM   11  H   UNL     1      22.928  47.370  50.782  1.00  0.00     0.162 HD
HETATM   12  O   UNL     1      25.751  47.754  49.502  1.00  0.00    -0.272 OA
BRANCH  10  13
HETATM   13  C   UNL     1      23.093  47.549  48.729  1.00  0.00     0.169 C 
BRANCH  13  14
HETATM   14  C   UNL     1      22.281  48.818  48.763  1.00  0.00     0.006 A 
HETATM   15  C   UNL     1      22.719  50.100  48.442  1.00  0.00    -0.047 A 
HETATM   16  C   UNL     1      24.096  50.447  47.971  1.00  0.00     0.049 C 
HETATM   17  C   UNL     1      21.684  51.074  48.633  1.00  0.00     0.015 A 
HETATM   18  C   UNL     1      20.511  50.520  49.085  1.00  0.00     0.051 A 
HETATM   19  S   UNL     1      20.642  48.837  49.287  1.00  0.00    -0.104 SA
ENDBRANCH  13  14
ENDBRANCH  10  13
ENDBRANCH   8   9
ENDBRANCH   1   8
BRANCH   5  20
HETATM   20  N   UNL     1      28.183  43.513  54.051  1.00  0.00    -0.338 N 
HETATM   21  C   UNL     1      29.394  42.958  53.803  1.00  0.00     0.321 C 
HETATM   22  N   UNL     1      30.453  43.353  54.550  1.00  0.00    -0.309 N 
HETATM   23  O   UNL     1      29.572  42.156  52.890  1.00  0.00    -0.247 OA
HETATM   24  H   UNL     1      31.332  43.050  54.143  1.00  0.00     0.170 HD
HETATM   25  H   UNL     1      28.248  44.420  54.500  1.00  0.00     0.164 HD
BRANCH  22  26
HETATM   26  C   UNL     1      30.562  44.013  55.788  1.00  0.00     0.036 A 
HETATM   27  C   UNL     1      31.387  43.600  56.835  1.00  0.00     0.029 A 
HETATM   28  C   UNL     1      31.440  44.337  58.024  1.00  0.00     0.002 A 
HETATM   29  C   UNL     1      30.685  45.499  58.166  1.00  0.00     0.000 A 
HETATM   30  C   UNL     1      29.884  45.935  57.116  1.00  0.00     0.002 A 
HETATM   31  C   UNL     1      29.829  45.200  55.930  1.00  0.00     0.029 A 
ENDBRANCH  22  26
ENDBRANCH   5  20
TORSDOF 6
ENDMDL
MODEL 3
REMARK VINA RESULT:      -8.3      4.727      8.053
REMARK  6 active torsions:
REMARK  status: ('A' for Active; 'I' for Inactive)
REMARK    1  A    between atoms: C_3  and  C_4 
REMARK    2  A    between atoms: C_4  and  N_5 
REMARK       I    between atoms: N_5  and  C_6 
REMARK    3  A    between atoms: C_6  and  C_7 
REMARK    4  A    between atoms: C_7  and  N_8 
REMARK    5  A    between atoms: C_12  and  N_13 
REMARK       I    between atoms: N_13  and  C_14 
REMARK       I    between atoms: C_14  and  N_15 
REMARK    6  A    between atoms: N_15  and  C_16 
ROOT
HETATM    1  N   UNL     1      25.527  44.569  51.703  1.00  0.00    -0.063 N 
HETATM    2  H   UNL     1      24.572  44.836  51.433  1.00  0.00     0.280 HD
HETATM    3  C   UNL     1      25.395  43.852  53.028  1.00  0.00     0.237 C 
HETATM    4  C   UNL     1      24.984  44.802  54.138  1.00  0.00     0.053 C 
HETATM    5  C   UNL     1      25.819  46.081  54.221  1.00  0.00     0.089 C 
HETATM    6  C   UNL     1      25.929  46.760  52.858  1.00  0.00     0.053 C 
HETATM    7  C   UNL     1      26.326  45.845  51.713  1.00  0.00     0.237 C 
ENDROOT
BRANCH   1   8
HETATM    8  C   UNL     1      26.006  43.622  50.581  1.00  0.00     0.337 C 
BRANCH   8   9
HETATM    9  C   UNL     1      27.201  42.717  50.909  1.00  0.00     0.243 C 
HETATM   10  N   UNL     1      27.003  41.366  50.752  1.00  0.00    -0.355 N 
HETATM   11  H   UNL     1      26.372  41.060  50.017  1.00  0.00     0.162 HD
HETATM   12  O   UNL     1      28.275  43.204  51.255  1.00  0.00    -0.272 OA
BRANCH  10  13
HETATM   13  C   UNL     1      28.109  40.450  50.956  1.00  0.00     0.169 C 
BRANCH  13  14
HETATM   14  C   UNL     1      28.340  39.560  49.762  1.00  0.00     0.006 A 
HETATM   15  C   UNL     1      29.165  38.441  49.701  1.00  0.00    -0.047 A 
HETATM   16  C   UNL     1      29.964  37.895  50.843  1.00  0.00     0.049 C 
HETATM   17  C   UNL     1      29.175  37.865  48.388  1.00  0.00     0.015 A 
HETATM   18  C   UNL     1      28.376  38.547  47.503  1.00  0.00     0.051 A 
HETATM   19  S   UNL     1      27.614  39.879  48.235  1.00  0.00    -0.104 SA
ENDBRANCH  13  14
ENDBRANCH  10  13
ENDBRANCH   8   9
ENDBRANCH   1   8
BRANCH   5  20
HETATM   20  N   UNL     1      27.087  45.941  54.939  1.00  0.00    -0.338 N 
HETATM   21  C   UNL     1      27.901  46.940  55.357  1.00  0.00     0.321 C 
HETATM   22  N   UNL     1      29.032  46.617  56.027  1.00  0.00    -0.309 N 
HETATM   23  O   UNL     1      27.617  48.125  55.199  1.00  0.00    -0.247 OA
HETATM   24  H   UNL     1      29.444  47.428  56.480  1.00  0.00     0.170 HD
HETATM   25  H   UNL     1      27.199  45.089  55.478  1.00  0.00     0.164 HD
BRANCH  22  26
HETATM   26  C   UNL     1      29.771  45.426  56.146  1.00  0.00     0.036 A 
HETATM   27  C   UNL     1      29.866  44.450  55.153  1.00  0.00     0.029 A 
HETATM   28  C   UNL     1      30.643  43.304  55.360  1.00  0.00     0.002 A 
HETATM   29  C   UNL     1      31.344  43.136  56.552  1.00  0.00     0.000 A 
HETATM   30  C   UNL     1      31.281  44.118  57.535  1.00  0.00     0.002 A 
HETATM   31  C   UNL     1      30.505  45.260  57.330  1.00  0.00     0.029 A 
ENDBRANCH  22  26
ENDBRANCH   5  20
TORSDOF 6
ENDMDL
MODEL 4
REMARK VINA RESULT:      -8.0      1.684      2.130
REMARK  6 active torsions:
REMARK  status: ('A' for Active; 'I' for Inactive)
REMARK    1  A    between atoms: C_3  and  C_4 
REMARK    2  A    between atoms: C_4  and  N_5 
REMARK       I    between atoms: N_5  and  C_6 
REMARK    3  A    between atoms: C_6  and  C_7 
REMARK    4  A    between atoms: C_7  and  N_8 
REMARK    5  A    between atoms: C_12  and  N_13 
REMARK       I    between atoms: N_13  and  C_14 
REMARK       I    between atoms: C_14  and  N_15 
REMARK    6  A    between atoms: N_15  and  C_16 
ROOT
HETATM    1  N   UNL     1      25.881  46.748  49.730  1.00  0.00    -0.063 N 
HETATM    2  H   UNL     1      25.360  46.518  48.875  1.00  0.00     0.280 HD
HETATM    3  C   UNL     1      27.091  45.841  49.732  1.00  0.00     0.237 C 
HETATM    4  C   UNL     1      26.701  44.392  49.957  1.00  0.00     0.053 C 
HETATM    5  C   UNL     1      25.770  44.162  51.147  1.00  0.00     0.089 C 
HETATM    6  C   UNL     1      24.570  45.108  51.103  1.00  0.00     0.053 C 
HETATM    7  C   UNL     1      24.911  46.568  50.868  1.00  0.00     0.237 C 
ENDROOT
BRANCH   1   8
HETATM    8  C   UNL     1      26.274  48.234  49.564  1.00  0.00     0.337 C 
BRANCH   8   9
HETATM    9  C   UNL     1      25.302  49.117  48.772  1.00  0.00     0.243 C 
HETATM   10  N   UNL     1      23.971  48.781  48.851  1.00  0.00    -0.355 N 
HETATM   11  H   UNL     1      23.634  48.376  49.719  1.00  0.00     0.162 HD
HETATM   12  O   UNL     1      25.715  50.087  48.140  1.00  0.00    -0.272 OA
BRANCH  10  13
HETATM   13  C   UNL     1      22.980  49.620  48.203  1.00  0.00     0.169 C 
BRANCH  13  14
HETATM   14  C   UNL     1      21.651  49.584  48.913  1.00  0.00     0.006 A 
HETATM   15  C   UNL     1      20.680  48.591  48.820  1.00  0.00    -0.047 A 
HETATM   16  C   UNL     1      20.798  47.344  48.002  1.00  0.00     0.049 C 
HETATM   17  C   UNL     1      19.522  48.912  49.602  1.00  0.00     0.015 A 
HETATM   18  C   UNL     1      19.639  50.115  50.255  1.00  0.00     0.051 A 
HETATM   19  S   UNL     1      21.130  50.867  49.934  1.00  0.00    -0.104 SA
ENDBRANCH  13  14
ENDBRANCH  10  13
ENDBRANCH   8   9
ENDBRANCH   1   8
BRANCH   5  20
HETATM   20  N   UNL     1      26.440  44.085  52.447  1.00  0.00    -0.338 N 
HETATM   21  C   UNL     1      25.853  44.092  53.668  1.00  0.00     0.321 C 
HETATM   22  N   UNL     1      26.639  43.994  54.766  1.00  0.00    -0.309 N 
HETATM   23  O   UNL     1      24.633  44.126  53.807  1.00  0.00    -0.247 OA
HETATM   24  H   UNL     1      26.096  43.787  55.599  1.00  0.00     0.170 HD
HETATM   25  H   UNL     1      27.351  43.639  52.449  1.00  0.00     0.164 HD
BRANCH  22  26
HETATM   26  C   UNL     1      28.014  44.198  54.984  1.00  0.00     0.036 A 
HETATM   27  C   UNL     1      28.560  45.327  55.597  1.00  0.00     0.029 A 
HETATM   28  C   UNL     1      29.943  45.428  55.786  1.00  0.00     0.002 A 
HETATM   29  C   UNL     1      30.786  44.396  55.380  1.00  0.00     0.000 A 
HETATM   30  C   UNL     1      30.249  43.254  54.796  1.00  0.00     0.002 A 
HETATM   31  C   UNL     1      28.869  43.152  54.606  1.00  0.00     0.029 A 
ENDBRANCH  22  26
ENDBRANCH   5  20
TORSDOF 6
ENDMDL
MODEL 5
REMARK VINA RESULT:      -7.8      2.647      3.538
REMARK  6 active torsions:
REMARK  status: ('A' for Active; 'I' for Inactive)
REMARK    1  A    between atoms: C_3  and  C_4 
REMARK    2  A    between atoms: C_4  and  N_5 
REMARK       I    between atoms: N_5  and  C_6 
REMARK    3  A    between atoms: C_6  and  C_7 
REMARK    4  A    between atoms: C_7  and  N_8 
REMARK    5  A    between atoms: C_12  and  N_13 
REMARK       I    between atoms: N_13  and  C_14 
REMARK       I    between atoms: C_14  and  N_15 
REMARK    6  A    between atoms: N_15  and  C_16 
ROOT
HETATM    1  N   UNL     1      25.071  42.584  49.438  1.00  0.00    -0.063 N 
HETATM    2  H   UNL     1      24.949  41.939  48.648  1.00  0.00     0.280 HD
HETATM    3  C   UNL     1      26.408  43.256  49.220  1.00  0.00     0.237 C 
HETATM    4  C   UNL     1      27.557  42.281  49.402  1.00  0.00     0.053 C 
HETATM    5  C   UNL     1      27.495  41.459  50.689  1.00  0.00     0.089 C 
HETATM    6  C   UNL     1      26.123  40.811  50.867  1.00  0.00     0.053 C 
HETATM    7  C   UNL     1      24.941  41.746  50.682  1.00  0.00     0.237 C 
ENDROOT
BRANCH   1   8
HETATM    8  C   UNL     1      23.898  43.583  49.317  1.00  0.00     0.337 C 
BRANCH   8   9
HETATM    9  C   UNL     1      24.028  44.894  50.102  1.00  0.00     0.243 C 
HETATM   10  N   UNL     1      24.115  46.046  49.356  1.00  0.00    -0.355 N 
HETATM   11  H   UNL     1      23.617  46.077  48.472  1.00  0.00     0.162 HD
HETATM   12  O   UNL     1      24.016  44.888  51.332  1.00  0.00    -0.272 OA
BRANCH  10  13
HETATM   13  C   UNL     1      24.151  47.333  50.025  1.00  0.00     0.169 C 
BRANCH  13  14
HETATM   14  C   UNL     1      25.242  48.224  49.488  1.00  0.00     0.006 A 
HETATM   15  C   UNL     1      25.084  49.330  48.658  1.00  0.00    -0.047 A 
HETATM   16  C   UNL     1      23.773  49.858  48.164  1.00  0.00     0.049 C 
HETATM   17  C   UNL     1      26.347  49.911  48.309  1.00  0.00     0.015 A 
HETATM   18  C   UNL     1      27.411  49.246  48.870  1.00  0.00     0.051 A 
HETATM   19  S   UNL     1      26.905  47.923  49.811  1.00  0.00    -0.104 SA
ENDBRANCH  13  14
ENDBRANCH  10  13
ENDBRANCH   8   9
ENDBRANCH   1   8
BRANCH   5  20
HETATM   20  N   UNL     1      28.008  42.140  51.880  1.00  0.00    -0.338 N 
HETATM   21  C   UNL     1      28.640  41.572  52.935  1.00  0.00     0.321 C 
HETATM   22  N   UNL     1      29.063  42.369  53.944  1.00  0.00    -0.309 N 
HETATM   23  O   UNL     1      28.890  40.370  52.977  1.00  0.00    -0.247 OA
HETATM   24  H   UNL     1      29.706  41.883  54.561  1.00  0.00     0.170 HD
HETATM   25  H   UNL     1      28.238  43.121  51.763  1.00  0.00     0.164 HD
BRANCH  22  26
HETATM   26  C   UNL     1      28.730  43.679  54.337  1.00  0.00     0.036 A 
HETATM   27  C   UNL     1      27.545  44.332  53.993  1.00  0.00     0.029 A 
HETATM   28  C   UNL     1      27.297  45.631  54.450  1.00  0.00     0.002 A 
HETATM   29  C   UNL     1      28.221  46.278  55.268  1.00  0.00     0.000 A 
HETATM   30  C   UNL     1      29.390  45.623  55.641  1.00  0.00     0.002 A 
HETATM   31  C   UNL     1      29.639  44.328  55.185  1.00  0.00     0.029 A 
ENDBRANCH  22  26
ENDBRANCH   5  20
TORSDOF 6
ENDMDL
MODEL 6
REMARK VINA RESULT:      -7.7      4.266     11.651
REMARK  6 active torsions:
REMARK  status: ('A' for Active; 'I' for Inactive)
REMARK    1  A    between atoms: C_3  and  C_4 
REMARK    2  A    between atoms: C_4  and  N_5 
REMARK       I    between atoms: N_5  and  C_6 
REMARK    3  A    between atoms: C_6  and  C_7 
REMARK    4  A    between atoms: C_7  and  N_8 
REMARK    5  A    between atoms: C_12  and  N_13 
REMARK       I    between atoms: N_13  and  C_14 
REMARK       I    between atoms: C_14  and  N_15 
REMARK    6  A    between atoms: N_15  and  C_16 
ROOT
HETATM    1  N   UNL     1      21.325  48.911  49.683  1.00  0.00    -0.063 N 
HETATM    2  H   UNL     1      21.455  48.663  50.671  1.00  0.00     0.280 HD
HETATM    3  C   UNL     1      21.472  50.414  49.612  1.00  0.00     0.237 C 
HETATM    4  C   UNL     1      20.312  51.120  50.291  1.00  0.00     0.053 C 
HETATM    5  C   UNL     1      18.930  50.626  49.864  1.00  0.00     0.089 C 
HETATM    6  C   UNL     1      18.837  49.103  49.945  1.00  0.00     0.053 C 
HETATM    7  C   UNL     1      19.983  48.353  49.289  1.00  0.00     0.237 C 
ENDROOT
BRANCH   1   8
HETATM    8  C   UNL     1      22.468  48.184  48.939  1.00  0.00     0.337 C 
BRANCH   8   9
HETATM    9  C   UNL     1      23.851  48.221  49.603  1.00  0.00     0.243 C 
HETATM   10  N   UNL     1      24.099  47.255  50.549  1.00  0.00    -0.355 N 
HETATM   11  H   UNL     1      23.663  46.346  50.425  1.00  0.00     0.162 HD
HETATM   12  O   UNL     1      24.684  49.058  49.261  1.00  0.00    -0.272 OA
BRANCH  10  13
HETATM   13  C   UNL     1      25.412  47.167  51.158  1.00  0.00     0.169 C 
BRANCH  13  14
HETATM   14  C   UNL     1      25.468  46.125  52.245  1.00  0.00     0.006 A 
HETATM   15  C   UNL     1      25.807  46.328  53.580  1.00  0.00    -0.047 A 
HETATM   16  C   UNL     1      26.158  47.648  54.190  1.00  0.00     0.049 C 
HETATM   17  C   UNL     1      25.798  45.098  54.318  1.00  0.00     0.015 A 
HETATM   18  C   UNL     1      25.460  44.016  53.543  1.00  0.00     0.051 A 
HETATM   19  S   UNL     1      25.157  44.462  51.930  1.00  0.00    -0.104 SA
ENDBRANCH  13  14
ENDBRANCH  10  13
ENDBRANCH   8   9
ENDBRANCH   1   8
BRANCH   5  20
HETATM   20  N   UNL     1      18.428  51.204  48.616  1.00  0.00    -0.338 N 
HETATM   21  C   UNL     1      17.368  52.036  48.472  1.00  0.00     0.321 C 
HETATM   22  N   UNL     1      17.063  52.487  47.233  1.00  0.00    -0.309 N 
HETATM   23  O   UNL     1      16.717  52.437  49.432  1.00  0.00    -0.247 OA
HETATM   24  H   UNL     1      16.407  53.262  47.267  1.00  0.00     0.170 HD
HETATM   25  H   UNL     1      19.105  51.292  47.866  1.00  0.00     0.164 HD
BRANCH  22  26
HETATM   26  C   UNL     1      17.404  52.049  45.940  1.00  0.00     0.036 A 
HETATM   27  C   UNL     1      18.085  50.863  45.659  1.00  0.00     0.029 A 
HETATM   28  C   UNL     1      18.363  50.504  44.335  1.00  0.00     0.002 A 
HETATM   29  C   UNL     1      17.946  51.318  43.284  1.00  0.00     0.000 A 
HETATM   30  C   UNL     1      17.240  52.486  43.552  1.00  0.00     0.002 A 
HETATM   31  C   UNL     1      16.964  52.845  44.872  1.00  0.00     0.029 A 
ENDBRANCH  22  26
ENDBRANCH   5  20
TORSDOF 6
ENDMDL
MODEL 7
REMARK VINA RESULT:      -7.7      1.788      2.481
REMARK  6 active torsions:
REMARK  status: ('A' for Active; 'I' for Inactive)
REMARK    1  A    between atoms: C_3  and  C_4 
REMARK    2  A    between atoms: C_4  and  N_5 
REMARK       I    between atoms: N_5  and  C_6 
REMARK    3  A    between atoms: C_6  and  C_7 
REMARK    4  A    between atoms: C_7  and  N_8 
REMARK    5  A    between atoms: C_12  and  N_13 
REMARK       I    between atoms: N_13  and  C_14 
REMARK       I    between atoms: C_14  and  N_15 
REMARK    6  A    between atoms: N_15  and  C_16 
ROOT
HETATM    1  N   UNL     1      24.414  44.581  49.135  1.00  0.00    -0.063 N 
HETATM    2  H   UNL     1      24.560  44.753  48.132  1.00  0.00     0.280 HD
HETATM    3  C   UNL     1      25.096  45.725  49.852  1.00  0.00     0.237 C 
HETATM    4  C   UNL     1      26.605  45.650  49.714  1.00  0.00     0.053 C 
HETATM    5  C   UNL     1      27.206  44.283  50.044  1.00  0.00     0.089 C 
HETATM    6  C   UNL     1      26.478  43.164  49.303  1.00  0.00     0.053 C 
HETATM    7  C   UNL     1      24.963  43.205  49.403  1.00  0.00     0.237 C 
ENDROOT
BRANCH   1   8
HETATM    8  C   UNL     1      22.881  44.615  49.323  1.00  0.00     0.337 C 
BRANCH   8   9
HETATM    9  C   UNL     1      22.105  45.620  48.461  1.00  0.00     0.243 C 
HETATM   10  N   UNL     1      21.124  46.340  49.101  1.00  0.00    -0.355 N 
HETATM   11  H   UNL     1      21.268  46.574  50.079  1.00  0.00     0.162 HD
HETATM   12  O   UNL     1      22.392  45.777  47.277  1.00  0.00    -0.272 OA
BRANCH  10  13
HETATM   13  C   UNL     1      20.407  47.374  48.378  1.00  0.00     0.169 C 
BRANCH  13  14
HETATM   14  C   UNL     1      20.891  48.757  48.731  1.00  0.00     0.006 A 
HETATM   15  C   UNL     1      20.290  49.652  49.612  1.00  0.00    -0.047 A 
HETATM   16  C   UNL     1      19.047  49.383  50.400  1.00  0.00     0.049 C 
HETATM   17  C   UNL     1      21.004  50.894  49.668  1.00  0.00     0.015 A 
HETATM   18  C   UNL     1      22.104  50.912  48.846  1.00  0.00     0.051 A 
HETATM   19  S   UNL     1      22.287  49.447  48.002  1.00  0.00    -0.104 SA
ENDBRANCH  13  14
ENDBRANCH  10  13
ENDBRANCH   8   9
ENDBRANCH   1   8
BRANCH   5  20
HETATM   20  N   UNL     1      27.418  44.035  51.472  1.00  0.00    -0.338 N 
HETATM   21  C   UNL     1      26.465  43.846  52.416  1.00  0.00     0.321 C 
HETATM   22  N   UNL     1      26.855  43.609  53.691  1.00  0.00    -0.309 N 
HETATM   23  O   UNL     1      25.268  43.826  52.143  1.00  0.00    -0.247 OA
HETATM   24  H   UNL     1      26.086  43.267  54.260  1.00  0.00     0.170 HD
HETATM   25  H   UNL     1      28.309  43.618  51.720  1.00  0.00     0.164 HD
BRANCH  22  26
HETATM   26  C   UNL     1      28.064  43.816  54.380  1.00  0.00     0.036 A 
HETATM   27  C   UNL     1      29.115  42.899  54.429  1.00  0.00     0.029 A 
HETATM   28  C   UNL     1      30.289  43.206  55.127  1.00  0.00     0.002 A 
HETATM   29  C   UNL     1      30.426  44.437  55.764  1.00  0.00     0.000 A 
HETATM   30  C   UNL     1      29.397  45.370  55.695  1.00  0.00     0.002 A 
HETATM   31  C   UNL     1      28.225  45.063  55.000  1.00  0.00     0.029 A 
ENDBRANCH  22  26
ENDBRANCH   5  20
TORSDOF 6
ENDMDL
MODEL 8
REMARK VINA RESULT:      -7.5      3.774      6.471
REMARK  6 active torsions:
REMARK  status: ('A' for Active; 'I' for Inactive)
REMARK    1  A    between atoms: C_3  and  C_4 
REMARK    2  A    between atoms: C_4  and  N_5 
REMARK       I    between atoms: N_5  and  C_6 
REMARK    3  A    between atoms: C_6  and  C_7 
REMARK    4  A    between atoms: C_7  and  N_8 
REMARK    5  A    between atoms: C_12  and  N_13 
REMARK       I    between atoms: N_13  and  C_14 
REMARK       I    between atoms: C_14  and  N_15 
REMARK    6  A    between atoms: N_15  and  C_16 
ROOT
HETATM    1  N   UNL     1      20.963  50.019  49.248  1.00  0.00    -0.063 N 
HETATM    2  H   UNL     1      20.616  50.437  48.376  1.00  0.00     0.280 HD
HETATM    3  C   UNL     1      22.176  50.833  49.640  1.00  0.00     0.237 C 
HETATM    4  C   UNL     1      23.330  50.611  48.680  1.00  0.00     0.053 C 
HETATM    5  C   UNL     1      23.649  49.143  48.398  1.00  0.00     0.089 C 
HETATM    6  C   UNL     1      22.391  48.365  48.016  1.00  0.00     0.053 C 
HETATM    7  C   UNL     1      21.205  48.565  48.943  1.00  0.00     0.237 C 
ENDROOT
BRANCH   1   8
HETATM    8  C   UNL     1      19.804  50.190  50.256  1.00  0.00     0.337 C 
BRANCH   8   9
HETATM    9  C   UNL     1      18.400  49.821  49.757  1.00  0.00     0.243 C 
HETATM   10  N   UNL     1      17.614  50.863  49.326  1.00  0.00    -0.355 N 
HETATM   11  H   UNL     1      18.074  51.655  48.887  1.00  0.00     0.162 HD
HETATM   12  O   UNL     1      18.040  48.646  49.723  1.00  0.00    -0.272 OA
BRANCH  10  13
HETATM   13  C   UNL     1      16.308  50.587  48.757  1.00  0.00     0.169 C 
BRANCH  13  14
HETATM   14  C   UNL     1      15.675  51.819  48.161  1.00  0.00     0.006 A 
HETATM   15  C   UNL     1      15.035  52.845  48.850  1.00  0.00    -0.047 A 
HETATM   16  C   UNL     1      14.881  52.922  50.336  1.00  0.00     0.049 C 
HETATM   17  C   UNL     1      14.512  53.835  47.953  1.00  0.00     0.015 A 
HETATM   18  C   UNL     1      14.762  53.542  46.635  1.00  0.00     0.051 A 
HETATM   19  S   UNL     1      15.619  52.083  46.462  1.00  0.00    -0.104 SA
ENDBRANCH  13  14
ENDBRANCH  10  13
ENDBRANCH   8   9
ENDBRANCH   1   8
BRANCH   5  20
HETATM   20  N   UNL     1      24.488  48.492  49.407  1.00  0.00    -0.338 N 
HETATM   21  C   UNL     1      25.842  48.463  49.446  1.00  0.00     0.321 C 
HETATM   22  N   UNL     1      26.448  47.823  50.473  1.00  0.00    -0.309 N 
HETATM   23  O   UNL     1      26.532  49.046  48.614  1.00  0.00    -0.247 OA
HETATM   24  H   UNL     1      27.436  48.049  50.526  1.00  0.00     0.170 HD
HETATM   25  H   UNL     1      24.064  48.364  50.320  1.00  0.00     0.164 HD
BRANCH  22  26
HETATM   26  C   UNL     1      26.002  46.869  51.407  1.00  0.00     0.036 A 
HETATM   27  C   UNL     1      25.450  45.631  51.072  1.00  0.00     0.029 A 
HETATM   28  C   UNL     1      25.053  44.741  52.076  1.00  0.00     0.002 A 
HETATM   29  C   UNL     1      25.222  45.073  53.419  1.00  0.00     0.000 A 
HETATM   30  C   UNL     1      25.800  46.291  53.762  1.00  0.00     0.002 A 
HETATM   31  C   UNL     1      26.195  47.180  52.761  1.00  0.00     0.029 A 
ENDBRANCH  22  26
ENDBRANCH   5  20
TORSDOF 6
ENDMDL
MODEL 9
REMARK VINA RESULT:      -7.3      3.781      6.474
REMARK  6 active torsions:
REMARK  status: ('A' for Active; 'I' for Inactive)
REMARK    1  A    between atoms: C_3  and  C_4 
REMARK    2  A    between atoms: C_4  and  N_5 
REMARK       I    between atoms: N_5  and  C_6 
REMARK    3  A    between atoms: C_6  and  C_7 
REMARK    4  A    between atoms: C_7  and  N_8 
REMARK    5  A    between atoms: C_12  and  N_13 
REMARK       I    between atoms: N_13  and  C_14 
REMARK       I    between atoms: C_14  and  N_15 
REMARK    6  A    between atoms: N_15  and  C_16 
ROOT
HETATM    1  N   UNL     1      20.704  49.933  49.319  1.00  0.00    -0.063 N 
HETATM    2  H   UNL     1      20.331  50.389  48.477  1.00  0.00     0.280 HD
HETATM    3  C   UNL     1      21.887  50.772  49.750  1.00  0.00     0.237 C 
HETATM    4  C   UNL     1      23.039  50.658  48.767  1.00  0.00     0.053 C 
HETATM    5  C   UNL     1      23.416  49.224  48.394  1.00  0.00     0.089 C 
HETATM    6  C   UNL     1      22.187  48.419  47.975  1.00  0.00     0.053 C 
HETATM    7  C   UNL     1      21.004  48.512  48.923  1.00  0.00     0.237 C 
ENDROOT
BRANCH   1   8
HETATM    8  C   UNL     1      19.551  49.994  50.345  1.00  0.00     0.337 C 
BRANCH   8   9
HETATM    9  C   UNL     1      18.245  50.646  49.873  1.00  0.00     0.243 C 
HETATM   10  N   UNL     1      17.489  49.921  48.982  1.00  0.00    -0.355 N 
HETATM   11  H   UNL     1      17.506  48.908  49.059  1.00  0.00     0.162 HD
HETATM   12  O   UNL     1      17.901  51.741  50.312  1.00  0.00    -0.272 OA
BRANCH  10  13
HETATM   13  C   UNL     1      16.198  50.428  48.557  1.00  0.00     0.169 C 
BRANCH  13  14
HETATM   14  C   UNL     1      15.945  50.185  47.092  1.00  0.00     0.006 A 
HETATM   15  C   UNL     1      16.475  50.902  46.022  1.00  0.00    -0.047 A 
HETATM   16  C   UNL     1      17.429  52.048  46.140  1.00  0.00     0.049 C 
HETATM   17  C   UNL     1      15.978  50.418  44.767  1.00  0.00     0.015 A 
HETATM   18  C   UNL     1      15.103  49.369  44.911  1.00  0.00     0.051 A 
HETATM   19  S   UNL     1      14.867  48.961  46.544  1.00  0.00    -0.104 SA
ENDBRANCH  13  14
ENDBRANCH  10  13
ENDBRANCH   8   9
ENDBRANCH   1   8
BRANCH   5  20
HETATM   20  N   UNL     1      24.291  48.549  49.353  1.00  0.00    -0.338 N 
HETATM   21  C   UNL     1      25.647  48.543  49.356  1.00  0.00     0.321 C 
HETATM   22  N   UNL     1      26.290  47.874  50.340  1.00  0.00    -0.309 N 
HETATM   23  O   UNL     1      26.305  49.172  48.530  1.00  0.00    -0.247 OA
HETATM   24  H   UNL     1      27.276  48.116  50.376  1.00  0.00     0.170 HD
HETATM   25  H   UNL     1      23.894  48.377  50.271  1.00  0.00     0.164 HD
BRANCH  22  26
HETATM   26  C   UNL     1      25.886  46.876  51.246  1.00  0.00     0.036 A 
HETATM   27  C   UNL     1      25.327  45.651  50.877  1.00  0.00     0.029 A 
HETATM   28  C   UNL     1      24.974  44.713  51.854  1.00  0.00     0.002 A 
HETATM   29  C   UNL     1      25.194  44.985  53.202  1.00  0.00     0.000 A 
HETATM   30  C   UNL     1      25.780  46.189  53.578  1.00  0.00     0.002 A 
HETATM   31  C   UNL     1      26.131  47.126  52.604  1.00  0.00     0.029 A 
ENDBRANCH  22  26
ENDBRANCH   5  20
TORSDOF 6
ENDMDL
MODEL 10
REMARK VINA RESULT:      -7.3      4.887      8.118
REMARK  6 active torsions:
REMARK  status: ('A' for Active; 'I' for Inactive)
REMARK    1  A    between atoms: C_3  and  C_4 
REMARK    2  A    between atoms: C_4  and  N_5 
REMARK       I    between atoms: N_5  and  C_6 
REMARK    3  A    between atoms: C_6  and  C_7 
REMARK    4  A    between atoms: C_7  and  N_8 
REMARK    5  A    between atoms: C_12  and  N_13 
REMARK       I    between atoms: N_13  and  C_14 
REMARK       I    between atoms: C_14  and  N_15 
REMARK    6  A    between atoms: N_15  and  C_16 
ROOT
HETATM    1  N   UNL     1      25.476  43.149  49.720  1.00  0.00    -0.063 N 
HETATM    2  H   UNL     1      24.974  43.543  48.915  1.00  0.00     0.280 HD
HETATM    3  C   UNL     1      24.606  43.430  50.925  1.00  0.00     0.237 C 
HETATM    4  C   UNL     1      24.562  44.912  51.248  1.00  0.00     0.053 C 
HETATM    5  C   UNL     1      25.932  45.588  51.319  1.00  0.00     0.089 C 
HETATM    6  C   UNL     1      26.774  45.265  50.085  1.00  0.00     0.053 C 
HETATM    7  C   UNL     1      26.836  43.794  49.716  1.00  0.00     0.237 C 
ENDROOT
BRANCH   1   8
HETATM    8  C   UNL     1      25.577  41.636  49.423  1.00  0.00     0.337 C 
BRANCH   8   9
HETATM    9  C   UNL     1      25.730  41.235  47.950  1.00  0.00     0.243 C 
HETATM   10  N   UNL     1      27.008  41.254  47.443  1.00  0.00    -0.355 N 
HETATM   11  H   UNL     1      27.772  41.026  48.073  1.00  0.00     0.162 HD
HETATM   12  O   UNL     1      24.751  40.885  47.294  1.00  0.00    -0.272 OA
BRANCH  10  13
HETATM   13  C   UNL     1      27.248  40.802  46.085  1.00  0.00     0.169 C 
BRANCH  13  14
HETATM   14  C   UNL     1      27.892  39.440  46.043  1.00  0.00     0.006 A 
HETATM   15  C   UNL     1      28.247  38.719  44.907  1.00  0.00    -0.047 A 
HETATM   16  C   UNL     1      28.072  39.189  43.498  1.00  0.00     0.049 C 
HETATM   17  C   UNL     1      28.797  37.439  45.247  1.00  0.00     0.015 A 
HETATM   18  C   UNL     1      28.844  37.224  46.603  1.00  0.00     0.051 A 
HETATM   19  S   UNL     1      28.229  38.548  47.475  1.00  0.00    -0.104 SA
ENDBRANCH  13  14
ENDBRANCH  10  13
ENDBRANCH   8   9
ENDBRANCH   1   8
BRANCH   5  20
HETATM   20  N   UNL     1      26.632  45.427  52.595  1.00  0.00    -0.338 N 
HETATM   21  C   UNL     1      26.518  46.215  53.691  1.00  0.00     0.321 C 
HETATM   22  N   UNL     1      27.235  45.898  54.795  1.00  0.00    -0.309 N 
HETATM   23  O   UNL     1      25.746  47.170  53.733  1.00  0.00    -0.247 OA
HETATM   24  H   UNL     1      26.913  46.409  55.611  1.00  0.00     0.170 HD
HETATM   25  H   UNL     1      26.939  44.486  52.816  1.00  0.00     0.164 HD
BRANCH  22  26
HETATM   26  C   UNL     1      28.360  45.080  55.007  1.00  0.00     0.036 A 
HETATM   27  C   UNL     1      28.531  43.809  54.455  1.00  0.00     0.029 A 
HETATM   28  C   UNL     1      29.698  43.079  54.710  1.00  0.00     0.002 A 
HETATM   29  C   UNL     1      30.707  43.621  55.502  1.00  0.00     0.000 A 
HETATM   30  C   UNL     1      30.560  44.899  56.031  1.00  0.00     0.002 A 
HETATM   31  C   UNL     1      29.396  45.627  55.777  1.00  0.00     0.029 A 
ENDBRANCH  22  26
ENDBRANCH   5  20
TORSDOF 6
ENDMDL
