MODEL 1
REMARK VINA RESULT:      -7.6      0.000      0.000
REMARK  2 active torsions:
REMARK  status: ('A' for Active; 'I' for Inactive)
REMARK    1  A    between atoms: S_2  and  N_3 
REMARK    2  A    between atoms: C_10  and  N_11 
ROOT
HETATM    1  N   UNL     1      25.420  45.542  51.515  1.00  0.00    -0.311 N 
HETATM    2  C   UNL     1      24.856  45.142  52.820  1.00  0.00     0.138 C 
HETATM    3  C   UNL     1      25.432  43.792  53.222  1.00  0.00     0.059 C 
HETATM    4  C   UNL     1      26.981  43.798  53.268  1.00  0.00     0.073 C 
HETATM    5  O   UNL     1      27.361  44.640  54.369  1.00  0.00    -0.339 OA
HETATM    6  C   UNL     1      28.627  44.496  54.864  1.00  0.00     0.078 A 
HETATM    7  C   UNL     1      29.424  43.366  54.656  1.00  0.00     0.005 A 
HETATM    8  C   UNL     1      28.913  42.209  53.857  1.00  0.00     0.222 C 
HETATM    9  C   UNL     1      27.431  42.345  53.527  1.00  0.00     0.076 C 
HETATM   10  C   UNL     1      29.088  45.558  55.641  1.00  0.00     0.037 A 
HETATM   11  C   UNL     1      30.362  45.512  56.204  1.00  0.00     0.003 A 
HETATM   12  C   UNL     1      31.169  44.396  56.003  1.00  0.00     0.001 A 
HETATM   13  C   UNL     1      30.703  43.324  55.239  1.00  0.00     0.012 A 
HETATM   14  C   UNL     1      27.558  44.396  51.963  1.00  0.00     0.059 C 
HETATM   15  C   UNL     1      26.882  45.711  51.559  1.00  0.00     0.138 C 
ENDROOT
BRANCH   8  16
HETATM   16  N   UNL     1      29.698  41.999  52.608  1.00  0.00    -0.071 N 
HETATM   17  H   UNL     1      29.295  42.498  51.807  1.00  0.00     0.275 HD
HETATM   18  H   UNL     1      30.655  42.357  52.721  1.00  0.00     0.275 HD
HETATM   19  H   UNL     1      29.772  41.004  52.361  1.00  0.00     0.275 HD
ENDBRANCH   8  16
BRANCH   1  20
HETATM   20  S   UNL     1      24.720  44.906  50.107  1.00  0.00     0.224 S 
HETATM   21  C   UNL     1      23.926  46.350  49.437  1.00  0.00     0.186 C 
HETATM   22  O   UNL     1      23.693  43.964  50.493  1.00  0.00    -0.206 OA
HETATM   23  O   UNL     1      25.803  44.510  49.228  1.00  0.00    -0.206 OA
ENDBRANCH   1  20
TORSDOF 2
ENDMDL
MODEL 2
REMARK VINA RESULT:      -7.3     12.919     13.823
REMARK  2 active torsions:
REMARK  status: ('A' for Active; 'I' for Inactive)
REMARK    1  A    between atoms: S_2  and  N_3 
REMARK    2  A    between atoms: C_10  and  N_11 
ROOT
HETATM    1  N   UNL     1      28.240  50.471  40.404  1.00  0.00    -0.311 N 
HETATM    2  C   UNL     1      28.414  49.409  41.415  1.00  0.00     0.138 C 
HETATM    3  C   UNL     1      29.759  48.729  41.201  1.00  0.00     0.059 C 
HETATM    4  C   UNL     1      30.942  49.728  41.241  1.00  0.00     0.073 C 
HETATM    5  O   UNL     1      31.043  50.199  42.595  1.00  0.00    -0.339 OA
HETATM    6  C   UNL     1      32.226  50.767  42.978  1.00  0.00     0.078 A 
HETATM    7  C   UNL     1      33.437  50.578  42.306  1.00  0.00     0.005 A 
HETATM    8  C   UNL     1      33.507  49.708  41.090  1.00  0.00     0.222 C 
HETATM    9  C   UNL     1      32.211  48.941  40.854  1.00  0.00     0.076 C 
HETATM   10  C   UNL     1      32.168  51.546  44.132  1.00  0.00     0.037 A 
HETATM   11  C   UNL     1      33.318  52.164  44.619  1.00  0.00     0.003 A 
HETATM   12  C   UNL     1      34.531  51.989  43.959  1.00  0.00     0.001 A 
HETATM   13  C   UNL     1      34.595  51.196  42.811  1.00  0.00     0.012 A 
HETATM   14  C   UNL     1      30.661  50.935  40.315  1.00  0.00     0.059 C 
HETATM   15  C   UNL     1      29.261  51.526  40.512  1.00  0.00     0.138 C 
ENDROOT
BRANCH   8  16
HETATM   16  N   UNL     1      33.876  50.478  39.869  1.00  0.00    -0.071 N 
HETATM   17  H   UNL     1      33.952  51.485  40.051  1.00  0.00     0.275 HD
HETATM   18  H   UNL     1      34.794  50.177  39.518  1.00  0.00     0.275 HD
HETATM   19  H   UNL     1      33.199  50.341  39.107  1.00  0.00     0.275 HD
ENDBRANCH   8  16
BRANCH   1  20
HETATM   20  S   UNL     1      27.690  50.032  38.861  1.00  0.00     0.224 S 
HETATM   21  C   UNL     1      25.967  49.725  39.186  1.00  0.00     0.186 C 
HETATM   22  O   UNL     1      28.310  48.778  38.495  1.00  0.00    -0.206 OA
HETATM   23  O   UNL     1      27.811  51.200  38.011  1.00  0.00    -0.206 OA
ENDBRANCH   1  20
TORSDOF 2
ENDMDL
MODEL 3
REMARK VINA RESULT:      -7.0     13.474     15.730
REMARK  2 active torsions:
REMARK  status: ('A' for Active; 'I' for Inactive)
REMARK    1  A    between atoms: S_2  and  N_3 
REMARK    2  A    between atoms: C_10  and  N_11 
ROOT
HETATM    1  N   UNL     1      32.602  50.714  42.258  1.00  0.00    -0.311 N 
HETATM    2  C   UNL     1      31.572  51.441  43.025  1.00  0.00     0.138 C 
HETATM    3  C   UNL     1      30.883  52.446  42.113  1.00  0.00     0.059 C 
HETATM    4  C   UNL     1      30.269  51.782  40.856  1.00  0.00     0.073 C 
HETATM    5  O   UNL     1      29.173  50.970  41.308  1.00  0.00    -0.339 OA
HETATM    6  C   UNL     1      28.235  50.604  40.384  1.00  0.00     0.078 A 
HETATM    7  C   UNL     1      28.047  51.258  39.162  1.00  0.00     0.005 A 
HETATM    8  C   UNL     1      28.888  52.438  38.791  1.00  0.00     0.222 C 
HETATM    9  C   UNL     1      29.751  52.919  39.951  1.00  0.00     0.076 C 
HETATM   10  C   UNL     1      27.427  49.528  40.746  1.00  0.00     0.037 A 
HETATM   11  C   UNL     1      26.430  49.079  39.882  1.00  0.00     0.003 A 
HETATM   12  C   UNL     1      26.233  49.715  38.660  1.00  0.00     0.001 A 
HETATM   13  C   UNL     1      27.031  50.804  38.301  1.00  0.00     0.012 A 
HETATM   14  C   UNL     1      31.309  50.870  40.163  1.00  0.00     0.059 C 
HETATM   15  C   UNL     1      32.034  49.940  41.142  1.00  0.00     0.138 C 
ENDROOT
BRANCH   8  16
HETATM   16  N   UNL     1      29.738  52.170  37.597  1.00  0.00    -0.071 N 
HETATM   17  H   UNL     1      29.816  52.988  36.982  1.00  0.00     0.275 HD
HETATM   18  H   UNL     1      30.696  51.932  37.885  1.00  0.00     0.275 HD
HETATM   19  H   UNL     1      29.384  51.382  37.039  1.00  0.00     0.275 HD
ENDBRANCH   8  16
BRANCH   1  20
HETATM   20  S   UNL     1      34.117  51.448  42.046  1.00  0.00     0.224 S 
HETATM   21  C   UNL     1      35.141  50.031  41.715  1.00  0.00     0.186 C 
HETATM   22  O   UNL     1      34.528  52.017  43.309  1.00  0.00    -0.206 OA
HETATM   23  O   UNL     1      34.037  52.264  40.851  1.00  0.00    -0.206 OA
ENDBRANCH   1  20
TORSDOF 2
ENDMDL
MODEL 4
REMARK VINA RESULT:      -7.0     13.790     15.358
REMARK  2 active torsions:
REMARK  status: ('A' for Active; 'I' for Inactive)
REMARK    1  A    between atoms: S_2  and  N_3 
REMARK    2  A    between atoms: C_10  and  N_11 
ROOT
HETATM    1  N   UNL     1      29.737  52.367  40.334  1.00  0.00    -0.311 N 
HETATM    2  C   UNL     1      30.438  53.269  41.268  1.00  0.00     0.138 C 
HETATM    3  C   UNL     1      31.337  52.447  42.181  1.00  0.00     0.059 C 
HETATM    4  C   UNL     1      32.346  51.576  41.391  1.00  0.00     0.073 C 
HETATM    5  O   UNL     1      33.276  52.479  40.770  1.00  0.00    -0.339 OA
HETATM    6  C   UNL     1      34.473  51.965  40.357  1.00  0.00     0.078 A 
HETATM    7  C   UNL     1      35.011  50.762  40.827  1.00  0.00     0.005 A 
HETATM    8  C   UNL     1      34.281  49.948  41.848  1.00  0.00     0.222 C 
HETATM    9  C   UNL     1      33.074  50.684  42.418  1.00  0.00     0.076 C 
HETATM   10  C   UNL     1      35.171  52.742  39.435  1.00  0.00     0.037 A 
HETATM   11  C   UNL     1      36.408  52.318  38.954  1.00  0.00     0.003 A 
HETATM   12  C   UNL     1      36.955  51.121  39.409  1.00  0.00     0.001 A 
HETATM   13  C   UNL     1      36.265  50.348  40.345  1.00  0.00     0.012 A 
HETATM   14  C   UNL     1      31.619  50.774  40.286  1.00  0.00     0.059 C 
HETATM   15  C   UNL     1      30.662  51.634  39.454  1.00  0.00     0.138 C 
ENDROOT
BRANCH   8  16
HETATM   16  N   UNL     1      33.865  48.620  41.315  1.00  0.00    -0.071 N 
HETATM   17  H   UNL     1      33.498  48.682  40.359  1.00  0.00     0.275 HD
HETATM   18  H   UNL     1      34.669  47.981  41.276  1.00  0.00     0.275 HD
HETATM   19  H   UNL     1      33.150  48.174  41.904  1.00  0.00     0.275 HD
ENDBRANCH   8  16
BRANCH   1  20
HETATM   20  S   UNL     1      28.338  51.576  40.875  1.00  0.00     0.224 S 
HETATM   21  C   UNL     1      27.663  50.983  39.339  1.00  0.00     0.186 C 
HETATM   22  O   UNL     1      27.432  52.567  41.412  1.00  0.00    -0.206 OA
HETATM   23  O   UNL     1      28.764  50.444  41.674  1.00  0.00    -0.206 OA
ENDBRANCH   1  20
TORSDOF 2
ENDMDL
MODEL 5
REMARK VINA RESULT:      -6.8      8.222     10.544
REMARK  2 active torsions:
REMARK  status: ('A' for Active; 'I' for Inactive)
REMARK    1  A    between atoms: S_2  and  N_3 
REMARK    2  A    between atoms: C_10  and  N_11 
ROOT
HETATM    1  N   UNL     1      22.178  46.095  47.016  1.00  0.00    -0.311 N 
HETATM    2  C   UNL     1      21.067  46.363  46.082  1.00  0.00     0.138 C 
HETATM    3  C   UNL     1      19.757  46.390  46.856  1.00  0.00     0.059 C 
HETATM    4  C   UNL     1      19.770  47.424  48.010  1.00  0.00     0.073 C 
HETATM    5  O   UNL     1      19.799  48.725  47.402  1.00  0.00    -0.339 OA
HETATM    6  C   UNL     1      19.418  49.789  48.170  1.00  0.00     0.078 A 
HETATM    7  C   UNL     1      18.654  49.677  49.336  1.00  0.00     0.005 A 
HETATM    8  C   UNL     1      18.189  48.339  49.817  1.00  0.00     0.222 C 
HETATM    9  C   UNL     1      18.460  47.234  48.802  1.00  0.00     0.076 C 
HETATM   10  C   UNL     1      19.819  51.039  47.701  1.00  0.00     0.037 A 
HETATM   11  C   UNL     1      19.476  52.193  48.402  1.00  0.00     0.003 A 
HETATM   12  C   UNL     1      18.719  52.099  49.566  1.00  0.00     0.001 A 
HETATM   13  C   UNL     1      18.303  50.849  50.030  1.00  0.00     0.012 A 
HETATM   14  C   UNL     1      21.041  47.252  48.875  1.00  0.00     0.059 C 
HETATM   15  C   UNL     1      22.322  47.144  48.040  1.00  0.00     0.138 C 
ENDROOT
BRANCH   8  16
HETATM   16  N   UNL     1      18.783  47.978  51.135  1.00  0.00    -0.071 N 
HETATM   17  H   UNL     1      18.184  48.256  51.921  1.00  0.00     0.275 HD
HETATM   18  H   UNL     1      18.902  46.960  51.208  1.00  0.00     0.275 HD
HETATM   19  H   UNL     1      19.708  48.404  51.272  1.00  0.00     0.275 HD
ENDBRANCH   8  16
BRANCH   1  20
HETATM   20  S   UNL     1      22.491  44.487  47.456  1.00  0.00     0.224 S 
HETATM   21  C   UNL     1      22.615  43.713  45.858  1.00  0.00     0.186 C 
HETATM   22  O   UNL     1      21.320  43.961  48.121  1.00  0.00    -0.206 OA
HETATM   23  O   UNL     1      23.789  44.460  48.098  1.00  0.00    -0.206 OA
ENDBRANCH   1  20
TORSDOF 2
ENDMDL
MODEL 6
REMARK VINA RESULT:      -6.7     13.203     15.616
REMARK  2 active torsions:
REMARK  status: ('A' for Active; 'I' for Inactive)
REMARK    1  A    between atoms: S_2  and  N_3 
REMARK    2  A    between atoms: C_10  and  N_11 
ROOT
HETATM    1  N   UNL     1      31.818  51.720  41.542  1.00  0.00    -0.311 N 
HETATM    2  C   UNL     1      32.034  51.975  40.105  1.00  0.00     0.138 C 
HETATM    3  C   UNL     1      32.007  50.654  39.351  1.00  0.00     0.059 C 
HETATM    4  C   UNL     1      30.693  49.866  39.581  1.00  0.00     0.073 C 
HETATM    5  O   UNL     1      29.645  50.612  38.940  1.00  0.00    -0.339 OA
HETATM    6  C   UNL     1      28.484  49.949  38.654  1.00  0.00     0.078 A 
HETATM    7  C   UNL     1      28.377  48.557  38.577  1.00  0.00     0.005 A 
HETATM    8  C   UNL     1      29.573  47.687  38.806  1.00  0.00     0.222 C 
HETATM    9  C   UNL     1      30.864  48.493  38.899  1.00  0.00     0.076 C 
HETATM   10  C   UNL     1      27.379  50.760  38.403  1.00  0.00     0.037 A 
HETATM   11  C   UNL     1      26.147  50.190  38.091  1.00  0.00     0.003 A 
HETATM   12  C   UNL     1      26.023  48.805  38.015  1.00  0.00     0.001 A 
HETATM   13  C   UNL     1      27.132  47.990  38.251  1.00  0.00     0.012 A 
HETATM   14  C   UNL     1      30.379  49.768  41.092  1.00  0.00     0.059 C 
HETATM   15  C   UNL     1      30.505  51.112  41.817  1.00  0.00     0.138 C 
ENDROOT
BRANCH   8  16
HETATM   16  N   UNL     1      29.419  46.826  40.013  1.00  0.00    -0.071 N 
HETATM   17  H   UNL     1      28.455  46.815  40.362  1.00  0.00     0.275 HD
HETATM   18  H   UNL     1      29.659  45.851  39.790  1.00  0.00     0.275 HD
HETATM   19  H   UNL     1      30.035  47.123  40.780  1.00  0.00     0.275 HD
ENDBRANCH   8  16
BRANCH   1  20
HETATM   20  S   UNL     1      33.145  51.241  42.484  1.00  0.00     0.224 S 
HETATM   21  C   UNL     1      32.547  51.594  44.123  1.00  0.00     0.186 C 
HETATM   22  O   UNL     1      34.248  52.133  42.205  1.00  0.00    -0.206 OA
HETATM   23  O   UNL     1      33.288  49.807  42.330  1.00  0.00    -0.206 OA
ENDBRANCH   1  20
TORSDOF 2
ENDMDL
MODEL 7
REMARK VINA RESULT:      -6.7     12.583     14.164
REMARK  2 active torsions:
REMARK  status: ('A' for Active; 'I' for Inactive)
REMARK    1  A    between atoms: S_2  and  N_3 
REMARK    2  A    between atoms: C_10  and  N_11 
ROOT
HETATM    1  N   UNL     1      27.950  47.153  39.503  1.00  0.00    -0.311 N 
HETATM    2  C   UNL     1      27.280  47.691  40.703  1.00  0.00     0.138 C 
HETATM    3  C   UNL     1      28.330  48.060  41.741  1.00  0.00     0.059 C 
HETATM    4  C   UNL     1      29.376  49.064  41.195  1.00  0.00     0.073 C 
HETATM    5  O   UNL     1      28.689  50.310  40.991  1.00  0.00    -0.339 OA
HETATM    6  C   UNL     1      29.449  51.442  40.900  1.00  0.00     0.078 A 
HETATM    7  C   UNL     1      30.764  51.540  41.367  1.00  0.00     0.005 A 
HETATM    8  C   UNL     1      31.430  50.370  42.020  1.00  0.00     0.222 C 
HETATM    9  C   UNL     1      30.458  49.225  42.283  1.00  0.00     0.076 C 
HETATM   10  C   UNL     1      28.816  52.543  40.327  1.00  0.00     0.037 A 
HETATM   11  C   UNL     1      29.496  53.752  40.194  1.00  0.00     0.003 A 
HETATM   12  C   UNL     1      30.806  53.865  40.650  1.00  0.00     0.001 A 
HETATM   13  C   UNL     1      31.438  52.767  41.239  1.00  0.00     0.012 A 
HETATM   14  C   UNL     1      29.936  48.578  39.838  1.00  0.00     0.059 C 
HETATM   15  C   UNL     1      28.839  48.137  38.863  1.00  0.00     0.138 C 
ENDROOT
BRANCH   8  16
HETATM   16  N   UNL     1      32.599  49.879  41.237  1.00  0.00    -0.071 N 
HETATM   17  H   UNL     1      32.616  50.259  40.284  1.00  0.00     0.275 HD
HETATM   18  H   UNL     1      33.477  50.172  41.682  1.00  0.00     0.275 HD
HETATM   19  H   UNL     1      32.618  48.853  41.172  1.00  0.00     0.275 HD
ENDBRANCH   8  16
BRANCH   1  20
HETATM   20  S   UNL     1      28.416  45.522  39.503  1.00  0.00     0.224 S 
HETATM   21  C   UNL     1      27.783  44.984  37.930  1.00  0.00     0.186 C 
HETATM   22  O   UNL     1      27.680  44.838  40.543  1.00  0.00    -0.206 OA
HETATM   23  O   UNL     1      29.864  45.487  39.469  1.00  0.00    -0.206 OA
ENDBRANCH   1  20
TORSDOF 2
ENDMDL
MODEL 8
REMARK VINA RESULT:      -6.6     13.735     15.206
REMARK  2 active torsions:
REMARK  status: ('A' for Active; 'I' for Inactive)
REMARK    1  A    between atoms: S_2  and  N_3 
REMARK    2  A    between atoms: C_10  and  N_11 
ROOT
HETATM    1  N   UNL     1      29.345  50.591  38.328  1.00  0.00    -0.311 N 
HETATM    2  C   UNL     1      29.671  52.025  38.450  1.00  0.00     0.138 C 
HETATM    3  C   UNL     1      29.978  52.348  39.905  1.00  0.00     0.059 C 
HETATM    4  C   UNL     1      31.119  51.472  40.479  1.00  0.00     0.073 C 
HETATM    5  O   UNL     1      32.327  51.871  39.810  1.00  0.00    -0.339 OA
HETATM    6  C   UNL     1      33.514  51.544  40.403  1.00  0.00     0.078 A 
HETATM    7  C   UNL     1      33.646  51.212  41.755  1.00  0.00     0.005 A 
HETATM    8  C   UNL     1      32.454  51.203  42.658  1.00  0.00     0.222 C 
HETATM    9  C   UNL     1      31.216  51.786  41.986  1.00  0.00     0.076 C 
HETATM   10  C   UNL     1      34.631  51.590  39.570  1.00  0.00     0.037 A 
HETATM   11  C   UNL     1      35.893  51.285  40.074  1.00  0.00     0.003 A 
HETATM   12  C   UNL     1      36.042  50.949  41.416  1.00  0.00     0.001 A 
HETATM   13  C   UNL     1      34.927  50.917  42.257  1.00  0.00     0.012 A 
HETATM   14  C   UNL     1      30.856  49.977  40.178  1.00  0.00     0.059 C 
HETATM   15  C   UNL     1      30.467  49.721  38.718  1.00  0.00     0.138 C 
ENDROOT
BRANCH   8  16
HETATM   16  N   UNL     1      32.157  49.840  43.183  1.00  0.00    -0.071 N 
HETATM   17  H   UNL     1      32.284  49.113  42.471  1.00  0.00     0.275 HD
HETATM   18  H   UNL     1      32.795  49.606  43.954  1.00  0.00     0.275 HD
HETATM   19  H   UNL     1      31.199  49.767  43.549  1.00  0.00     0.275 HD
ENDBRANCH   8  16
BRANCH   1  20
HETATM   20  S   UNL     1      27.766  50.090  38.695  1.00  0.00     0.224 S 
HETATM   21  C   UNL     1      27.937  48.321  38.596  1.00  0.00     0.186 C 
HETATM   22  O   UNL     1      26.892  50.519  37.627  1.00  0.00    -0.206 OA
HETATM   23  O   UNL     1      27.504  50.464  40.070  1.00  0.00    -0.206 OA
ENDBRANCH   1  20
TORSDOF 2
ENDMDL
MODEL 9
REMARK VINA RESULT:      -6.5     12.634     14.176
REMARK  2 active torsions:
REMARK  status: ('A' for Active; 'I' for Inactive)
REMARK    1  A    between atoms: S_2  and  N_3 
REMARK    2  A    between atoms: C_10  and  N_11 
ROOT
HETATM    1  N   UNL     1      27.788  48.687  39.514  1.00  0.00    -0.311 N 
HETATM    2  C   UNL     1      27.619  49.805  40.463  1.00  0.00     0.138 C 
HETATM    3  C   UNL     1      28.603  49.642  41.612  1.00  0.00     0.059 C 
HETATM    4  C   UNL     1      30.071  49.548  41.126  1.00  0.00     0.073 C 
HETATM    5  O   UNL     1      30.418  50.839  40.600  1.00  0.00    -0.339 OA
HETATM    6  C   UNL     1      31.747  51.135  40.479  1.00  0.00     0.078 A 
HETATM    7  C   UNL     1      32.763  50.464  41.168  1.00  0.00     0.005 A 
HETATM    8  C   UNL     1      32.436  49.351  42.113  1.00  0.00     0.222 C 
HETATM    9  C   UNL     1      30.937  49.226  42.362  1.00  0.00     0.076 C 
HETATM   10  C   UNL     1      32.049  52.197  39.628  1.00  0.00     0.037 A 
HETATM   11  C   UNL     1      33.372  52.590  39.440  1.00  0.00     0.003 A 
HETATM   12  C   UNL     1      34.394  51.930  40.115  1.00  0.00     0.001 A 
HETATM   13  C   UNL     1      34.094  50.876  40.980  1.00  0.00     0.012 A 
HETATM   14  C   UNL     1      30.200  48.500  39.995  1.00  0.00     0.059 C 
HETATM   15  C   UNL     1      29.130  48.658  38.910  1.00  0.00     0.138 C 
ENDROOT
BRANCH   8  16
HETATM   16  N   UNL     1      32.989  48.045  41.656  1.00  0.00    -0.071 N 
HETATM   17  H   UNL     1      33.369  47.490  42.431  1.00  0.00     0.275 HD
HETATM   18  H   UNL     1      32.250  47.474  41.225  1.00  0.00     0.275 HD
HETATM   19  H   UNL     1      33.730  48.164  40.953  1.00  0.00     0.275 HD
ENDBRANCH   8  16
BRANCH   1  20
HETATM   20  S   UNL     1      27.025  47.213  39.862  1.00  0.00     0.224 S 
HETATM   21  C   UNL     1      25.486  47.778  40.554  1.00  0.00     0.186 C 
HETATM   22  O   UNL     1      27.772  46.548  40.906  1.00  0.00    -0.206 OA
HETATM   23  O   UNL     1      26.762  46.555  38.598  1.00  0.00    -0.206 OA
ENDBRANCH   1  20
TORSDOF 2
ENDMDL
MODEL 10
REMARK VINA RESULT:      -6.5     13.019     14.271
REMARK  2 active torsions:
REMARK  status: ('A' for Active; 'I' for Inactive)
REMARK    1  A    between atoms: S_2  and  N_3 
REMARK    2  A    between atoms: C_10  and  N_11 
ROOT
HETATM    1  N   UNL     1      26.927  47.945  39.442  1.00  0.00    -0.311 N 
HETATM    2  C   UNL     1      28.086  48.174  38.558  1.00  0.00     0.138 C 
HETATM    3  C   UNL     1      28.356  49.669  38.461  1.00  0.00     0.059 C 
HETATM    4  C   UNL     1      28.580  50.322  39.848  1.00  0.00     0.073 C 
HETATM    5  O   UNL     1      29.827  49.813  40.351  1.00  0.00    -0.339 OA
HETATM    6  C   UNL     1      30.439  50.518  41.348  1.00  0.00     0.078 A 
HETATM    7  C   UNL     1      30.165  51.858  41.640  1.00  0.00     0.005 A 
HETATM    8  C   UNL     1      29.155  52.621  40.843  1.00  0.00     0.222 C 
HETATM    9  C   UNL     1      28.679  51.845  39.620  1.00  0.00     0.076 C 
HETATM   10  C   UNL     1      31.408  49.819  42.067  1.00  0.00     0.037 A 
HETATM   11  C   UNL     1      32.102  50.444  43.100  1.00  0.00     0.003 A 
HETATM   12  C   UNL     1      31.838  51.776  43.406  1.00  0.00     0.001 A 
HETATM   13  C   UNL     1      30.880  52.484  42.677  1.00  0.00     0.012 A 
HETATM   14  C   UNL     1      27.450  49.919  40.825  1.00  0.00     0.059 C 
HETATM   15  C   UNL     1      27.162  48.414  40.818  1.00  0.00     0.138 C 
ENDROOT
BRANCH   8  16
HETATM   16  N   UNL     1      27.988  53.040  41.668  1.00  0.00    -0.071 N 
HETATM   17  H   UNL     1      27.915  52.504  42.540  1.00  0.00     0.275 HD
HETATM   18  H   UNL     1      28.077  54.027  41.941  1.00  0.00     0.275 HD
HETATM   19  H   UNL     1      27.100  52.945  41.159  1.00  0.00     0.275 HD
ENDBRANCH   8  16
BRANCH   1  20
HETATM   20  S   UNL     1      25.370  48.108  38.787  1.00  0.00     0.224 S 
HETATM   21  C   UNL     1      25.601  47.391  37.175  1.00  0.00     0.186 C 
HETATM   22  O   UNL     1      25.092  49.516  38.619  1.00  0.00    -0.206 OA
HETATM   23  O   UNL     1      24.486  47.259  39.560  1.00  0.00    -0.206 OA
ENDBRANCH   1  20
TORSDOF 2
ENDMDL
