MODEL 1
REMARK VINA RESULT:      -9.6      0.000      0.000
REMARK  6 active torsions:
REMARK  status: ('A' for Active; 'I' for Inactive)
REMARK    1  A    between atoms: O_2  and  C_3 
REMARK    2  A    between atoms: C_6  and  C_7 
REMARK    3  A    between atoms: C_11  and  C_12 
REMARK       I    between atoms: C_12  and  N_13 
REMARK    4  A    between atoms: N_13  and  N_14 
REMARK       I    between atoms: N_14  and  C_15 
REMARK    5  A    between atoms: C_15  and  C_16 
REMARK    6  A    between atoms: C_16  and  C_17 
ROOT
HETATM    1  C   UNL     1      24.282  44.894  51.006  1.00  0.00     0.288 C 
HETATM    2  N   UNL     1      24.299  46.206  50.580  1.00  0.00    -0.262 N 
HETATM    3  O   UNL     1      23.332  44.148  50.772  1.00  0.00    -0.264 OA
HETATM    4  H   UNL     1      25.142  46.777  50.623  1.00  0.00     0.190 HD
ENDROOT
BRANCH   1   5
HETATM    5  C   UNL     1      25.453  44.461  51.717  1.00  0.00     0.121 A 
HETATM    6  N   UNL     1      26.131  43.327  51.368  1.00  0.00    -0.272 N 
HETATM    7  N   UNL     1      27.208  43.074  52.127  1.00  0.00    -0.174 NA
HETATM    8  H   UNL     1      25.900  42.686  50.615  1.00  0.00     0.189 HD
HETATM    9  C   UNL     1      27.260  44.096  52.996  1.00  0.00     0.089 A 
HETATM   10  C   UNL     1      26.162  44.976  52.784  1.00  0.00     0.071 A 
BRANCH   9  11
HETATM   11  C   UNL     1      28.331  44.212  53.991  1.00  0.00    -0.005 A 
HETATM   12  C   UNL     1      29.251  43.174  54.188  1.00  0.00     0.016 A 
HETATM   13  C   UNL     1      30.268  43.298  55.141  1.00  0.00     0.037 A 
HETATM   14  C   UNL     1      30.390  44.455  55.912  1.00  0.00     0.068 A 
HETATM   15  C   UNL     1      29.474  45.491  55.728  1.00  0.00     0.037 A 
HETATM   16  C   UNL     1      28.453  45.367  54.777  1.00  0.00     0.016 A 
BRANCH  14  17
HETATM   17  O   UNL     1      31.429  44.444  56.800  1.00  0.00    -0.356 OA
HETATM   18  C   UNL     1      31.922  43.170  57.194  1.00  0.00     0.210 C 
ENDBRANCH  14  17
ENDBRANCH   9  11
ENDBRANCH   1   5
BRANCH   2  19
HETATM   19  N   UNL     1      23.349  46.611  49.629  1.00  0.00    -0.267 N 
HETATM   20  C   UNL     1      23.320  47.954  49.309  1.00  0.00     0.240 C 
HETATM   21  O   UNL     1      23.932  48.795  49.967  1.00  0.00    -0.272 OA
HETATM   22  H   UNL     1      22.994  45.886  49.004  1.00  0.00     0.190 HD
BRANCH  20  23
HETATM   23  C   UNL     1      22.478  48.299  48.098  1.00  0.00     0.148 C 
BRANCH  23  24
HETATM   24  C   UNL     1      21.366  49.261  48.420  1.00  0.00     0.011 A 
HETATM   25  C   UNL     1      20.101  48.853  48.864  1.00  0.00     0.043 A 
HETATM   26 CL   UNL     1      19.698  47.184  49.060  1.00  0.00    -0.084 Cl
HETATM   27  C   UNL     1      19.109  49.796  49.162  1.00  0.00     0.024 A 
HETATM   28  C   UNL     1      19.370  51.160  49.030  1.00  0.00     0.005 A 
HETATM   29  C   UNL     1      20.625  51.580  48.603  1.00  0.00     0.043 A 
HETATM   30  C   UNL     1      21.604  50.635  48.306  1.00  0.00     0.124 A 
HETATM   31  F   UNL     1      22.801  51.071  47.890  1.00  0.00    -0.205 F 
ENDBRANCH  23  24
ENDBRANCH  20  23
ENDBRANCH   2  19
TORSDOF 6
ENDMDL
MODEL 2
REMARK VINA RESULT:      -9.5      1.472      1.950
REMARK  6 active torsions:
REMARK  status: ('A' for Active; 'I' for Inactive)
REMARK    1  A    between atoms: O_2  and  C_3 
REMARK    2  A    between atoms: C_6  and  C_7 
REMARK    3  A    between atoms: C_11  and  C_12 
REMARK       I    between atoms: C_12  and  N_13 
REMARK    4  A    between atoms: N_13  and  N_14 
REMARK       I    between atoms: N_14  and  C_15 
REMARK    5  A    between atoms: C_15  and  C_16 
REMARK    6  A    between atoms: C_16  and  C_17 
ROOT
HETATM    1  C   UNL     1      24.523  44.914  51.188  1.00  0.00     0.288 C 
HETATM    2  N   UNL     1      24.471  46.220  50.746  1.00  0.00    -0.262 N 
HETATM    3  O   UNL     1      23.579  44.140  51.039  1.00  0.00    -0.264 OA
HETATM    4  H   UNL     1      25.299  46.813  50.715  1.00  0.00     0.190 HD
ENDROOT
BRANCH   1   5
HETATM    5  C   UNL     1      25.758  44.521  51.810  1.00  0.00     0.121 A 
HETATM    6  N   UNL     1      26.645  43.688  51.190  1.00  0.00    -0.272 N 
HETATM    7  N   UNL     1      27.752  43.432  51.905  1.00  0.00    -0.174 NA
HETATM    8  H   UNL     1      26.544  43.262  50.274  1.00  0.00     0.189 HD
HETATM    9  C   UNL     1      27.603  44.148  53.031  1.00  0.00     0.089 A 
HETATM   10  C   UNL     1      26.352  44.828  53.018  1.00  0.00     0.071 A 
BRANCH   9  11
HETATM   11  C   UNL     1      28.632  44.169  54.075  1.00  0.00    -0.005 A 
HETATM   12  C   UNL     1      28.658  45.179  55.045  1.00  0.00     0.016 A 
HETATM   13  C   UNL     1      29.646  45.187  56.036  1.00  0.00     0.037 A 
HETATM   14  C   UNL     1      30.622  44.191  56.082  1.00  0.00     0.068 A 
HETATM   15  C   UNL     1      30.608  43.184  55.117  1.00  0.00     0.037 A 
HETATM   16  C   UNL     1      29.622  43.177  54.121  1.00  0.00     0.016 A 
BRANCH  14  17
HETATM   17  O   UNL     1      31.521  44.318  57.103  1.00  0.00    -0.356 OA
HETATM   18  C   UNL     1      31.065  44.972  58.281  1.00  0.00     0.210 C 
ENDBRANCH  14  17
ENDBRANCH   9  11
ENDBRANCH   1   5
BRANCH   2  19
HETATM   19  N   UNL     1      23.439  46.586  49.868  1.00  0.00    -0.267 N 
HETATM   20  C   UNL     1      23.445  47.887  49.407  1.00  0.00     0.240 C 
HETATM   21  O   UNL     1      24.175  48.750  49.895  1.00  0.00    -0.272 OA
HETATM   22  H   UNL     1      22.975  45.826  49.370  1.00  0.00     0.190 HD
BRANCH  20  23
HETATM   23  C   UNL     1      22.487  48.161  48.266  1.00  0.00     0.148 C 
BRANCH  23  24
HETATM   24  C   UNL     1      21.471  49.219  48.604  1.00  0.00     0.011 A 
HETATM   25  C   UNL     1      21.696  50.590  48.418  1.00  0.00     0.043 A 
HETATM   26 CL   UNL     1      23.193  51.191  47.798  1.00  0.00    -0.084 Cl
HETATM   27  C   UNL     1      20.707  51.528  48.738  1.00  0.00     0.024 A 
HETATM   28  C   UNL     1      19.473  51.109  49.238  1.00  0.00     0.005 A 
HETATM   29  C   UNL     1      19.231  49.752  49.415  1.00  0.00     0.043 A 
HETATM   30  C   UNL     1      20.221  48.826  49.098  1.00  0.00     0.124 A 
HETATM   31  F   UNL     1      19.960  47.525  49.287  1.00  0.00    -0.205 F 
ENDBRANCH  23  24
ENDBRANCH  20  23
ENDBRANCH   2  19
TORSDOF 6
ENDMDL
MODEL 3
REMARK VINA RESULT:      -9.1      1.819      2.664
REMARK  6 active torsions:
REMARK  status: ('A' for Active; 'I' for Inactive)
REMARK    1  A    between atoms: O_2  and  C_3 
REMARK    2  A    between atoms: C_6  and  C_7 
REMARK    3  A    between atoms: C_11  and  C_12 
REMARK       I    between atoms: C_12  and  N_13 
REMARK    4  A    between atoms: N_13  and  N_14 
REMARK       I    between atoms: N_14  and  C_15 
REMARK    5  A    between atoms: C_15  and  C_16 
REMARK    6  A    between atoms: C_16  and  C_17 
ROOT
HETATM    1  C   UNL     1      24.101  47.636  49.721  1.00  0.00     0.288 C 
HETATM    2  N   UNL     1      23.150  46.913  49.032  1.00  0.00    -0.262 N 
HETATM    3  O   UNL     1      24.373  48.799  49.427  1.00  0.00    -0.264 OA
HETATM    4  H   UNL     1      22.803  46.017  49.369  1.00  0.00     0.190 HD
ENDROOT
BRANCH   1   5
HETATM    5  C   UNL     1      24.730  46.944  50.813  1.00  0.00     0.121 A 
HETATM    6  N   UNL     1      24.317  45.706  51.217  1.00  0.00    -0.272 N 
HETATM    7  N   UNL     1      25.019  45.200  52.242  1.00  0.00    -0.174 NA
HETATM    8  H   UNL     1      23.556  45.159  50.826  1.00  0.00     0.189 HD
HETATM    9  C   UNL     1      25.951  46.127  52.509  1.00  0.00     0.089 A 
HETATM   10  C   UNL     1      25.788  47.248  51.646  1.00  0.00     0.071 A 
BRANCH   9  11
HETATM   11  C   UNL     1      26.957  45.934  53.558  1.00  0.00    -0.005 A 
HETATM   12  C   UNL     1      27.304  46.975  54.428  1.00  0.00     0.016 A 
HETATM   13  C   UNL     1      28.267  46.777  55.424  1.00  0.00     0.037 A 
HETATM   14  C   UNL     1      28.898  45.542  55.574  1.00  0.00     0.068 A 
HETATM   15  C   UNL     1      28.565  44.501  54.708  1.00  0.00     0.037 A 
HETATM   16  C   UNL     1      27.604  44.699  53.707  1.00  0.00     0.016 A 
BRANCH  14  17
HETATM   17  O   UNL     1      29.813  45.486  56.588  1.00  0.00    -0.356 OA
HETATM   18  C   UNL     1      29.389  45.959  57.861  1.00  0.00     0.210 C 
ENDBRANCH  14  17
ENDBRANCH   9  11
ENDBRANCH   1   5
BRANCH   2  19
HETATM   19  N   UNL     1      22.285  47.603  48.167  1.00  0.00    -0.267 N 
HETATM   20  C   UNL     1      20.955  47.233  48.189  1.00  0.00     0.240 C 
HETATM   21  O   UNL     1      20.570  46.215  48.763  1.00  0.00    -0.272 OA
HETATM   22  H   UNL     1      22.598  48.521  47.849  1.00  0.00     0.190 HD
BRANCH  20  23
HETATM   23  C   UNL     1      20.023  48.173  47.452  1.00  0.00     0.148 C 
BRANCH  23  24
HETATM   24  C   UNL     1      19.628  49.365  48.281  1.00  0.00     0.011 A 
HETATM   25  C   UNL     1      18.607  49.332  49.241  1.00  0.00     0.043 A 
HETATM   26 CL   UNL     1      17.687  47.901  49.542  1.00  0.00    -0.084 Cl
HETATM   27  C   UNL     1      18.294  50.472  49.992  1.00  0.00     0.024 A 
HETATM   28  C   UNL     1      19.001  51.659  49.802  1.00  0.00     0.005 A 
HETATM   29  C   UNL     1      20.025  51.703  48.862  1.00  0.00     0.043 A 
HETATM   30  C   UNL     1      20.329  50.566  48.117  1.00  0.00     0.124 A 
HETATM   31  F   UNL     1      21.316  50.643  47.214  1.00  0.00    -0.205 F 
ENDBRANCH  23  24
ENDBRANCH  20  23
ENDBRANCH   2  19
TORSDOF 6
ENDMDL
MODEL 4
REMARK VINA RESULT:      -8.8      1.896      2.308
REMARK  6 active torsions:
REMARK  status: ('A' for Active; 'I' for Inactive)
REMARK    1  A    between atoms: O_2  and  C_3 
REMARK    2  A    between atoms: C_6  and  C_7 
REMARK    3  A    between atoms: C_11  and  C_12 
REMARK       I    between atoms: C_12  and  N_13 
REMARK    4  A    between atoms: N_13  and  N_14 
REMARK       I    between atoms: N_14  and  C_15 
REMARK    5  A    between atoms: C_15  and  C_16 
REMARK    6  A    between atoms: C_16  and  C_17 
ROOT
HETATM    1  C   UNL     1      24.890  47.122  50.637  1.00  0.00     0.288 C 
HETATM    2  N   UNL     1      23.708  46.549  50.215  1.00  0.00    -0.262 N 
HETATM    3  O   UNL     1      25.265  48.218  50.223  1.00  0.00    -0.264 OA
HETATM    4  H   UNL     1      23.311  45.730  50.672  1.00  0.00     0.190 HD
ENDROOT
BRANCH   1   5
HETATM    5  C   UNL     1      25.633  46.363  51.604  1.00  0.00     0.121 A 
HETATM    6  N   UNL     1      25.462  45.015  51.751  1.00  0.00    -0.272 N 
HETATM    7  N   UNL     1      26.242  44.460  52.690  1.00  0.00    -0.174 NA
HETATM    8  H   UNL     1      24.820  44.422  51.232  1.00  0.00     0.189 HD
HETATM    9  C   UNL     1      26.979  45.476  53.166  1.00  0.00     0.089 A 
HETATM   10  C   UNL     1      26.609  46.691  52.523  1.00  0.00     0.071 A 
BRANCH   9  11
HETATM   11  C   UNL     1      27.998  45.274  54.200  1.00  0.00    -0.005 A 
HETATM   12  C   UNL     1      28.818  44.139  54.197  1.00  0.00     0.016 A 
HETATM   13  C   UNL     1      29.787  43.959  55.191  1.00  0.00     0.037 A 
HETATM   14  C   UNL     1      29.959  44.905  56.202  1.00  0.00     0.068 A 
HETATM   15  C   UNL     1      29.143  46.036  56.218  1.00  0.00     0.037 A 
HETATM   16  C   UNL     1      28.169  46.215  55.226  1.00  0.00     0.016 A 
BRANCH  14  17
HETATM   17  O   UNL     1      30.942  44.606  57.103  1.00  0.00    -0.356 OA
HETATM   18  C   UNL     1      31.605  43.359  56.939  1.00  0.00     0.210 C 
ENDBRANCH  14  17
ENDBRANCH   9  11
ENDBRANCH   1   5
BRANCH   2  19
HETATM   19  N   UNL     1      22.788  47.352  49.521  1.00  0.00    -0.267 N 
HETATM   20  C   UNL     1      22.263  46.832  48.355  1.00  0.00     0.240 C 
HETATM   21  O   UNL     1      22.724  45.822  47.824  1.00  0.00    -0.272 OA
HETATM   22  H   UNL     1      22.319  48.078  50.063  1.00  0.00     0.190 HD
BRANCH  20  23
HETATM   23  C   UNL     1      21.088  47.603  47.790  1.00  0.00     0.148 C 
BRANCH  23  24
HETATM   24  C   UNL     1      20.714  48.792  48.635  1.00  0.00     0.011 A 
HETATM   25  C   UNL     1      21.360  50.031  48.549  1.00  0.00     0.043 A 
HETATM   26 CL   UNL     1      22.678  50.298  47.464  1.00  0.00    -0.084 Cl
HETATM   27  C   UNL     1      20.958  51.106  49.353  1.00  0.00     0.024 A 
HETATM   28  C   UNL     1      19.897  50.959  50.247  1.00  0.00     0.005 A 
HETATM   29  C   UNL     1      19.238  49.738  50.334  1.00  0.00     0.043 A 
HETATM   30  C   UNL     1      19.646  48.674  49.533  1.00  0.00     0.124 A 
HETATM   31  F   UNL     1      18.995  47.508  49.646  1.00  0.00    -0.205 F 
ENDBRANCH  23  24
ENDBRANCH  20  23
ENDBRANCH   2  19
TORSDOF 6
ENDMDL
MODEL 5
REMARK VINA RESULT:      -8.7      3.777     10.732
REMARK  6 active torsions:
REMARK  status: ('A' for Active; 'I' for Inactive)
REMARK    1  A    between atoms: O_2  and  C_3 
REMARK    2  A    between atoms: C_6  and  C_7 
REMARK    3  A    between atoms: C_11  and  C_12 
REMARK       I    between atoms: C_12  and  N_13 
REMARK    4  A    between atoms: N_13  and  N_14 
REMARK       I    between atoms: N_14  and  C_15 
REMARK    5  A    between atoms: C_15  and  C_16 
REMARK    6  A    between atoms: C_16  and  C_17 
ROOT
HETATM    1  C   UNL     1      25.554  46.648  50.405  1.00  0.00     0.288 C 
HETATM    2  N   UNL     1      25.698  46.743  51.774  1.00  0.00    -0.262 N 
HETATM    3  O   UNL     1      26.061  45.731  49.761  1.00  0.00    -0.264 OA
HETATM    4  H   UNL     1      25.149  47.396  52.331  1.00  0.00     0.190 HD
ENDROOT
BRANCH   1   5
HETATM    5  C   UNL     1      24.754  47.675  49.796  1.00  0.00     0.121 A 
HETATM    6  N   UNL     1      25.316  48.753  49.173  1.00  0.00    -0.272 N 
HETATM    7  N   UNL     1      24.427  49.610  48.648  1.00  0.00    -0.174 NA
HETATM    8  H   UNL     1      26.307  48.954  49.077  1.00  0.00     0.189 HD
HETATM    9  C   UNL     1      23.230  49.064  48.911  1.00  0.00     0.089 A 
HETATM   10  C   UNL     1      23.394  47.858  49.650  1.00  0.00     0.071 A 
BRANCH   9  11
HETATM   11  C   UNL     1      21.980  49.686  48.463  1.00  0.00    -0.005 A 
HETATM   12  C   UNL     1      21.064  48.982  47.672  1.00  0.00     0.016 A 
HETATM   13  C   UNL     1      19.875  49.589  47.252  1.00  0.00     0.037 A 
HETATM   14  C   UNL     1      19.576  50.903  47.612  1.00  0.00     0.068 A 
HETATM   15  C   UNL     1      20.485  51.615  48.393  1.00  0.00     0.037 A 
HETATM   16  C   UNL     1      21.678  51.010  48.812  1.00  0.00     0.016 A 
BRANCH  14  17
HETATM   17  O   UNL     1      18.382  51.368  47.137  1.00  0.00    -0.356 OA
HETATM   18  C   UNL     1      17.453  50.396  46.674  1.00  0.00     0.210 C 
ENDBRANCH  14  17
ENDBRANCH   9  11
ENDBRANCH   1   5
BRANCH   2  19
HETATM   19  N   UNL     1      26.194  45.630  52.471  1.00  0.00    -0.267 N 
HETATM   20  C   UNL     1      26.015  45.621  53.840  1.00  0.00     0.240 C 
HETATM   21  O   UNL     1      25.642  46.620  54.456  1.00  0.00    -0.272 OA
HETATM   22  H   UNL     1      26.334  44.778  51.927  1.00  0.00     0.190 HD
BRANCH  20  23
HETATM   23  C   UNL     1      26.316  44.297  54.511  1.00  0.00     0.148 C 
BRANCH  23  24
HETATM   24  C   UNL     1      27.771  43.921  54.423  1.00  0.00     0.011 A 
HETATM   25  C   UNL     1      28.775  44.545  55.175  1.00  0.00     0.043 A 
HETATM   26 CL   UNL     1      28.424  45.837  56.267  1.00  0.00    -0.084 Cl
HETATM   27  C   UNL     1      30.112  44.141  55.060  1.00  0.00     0.024 A 
HETATM   28  C   UNL     1      30.463  43.101  54.200  1.00  0.00     0.005 A 
HETATM   29  C   UNL     1      29.475  42.463  53.457  1.00  0.00     0.043 A 
HETATM   30  C   UNL     1      28.149  42.873  53.575  1.00  0.00     0.124 A 
HETATM   31  F   UNL     1      27.222  42.243  52.840  1.00  0.00    -0.205 F 
ENDBRANCH  23  24
ENDBRANCH  20  23
ENDBRANCH   2  19
TORSDOF 6
ENDMDL
MODEL 6
REMARK VINA RESULT:      -8.4      3.641     10.641
REMARK  6 active torsions:
REMARK  status: ('A' for Active; 'I' for Inactive)
REMARK    1  A    between atoms: O_2  and  C_3 
REMARK    2  A    between atoms: C_6  and  C_7 
REMARK    3  A    between atoms: C_11  and  C_12 
REMARK       I    between atoms: C_12  and  N_13 
REMARK    4  A    between atoms: N_13  and  N_14 
REMARK       I    between atoms: N_14  and  C_15 
REMARK    5  A    between atoms: C_15  and  C_16 
REMARK    6  A    between atoms: C_16  and  C_17 
ROOT
HETATM    1  C   UNL     1      25.716  46.503  49.986  1.00  0.00     0.288 C 
HETATM    2  N   UNL     1      26.159  46.536  51.292  1.00  0.00    -0.262 N 
HETATM    3  O   UNL     1      25.990  45.572  49.231  1.00  0.00    -0.264 OA
HETATM    4  H   UNL     1      25.803  47.211  51.966  1.00  0.00     0.190 HD
ENDROOT
BRANCH   1   5
HETATM    5  C   UNL     1      24.899  47.615  49.583  1.00  0.00     0.121 A 
HETATM    6  N   UNL     1      25.441  48.817  49.226  1.00  0.00    -0.272 N 
HETATM    7  N   UNL     1      24.538  49.742  48.867  1.00  0.00    -0.174 NA
HETATM    8  H   UNL     1      26.426  49.062  49.212  1.00  0.00     0.189 HD
HETATM    9  C   UNL     1      23.354  49.119  48.962  1.00  0.00     0.089 A 
HETATM   10  C   UNL     1      23.538  47.787  49.431  1.00  0.00     0.071 A 
BRANCH   9  11
HETATM   11  C   UNL     1      22.097  49.788  48.614  1.00  0.00    -0.005 A 
HETATM   12  C   UNL     1      21.707  50.973  49.251  1.00  0.00     0.016 A 
HETATM   13  C   UNL     1      20.504  51.601  48.909  1.00  0.00     0.037 A 
HETATM   14  C   UNL     1      19.670  51.064  47.928  1.00  0.00     0.068 A 
HETATM   15  C   UNL     1      20.045  49.880  47.293  1.00  0.00     0.037 A 
HETATM   16  C   UNL     1      21.248  49.248  47.637  1.00  0.00     0.016 A 
BRANCH  14  17
HETATM   17  O   UNL     1      18.531  51.781  47.691  1.00  0.00    -0.356 OA
HETATM   18  C   UNL     1      17.893  52.363  48.821  1.00  0.00     0.210 C 
ENDBRANCH  14  17
ENDBRANCH   9  11
ENDBRANCH   1   5
BRANCH   2  19
HETATM   19  N   UNL     1      26.692  45.361  51.845  1.00  0.00    -0.267 N 
HETATM   20  C   UNL     1      26.056  44.853  52.961  1.00  0.00     0.240 C 
HETATM   21  O   UNL     1      25.208  45.497  53.579  1.00  0.00    -0.272 OA
HETATM   22  H   UNL     1      27.264  44.786  51.226  1.00  0.00     0.190 HD
BRANCH  20  23
HETATM   23  C   UNL     1      26.490  43.458  53.358  1.00  0.00     0.148 C 
BRANCH  23  24
HETATM   24  C   UNL     1      27.955  43.380  53.698  1.00  0.00     0.011 A 
HETATM   25  C   UNL     1      28.880  42.639  52.951  1.00  0.00     0.043 A 
HETATM   26 CL   UNL     1      28.406  41.718  51.568  1.00  0.00    -0.084 Cl
HETATM   27  C   UNL     1      30.235  42.617  53.308  1.00  0.00     0.024 A 
HETATM   28  C   UNL     1      30.685  43.343  54.411  1.00  0.00     0.005 A 
HETATM   29  C   UNL     1      29.780  44.093  55.154  1.00  0.00     0.043 A 
HETATM   30  C   UNL     1      28.435  44.107  54.794  1.00  0.00     0.124 A 
HETATM   31  F   UNL     1      27.587  44.834  55.534  1.00  0.00    -0.205 F 
ENDBRANCH  23  24
ENDBRANCH  20  23
ENDBRANCH   2  19
TORSDOF 6
ENDMDL
MODEL 7
REMARK VINA RESULT:      -8.4      2.513      2.993
REMARK  6 active torsions:
REMARK  status: ('A' for Active; 'I' for Inactive)
REMARK    1  A    between atoms: O_2  and  C_3 
REMARK    2  A    between atoms: C_6  and  C_7 
REMARK    3  A    between atoms: C_11  and  C_12 
REMARK       I    between atoms: C_12  and  N_13 
REMARK    4  A    between atoms: N_13  and  N_14 
REMARK       I    between atoms: N_14  and  C_15 
REMARK    5  A    between atoms: C_15  and  C_16 
REMARK    6  A    between atoms: C_16  and  C_17 
ROOT
HETATM    1  C   UNL     1      24.894  45.244  50.084  1.00  0.00     0.288 C 
HETATM    2  N   UNL     1      23.538  45.479  50.176  1.00  0.00    -0.262 N 
HETATM    3  O   UNL     1      25.483  45.253  49.003  1.00  0.00    -0.264 OA
HETATM    4  H   UNL     1      23.077  45.638  51.070  1.00  0.00     0.190 HD
ENDROOT
BRANCH   1   5
HETATM    5  C   UNL     1      25.567  45.013  51.332  1.00  0.00     0.121 A 
HETATM    6  N   UNL     1      24.881  44.794  52.493  1.00  0.00    -0.272 N 
HETATM    7  N   UNL     1      25.661  44.584  53.563  1.00  0.00    -0.174 NA
HETATM    8  H   UNL     1      23.872  44.777  52.611  1.00  0.00     0.189 HD
HETATM    9  C   UNL     1      26.915  44.639  53.087  1.00  0.00     0.089 A 
HETATM   10  C   UNL     1      26.897  44.929  51.693  1.00  0.00     0.071 A 
BRANCH   9  11
HETATM   11  C   UNL     1      28.081  44.421  53.949  1.00  0.00    -0.005 A 
HETATM   12  C   UNL     1      28.873  43.273  53.817  1.00  0.00     0.016 A 
HETATM   13  C   UNL     1      29.983  43.077  54.647  1.00  0.00     0.037 A 
HETATM   14  C   UNL     1      30.325  44.019  55.619  1.00  0.00     0.068 A 
HETATM   15  C   UNL     1      29.538  45.161  55.762  1.00  0.00     0.037 A 
HETATM   16  C   UNL     1      28.424  45.357  54.935  1.00  0.00     0.016 A 
BRANCH  14  17
HETATM   17  O   UNL     1      31.433  43.704  56.355  1.00  0.00    -0.356 OA
HETATM   18  C   UNL     1      31.423  44.087  57.724  1.00  0.00     0.210 C 
ENDBRANCH  14  17
ENDBRANCH   9  11
ENDBRANCH   1   5
BRANCH   2  19
HETATM   19  N   UNL     1      22.875  46.011  49.058  1.00  0.00    -0.267 N 
HETATM   20  C   UNL     1      21.717  45.374  48.659  1.00  0.00     0.240 C 
HETATM   21  O   UNL     1      21.387  44.276  49.107  1.00  0.00    -0.272 OA
HETATM   22  H   UNL     1      23.077  46.985  48.832  1.00  0.00     0.190 HD
BRANCH  20  23
HETATM   23  C   UNL     1      20.900  46.131  47.632  1.00  0.00     0.148 C 
BRANCH  23  24
HETATM   24  C   UNL     1      19.558  46.562  48.163  1.00  0.00     0.011 A 
HETATM   25  C   UNL     1      19.365  47.732  48.908  1.00  0.00     0.043 A 
HETATM   26 CL   UNL     1      20.676  48.784  49.308  1.00  0.00    -0.084 Cl
HETATM   27  C   UNL     1      18.089  48.088  49.364  1.00  0.00     0.024 A 
HETATM   28  C   UNL     1      16.986  47.285  49.071  1.00  0.00     0.005 A 
HETATM   29  C   UNL     1      17.161  46.127  48.321  1.00  0.00     0.043 A 
HETATM   30  C   UNL     1      18.434  45.779  47.875  1.00  0.00     0.124 A 
HETATM   31  F   UNL     1      18.570  44.653  47.161  1.00  0.00    -0.205 F 
ENDBRANCH  23  24
ENDBRANCH  20  23
ENDBRANCH   2  19
TORSDOF 6
ENDMDL
MODEL 8
REMARK VINA RESULT:      -8.2      2.885      4.135
REMARK  6 active torsions:
REMARK  status: ('A' for Active; 'I' for Inactive)
REMARK    1  A    between atoms: O_2  and  C_3 
REMARK    2  A    between atoms: C_6  and  C_7 
REMARK    3  A    between atoms: C_11  and  C_12 
REMARK       I    between atoms: C_12  and  N_13 
REMARK    4  A    between atoms: N_13  and  N_14 
REMARK       I    between atoms: N_14  and  C_15 
REMARK    5  A    between atoms: C_15  and  C_16 
REMARK    6  A    between atoms: C_16  and  C_17 
ROOT
HETATM    1  C   UNL     1      22.668  47.266  48.641  1.00  0.00     0.288 C 
HETATM    2  N   UNL     1      21.578  47.937  49.156  1.00  0.00    -0.262 N 
HETATM    3  O   UNL     1      22.677  46.827  47.492  1.00  0.00    -0.264 OA
HETATM    4  H   UNL     1      21.623  48.445  50.038  1.00  0.00     0.190 HD
ENDROOT
BRANCH   1   5
HETATM    5  C   UNL     1      23.790  47.140  49.530  1.00  0.00     0.121 A 
HETATM    6  N   UNL     1      24.690  48.153  49.707  1.00  0.00    -0.272 N 
HETATM    7  N   UNL     1      25.669  47.873  50.579  1.00  0.00    -0.174 NA
HETATM    8  H   UNL     1      24.681  49.062  49.253  1.00  0.00     0.189 HD
HETATM    9  C   UNL     1      25.392  46.635  51.018  1.00  0.00     0.089 A 
HETATM   10  C   UNL     1      24.231  46.133  50.365  1.00  0.00     0.071 A 
BRANCH   9  11
HETATM   11  C   UNL     1      26.220  45.969  52.028  1.00  0.00    -0.005 A 
HETATM   12  C   UNL     1      26.796  44.716  51.780  1.00  0.00     0.016 A 
HETATM   13  C   UNL     1      27.583  44.092  52.754  1.00  0.00     0.037 A 
HETATM   14  C   UNL     1      27.814  44.702  53.987  1.00  0.00     0.068 A 
HETATM   15  C   UNL     1      27.240  45.946  54.246  1.00  0.00     0.037 A 
HETATM   16  C   UNL     1      26.448  46.571  53.274  1.00  0.00     0.016 A 
BRANCH  14  17
HETATM   17  O   UNL     1      28.604  43.983  54.841  1.00  0.00    -0.356 OA
HETATM   18  C   UNL     1      29.818  43.467  54.310  1.00  0.00     0.210 C 
ENDBRANCH  14  17
ENDBRANCH   9  11
ENDBRANCH   1   5
BRANCH   2  19
HETATM   19  N   UNL     1      20.579  48.368  48.268  1.00  0.00    -0.267 N 
HETATM   20  C   UNL     1      19.336  48.631  48.807  1.00  0.00     0.240 C 
HETATM   21  O   UNL     1      19.040  48.304  49.957  1.00  0.00    -0.272 OA
HETATM   22  H   UNL     1      20.899  48.778  47.389  1.00  0.00     0.190 HD
BRANCH  20  23
HETATM   23  C   UNL     1      18.378  49.343  47.875  1.00  0.00     0.148 C 
BRANCH  23  24
HETATM   24  C   UNL     1      17.722  50.536  48.518  1.00  0.00     0.011 A 
HETATM   25  C   UNL     1      18.421  51.693  48.886  1.00  0.00     0.043 A 
HETATM   26 CL   UNL     1      20.126  51.842  48.650  1.00  0.00    -0.084 Cl
HETATM   27  C   UNL     1      17.752  52.777  49.469  1.00  0.00     0.024 A 
HETATM   28  C   UNL     1      16.375  52.725  49.683  1.00  0.00     0.005 A 
HETATM   29  C   UNL     1      15.666  51.588  49.311  1.00  0.00     0.043 A 
HETATM   30  C   UNL     1      16.339  50.513  48.734  1.00  0.00     0.124 A 
HETATM   31  F   UNL     1      15.629  49.428  48.394  1.00  0.00    -0.205 F 
ENDBRANCH  23  24
ENDBRANCH  20  23
ENDBRANCH   2  19
TORSDOF 6
ENDMDL
MODEL 9
REMARK VINA RESULT:      -8.1      2.248      3.366
REMARK  6 active torsions:
REMARK  status: ('A' for Active; 'I' for Inactive)
REMARK    1  A    between atoms: O_2  and  C_3 
REMARK    2  A    between atoms: C_6  and  C_7 
REMARK    3  A    between atoms: C_11  and  C_12 
REMARK       I    between atoms: C_12  and  N_13 
REMARK    4  A    between atoms: N_13  and  N_14 
REMARK       I    between atoms: N_14  and  C_15 
REMARK    5  A    between atoms: C_15  and  C_16 
REMARK    6  A    between atoms: C_16  and  C_17 
ROOT
HETATM    1  C   UNL     1      24.099  47.998  49.335  1.00  0.00     0.288 C 
HETATM    2  N   UNL     1      22.883  47.593  48.824  1.00  0.00    -0.262 N 
HETATM    3  O   UNL     1      24.659  49.022  48.946  1.00  0.00    -0.264 OA
HETATM    4  H   UNL     1      22.338  46.847  49.253  1.00  0.00     0.190 HD
ENDROOT
BRANCH   1   5
HETATM    5  C   UNL     1      24.647  47.156  50.362  1.00  0.00     0.121 A 
HETATM    6  N   UNL     1      24.066  45.970  50.711  1.00  0.00    -0.272 N 
HETATM    7  N   UNL     1      24.713  45.303  51.679  1.00  0.00    -0.174 NA
HETATM    8  H   UNL     1      23.222  45.565  50.317  1.00  0.00     0.189 HD
HETATM    9  C   UNL     1      25.780  46.066  51.964  1.00  0.00     0.089 A 
HETATM   10  C   UNL     1      25.761  47.250  51.172  1.00  0.00     0.071 A 
BRANCH   9  11
HETATM   11  C   UNL     1      26.775  45.663  52.963  1.00  0.00    -0.005 A 
HETATM   12  C   UNL     1      27.077  46.486  54.055  1.00  0.00     0.016 A 
HETATM   13  C   UNL     1      28.029  46.089  55.001  1.00  0.00     0.037 A 
HETATM   14  C   UNL     1      28.694  44.868  54.878  1.00  0.00     0.068 A 
HETATM   15  C   UNL     1      28.405  44.046  53.790  1.00  0.00     0.037 A 
HETATM   16  C   UNL     1      27.455  44.443  52.840  1.00  0.00     0.016 A 
BRANCH  14  17
HETATM   17  O   UNL     1      29.594  44.605  55.873  1.00  0.00    -0.356 OA
HETATM   18  C   UNL     1      30.673  43.737  55.548  1.00  0.00     0.210 C 
ENDBRANCH  14  17
ENDBRANCH   9  11
ENDBRANCH   1   5
BRANCH   2  19
HETATM   19  N   UNL     1      22.145  48.507  48.054  1.00  0.00    -0.267 N 
HETATM   20  C   UNL     1      20.944  48.939  48.581  1.00  0.00     0.240 C 
HETATM   21  O   UNL     1      20.430  48.401  49.561  1.00  0.00    -0.272 OA
HETATM   22  H   UNL     1      22.668  49.041  47.359  1.00  0.00     0.190 HD
BRANCH  20  23
HETATM   23  C   UNL     1      20.320  50.114  47.856  1.00  0.00     0.148 C 
BRANCH  23  24
HETATM   24  C   UNL     1      18.816  50.098  47.914  1.00  0.00     0.011 A 
HETATM   25  C   UNL     1      18.071  50.901  48.787  1.00  0.00     0.043 A 
HETATM   26 CL   UNL     1      18.829  51.979  49.905  1.00  0.00    -0.084 Cl
HETATM   27  C   UNL     1      16.671  50.853  48.785  1.00  0.00     0.024 A 
HETATM   28  C   UNL     1      15.995  50.008  47.904  1.00  0.00     0.005 A 
HETATM   29  C   UNL     1      16.722  49.215  47.023  1.00  0.00     0.043 A 
HETATM   30  C   UNL     1      18.114  49.267  47.033  1.00  0.00     0.124 A 
HETATM   31  F   UNL     1      18.785  48.484  46.177  1.00  0.00    -0.205 F 
ENDBRANCH  23  24
ENDBRANCH  20  23
ENDBRANCH   2  19
TORSDOF 6
ENDMDL
MODEL 10
REMARK VINA RESULT:      -8.1      6.770      8.379
REMARK  6 active torsions:
REMARK  status: ('A' for Active; 'I' for Inactive)
REMARK    1  A    between atoms: O_2  and  C_3 
REMARK    2  A    between atoms: C_6  and  C_7 
REMARK    3  A    between atoms: C_11  and  C_12 
REMARK       I    between atoms: C_12  and  N_13 
REMARK    4  A    between atoms: N_13  and  N_14 
REMARK       I    between atoms: N_14  and  C_15 
REMARK    5  A    between atoms: C_15  and  C_16 
REMARK    6  A    between atoms: C_16  and  C_17 
ROOT
HETATM    1  C   UNL     1      26.402  41.643  50.003  1.00  0.00     0.288 C 
HETATM    2  N   UNL     1      27.111  42.055  48.894  1.00  0.00    -0.262 N 
HETATM    3  O   UNL     1      25.319  41.068  49.904  1.00  0.00    -0.264 OA
HETATM    4  H   UNL     1      28.075  42.378  48.959  1.00  0.00     0.190 HD
ENDROOT
BRANCH   1   5
HETATM    5  C   UNL     1      27.026  41.910  51.269  1.00  0.00     0.121 A 
HETATM    6  N   UNL     1      27.303  40.914  52.163  1.00  0.00    -0.272 N 
HETATM    7  N   UNL     1      27.897  41.334  53.290  1.00  0.00    -0.174 NA
HETATM    8  H   UNL     1      27.105  39.923  52.053  1.00  0.00     0.189 HD
HETATM    9  C   UNL     1      28.045  42.658  53.124  1.00  0.00     0.089 A 
HETATM   10  C   UNL     1      27.490  43.060  51.876  1.00  0.00     0.071 A 
BRANCH   9  11
HETATM   11  C   UNL     1      28.696  43.496  54.135  1.00  0.00    -0.005 A 
HETATM   12  C   UNL     1      29.928  43.131  54.693  1.00  0.00     0.016 A 
HETATM   13  C   UNL     1      30.538  43.941  55.658  1.00  0.00     0.037 A 
HETATM   14  C   UNL     1      29.937  45.127  56.081  1.00  0.00     0.068 A 
HETATM   15  C   UNL     1      28.708  45.495  55.536  1.00  0.00     0.037 A 
HETATM   16  C   UNL     1      28.093  44.684  54.573  1.00  0.00     0.016 A 
BRANCH  14  17
HETATM   17  O   UNL     1      30.644  45.821  57.023  1.00  0.00    -0.356 OA
HETATM   18  C   UNL     1      30.731  45.238  58.317  1.00  0.00     0.210 C 
ENDBRANCH  14  17
ENDBRANCH   9  11
ENDBRANCH   1   5
BRANCH   2  19
HETATM   19  N   UNL     1      26.726  41.565  47.636  1.00  0.00    -0.267 N 
HETATM   20  C   UNL     1      27.521  40.581  47.081  1.00  0.00     0.240 C 
HETATM   21  O   UNL     1      28.624  40.294  47.544  1.00  0.00    -0.272 OA
HETATM   22  H   UNL     1      25.748  41.698  47.376  1.00  0.00     0.190 HD
BRANCH  20  23
HETATM   23  C   UNL     1      26.927  39.898  45.866  1.00  0.00     0.148 C 
BRANCH  23  24
HETATM   24  C   UNL     1      27.873  39.872  44.696  1.00  0.00     0.011 A 
HETATM   25  C   UNL     1      28.707  38.784  44.403  1.00  0.00     0.043 A 
HETATM   26 CL   UNL     1      28.736  37.367  45.392  1.00  0.00    -0.084 Cl
HETATM   27  C   UNL     1      29.557  38.813  43.290  1.00  0.00     0.024 A 
HETATM   28  C   UNL     1      29.579  39.924  42.448  1.00  0.00     0.005 A 
HETATM   29  C   UNL     1      28.748  41.006  42.718  1.00  0.00     0.043 A 
HETATM   30  C   UNL     1      27.907  40.970  43.829  1.00  0.00     0.124 A 
HETATM   31  F   UNL     1      27.124  42.032  44.067  1.00  0.00    -0.205 F 
ENDBRANCH  23  24
ENDBRANCH  20  23
ENDBRANCH   2  19
TORSDOF 6
ENDMDL
