MODEL 1
REMARK VINA RESULT:      -9.8      0.000      0.000
REMARK  8 active torsions:
REMARK  status: ('A' for Active; 'I' for Inactive)
REMARK    1  A    between atoms: O_2  and  C_3 
REMARK    2  A    between atoms: C_4  and  N_5 
REMARK       I    between atoms: N_5  and  C_6 
REMARK       I    between atoms: C_6  and  N_7 
REMARK    3  A    between atoms: N_7  and  C_8 
REMARK    4  A    between atoms: C_11  and  C_12 
REMARK    5  A    between atoms: C_12  and  C_13 
REMARK       I    between atoms: C_13  and  N_14 
REMARK    6  A    between atoms: N_14  and  C_15 
REMARK    7  A    between atoms: C_16  and  O_17 
REMARK    8  A    between atoms: O_17  and  C_18 
ROOT
HETATM    1  C   UNL     1      42.306 -13.769   6.008  1.00  0.00     0.174 C 
HETATM    2  S   UNL     1      40.740 -14.435   6.087  1.00  0.00    -0.062 SA
HETATM    3  C   UNL     1      41.377 -15.765   6.959  1.00  0.00     0.081 C 
HETATM    4  C   UNL     1      42.747 -15.624   7.103  1.00  0.00     0.052 C 
HETATM    5  N   UNL     1      43.258 -14.419   6.630  1.00  0.00    -0.228 NA
ENDROOT
BRANCH   4   6
HETATM    6  C   UNL     1      43.684 -16.649   7.654  1.00  0.00     0.163 C 
BRANCH   6   7
HETATM    7  C   UNL     1      43.636 -17.902   6.784  1.00  0.00     0.227 C 
HETATM    8  N   UNL     1      44.104 -17.705   5.497  1.00  0.00    -0.324 N 
HETATM    9  H   UNL     1      44.637 -16.866   5.300  1.00  0.00     0.169 HD
HETATM   10  O   UNL     1      43.209 -18.966   7.230  1.00  0.00    -0.273 OA
BRANCH   8  11
HETATM   11  C   UNL     1      43.933 -18.564   4.386  1.00  0.00     0.069 A 
HETATM   12  C   UNL     1      43.543 -17.991   3.163  1.00  0.00     0.102 A 
HETATM   13  C   UNL     1      43.244 -18.794   2.055  1.00  0.00     0.039 A 
HETATM   14  C   UNL     1      43.383 -20.177   2.147  1.00  0.00     0.003 A 
HETATM   15  C   UNL     1      43.805 -20.753   3.344  1.00  0.00     0.002 A 
HETATM   16  C   UNL     1      44.075 -19.952   4.459  1.00  0.00     0.032 A 
BRANCH  12  17
HETATM   17  O   UNL     1      43.417 -16.617   3.098  1.00  0.00    -0.309 OA
BRANCH  17  18
HETATM   18  C   UNL     1      42.253 -16.113   2.557  1.00  0.00     0.076 A 
HETATM   19  C   UNL     1      42.388 -15.357   1.392  1.00  0.00     0.037 A 
HETATM   20  C   UNL     1      41.258 -14.819   0.773  1.00  0.00     0.003 A 
HETATM   21  C   UNL     1      39.992 -15.047   1.312  1.00  0.00     0.000 A 
HETATM   22  C   UNL     1      39.853 -15.823   2.463  1.00  0.00     0.003 A 
HETATM   23  C   UNL     1      40.981 -16.368   3.080  1.00  0.00     0.037 A 
ENDBRANCH  17  18
ENDBRANCH  12  17
ENDBRANCH   8  11
ENDBRANCH   6   7
ENDBRANCH   4   6
BRANCH   1  24
HETATM   24  N   UNL     1      42.391 -12.638   5.253  1.00  0.00    -0.287 N 
HETATM   25  C   UNL     1      42.816 -11.413   5.672  1.00  0.00     0.326 C 
HETATM   26  N   UNL     1      42.793 -11.173   7.017  1.00  0.00    -0.306 N 
HETATM   27  O   UNL     1      43.115 -10.588   4.809  1.00  0.00    -0.247 OA
HETATM   28  H   UNL     1      42.268 -11.832   7.585  1.00  0.00     0.171 HD
HETATM   29  H   UNL     1      42.292 -12.741   4.255  1.00  0.00     0.172 HD
BRANCH  26  30
HETATM   30  C   UNL     1      43.171  -9.978   7.664  1.00  0.00     0.069 A 
HETATM   31  C   UNL     1      44.444  -9.918   8.255  1.00  0.00     0.095 A 
HETATM   32  C   UNL     1      44.882  -8.744   8.875  1.00  0.00     0.039 A 
HETATM   33  C   UNL     1      44.042  -7.632   8.930  1.00  0.00     0.003 A 
HETATM   34  C   UNL     1      42.772  -7.690   8.360  1.00  0.00     0.002 A 
HETATM   35  C   UNL     1      42.336  -8.859   7.730  1.00  0.00     0.032 A 
BRANCH  31  36
HETATM   36  O   UNL     1      45.231 -11.045   8.201  1.00  0.00    -0.354 OA
HETATM   37  C   UNL     1      46.155 -11.003   7.112  1.00  0.00     0.210 C 
ENDBRANCH  31  36
ENDBRANCH  26  30
ENDBRANCH   1  24
TORSDOF 8
ENDMDL
MODEL 2
REMARK VINA RESULT:      -9.1      2.773     10.225
REMARK  8 active torsions:
REMARK  status: ('A' for Active; 'I' for Inactive)
REMARK    1  A    between atoms: O_2  and  C_3 
REMARK    2  A    between atoms: C_4  and  N_5 
REMARK       I    between atoms: N_5  and  C_6 
REMARK       I    between atoms: C_6  and  N_7 
REMARK    3  A    between atoms: N_7  and  C_8 
REMARK    4  A    between atoms: C_11  and  C_12 
REMARK    5  A    between atoms: C_12  and  C_13 
REMARK       I    between atoms: C_13  and  N_14 
REMARK    6  A    between atoms: N_14  and  C_15 
REMARK    7  A    between atoms: C_16  and  O_17 
REMARK    8  A    between atoms: O_17  and  C_18 
ROOT
HETATM    1  C   UNL     1      43.382 -12.985   6.637  1.00  0.00     0.174 C 
HETATM    2  S   UNL     1      43.436 -12.265   5.094  1.00  0.00    -0.062 SA
HETATM    3  C   UNL     1      44.635 -11.185   5.668  1.00  0.00     0.081 C 
HETATM    4  C   UNL     1      44.890 -11.429   7.007  1.00  0.00     0.052 C 
HETATM    5  N   UNL     1      44.226 -12.534   7.531  1.00  0.00    -0.228 NA
ENDROOT
BRANCH   4   6
HETATM    6  C   UNL     1      45.743 -10.595   7.907  1.00  0.00     0.163 C 
BRANCH   6   7
HETATM    7  C   UNL     1      44.997  -9.315   8.275  1.00  0.00     0.227 C 
HETATM    8  N   UNL     1      43.659  -9.514   8.563  1.00  0.00    -0.324 N 
HETATM    9  H   UNL     1      43.337 -10.460   8.737  1.00  0.00     0.169 HD
HETATM   10  O   UNL     1      45.576  -8.230   8.297  1.00  0.00    -0.273 OA
BRANCH   8  11
HETATM   11  C   UNL     1      42.650  -8.527   8.657  1.00  0.00     0.069 A 
HETATM   12  C   UNL     1      41.825  -8.534   9.795  1.00  0.00     0.102 A 
HETATM   13  C   UNL     1      40.735  -7.660   9.898  1.00  0.00     0.039 A 
HETATM   14  C   UNL     1      40.493  -6.734   8.885  1.00  0.00     0.003 A 
HETATM   15  C   UNL     1      41.328  -6.693   7.770  1.00  0.00     0.002 A 
HETATM   16  C   UNL     1      42.399  -7.587   7.654  1.00  0.00     0.032 A 
BRANCH  12  17
HETATM   17  O   UNL     1      42.089  -9.459  10.786  1.00  0.00    -0.309 OA
BRANCH  17  18
HETATM   18  C   UNL     1      42.129  -9.000  12.086  1.00  0.00     0.076 A 
HETATM   19  C   UNL     1      43.132  -8.078  12.387  1.00  0.00     0.037 A 
HETATM   20  C   UNL     1      43.236  -7.555  13.678  1.00  0.00     0.003 A 
HETATM   21  C   UNL     1      42.329  -7.943  14.663  1.00  0.00     0.000 A 
HETATM   22  C   UNL     1      41.310  -8.846  14.358  1.00  0.00     0.003 A 
HETATM   23  C   UNL     1      41.200  -9.366  13.067  1.00  0.00     0.037 A 
ENDBRANCH  17  18
ENDBRANCH  12  17
ENDBRANCH   8  11
ENDBRANCH   6   7
ENDBRANCH   4   6
BRANCH   1  24
HETATM   24  N   UNL     1      42.416 -13.936   6.772  1.00  0.00    -0.287 N 
HETATM   25  C   UNL     1      42.444 -15.200   6.263  1.00  0.00     0.326 C 
HETATM   26  N   UNL     1      43.299 -15.433   5.223  1.00  0.00    -0.306 N 
HETATM   27  O   UNL     1      41.646 -16.017   6.722  1.00  0.00    -0.247 OA
HETATM   28  H   UNL     1      43.690 -14.613   4.766  1.00  0.00     0.171 HD
HETATM   29  H   UNL     1      41.686 -13.759   7.444  1.00  0.00     0.172 HD
BRANCH  26  30
HETATM   30  C   UNL     1      43.477 -16.653   4.539  1.00  0.00     0.069 A 
HETATM   31  C   UNL     1      42.916 -16.784   3.257  1.00  0.00     0.095 A 
HETATM   32  C   UNL     1      43.098 -17.958   2.521  1.00  0.00     0.039 A 
HETATM   33  C   UNL     1      43.819 -19.018   3.070  1.00  0.00     0.003 A 
HETATM   34  C   UNL     1      44.364 -18.901   4.348  1.00  0.00     0.002 A 
HETATM   35  C   UNL     1      44.193 -17.724   5.081  1.00  0.00     0.032 A 
BRANCH  31  36
HETATM   36  O   UNL     1      42.191 -15.725   2.763  1.00  0.00    -0.354 OA
HETATM   37  C   UNL     1      40.782 -15.949   2.855  1.00  0.00     0.210 C 
ENDBRANCH  31  36
ENDBRANCH  26  30
ENDBRANCH   1  24
TORSDOF 8
ENDMDL
MODEL 3
REMARK VINA RESULT:      -9.1      1.744      2.200
REMARK  8 active torsions:
REMARK  status: ('A' for Active; 'I' for Inactive)
REMARK    1  A    between atoms: O_2  and  C_3 
REMARK    2  A    between atoms: C_4  and  N_5 
REMARK       I    between atoms: N_5  and  C_6 
REMARK       I    between atoms: C_6  and  N_7 
REMARK    3  A    between atoms: N_7  and  C_8 
REMARK    4  A    between atoms: C_11  and  C_12 
REMARK    5  A    between atoms: C_12  and  C_13 
REMARK       I    between atoms: C_13  and  N_14 
REMARK    6  A    between atoms: N_14  and  C_15 
REMARK    7  A    between atoms: C_16  and  O_17 
REMARK    8  A    between atoms: O_17  and  C_18 
ROOT
HETATM    1  C   UNL     1      44.116 -12.324   6.665  1.00  0.00     0.174 C 
HETATM    2  S   UNL     1      43.294 -12.476   5.180  1.00  0.00    -0.062 SA
HETATM    3  C   UNL     1      42.677 -13.985   5.706  1.00  0.00     0.081 C 
HETATM    4  C   UNL     1      43.164 -14.283   6.967  1.00  0.00     0.052 C 
HETATM    5  N   UNL     1      43.922 -13.271   7.550  1.00  0.00    -0.228 NA
ENDROOT
BRANCH   4   6
HETATM    6  C   UNL     1      42.993 -15.577   7.694  1.00  0.00     0.163 C 
BRANCH   6   7
HETATM    7  C   UNL     1      42.655 -16.681   6.695  1.00  0.00     0.227 C 
HETATM    8  N   UNL     1      43.759 -17.384   6.248  1.00  0.00    -0.324 N 
HETATM    9  H   UNL     1      44.631 -17.292   6.758  1.00  0.00     0.169 HD
HETATM   10  O   UNL     1      41.493 -16.887   6.348  1.00  0.00    -0.273 OA
BRANCH   8  11
HETATM   11  C   UNL     1      43.824 -18.255   5.135  1.00  0.00     0.069 A 
HETATM   12  C   UNL     1      43.661 -17.701   3.853  1.00  0.00     0.102 A 
HETATM   13  C   UNL     1      43.598 -18.519   2.718  1.00  0.00     0.039 A 
HETATM   14  C   UNL     1      43.749 -19.898   2.851  1.00  0.00     0.003 A 
HETATM   15  C   UNL     1      43.949 -20.454   4.113  1.00  0.00     0.002 A 
HETATM   16  C   UNL     1      43.982 -19.638   5.250  1.00  0.00     0.032 A 
BRANCH  12  17
HETATM   17  O   UNL     1      43.517 -16.331   3.749  1.00  0.00    -0.309 OA
BRANCH  17  18
HETATM   18  C   UNL     1      42.498 -15.860   2.947  1.00  0.00     0.076 A 
HETATM   19  C   UNL     1      42.863 -14.956   1.948  1.00  0.00     0.037 A 
HETATM   20  C   UNL     1      41.894 -14.440   1.086  1.00  0.00     0.003 A 
HETATM   21  C   UNL     1      40.563 -14.837   1.213  1.00  0.00     0.000 A 
HETATM   22  C   UNL     1      40.201 -15.760   2.194  1.00  0.00     0.003 A 
HETATM   23  C   UNL     1      41.168 -16.283   3.055  1.00  0.00     0.037 A 
ENDBRANCH  17  18
ENDBRANCH  12  17
ENDBRANCH   8  11
ENDBRANCH   6   7
ENDBRANCH   4   6
BRANCH   1  24
HETATM   24  N   UNL     1      44.930 -11.235   6.740  1.00  0.00    -0.287 N 
HETATM   25  C   UNL     1      44.885 -10.252   7.683  1.00  0.00     0.326 C 
HETATM   26  N   UNL     1      43.720 -10.114   8.383  1.00  0.00    -0.306 N 
HETATM   27  O   UNL     1      45.865  -9.513   7.783  1.00  0.00    -0.247 OA
HETATM   28  H   UNL     1      42.909 -10.601   8.012  1.00  0.00     0.171 HD
HETATM   29  H   UNL     1      45.747 -11.227   6.150  1.00  0.00     0.172 HD
BRANCH  26  30
HETATM   30  C   UNL     1      43.450  -9.161   9.387  1.00  0.00     0.069 A 
HETATM   31  C   UNL     1      43.742  -9.499  10.719  1.00  0.00     0.095 A 
HETATM   32  C   UNL     1      43.530  -8.575  11.747  1.00  0.00     0.039 A 
HETATM   33  C   UNL     1      43.002  -7.318  11.454  1.00  0.00     0.003 A 
HETATM   34  C   UNL     1      42.695  -6.982  10.137  1.00  0.00     0.002 A 
HETATM   35  C   UNL     1      42.916  -7.900   9.106  1.00  0.00     0.032 A 
BRANCH  31  36
HETATM   36  O   UNL     1      44.237 -10.757  10.968  1.00  0.00    -0.354 OA
HETATM   37  C   UNL     1      43.626 -11.359  12.111  1.00  0.00     0.210 C 
ENDBRANCH  31  36
ENDBRANCH  26  30
ENDBRANCH   1  24
TORSDOF 8
ENDMDL
MODEL 4
REMARK VINA RESULT:      -9.0      2.082      9.211
REMARK  8 active torsions:
REMARK  status: ('A' for Active; 'I' for Inactive)
REMARK    1  A    between atoms: O_2  and  C_3 
REMARK    2  A    between atoms: C_4  and  N_5 
REMARK       I    between atoms: N_5  and  C_6 
REMARK       I    between atoms: C_6  and  N_7 
REMARK    3  A    between atoms: N_7  and  C_8 
REMARK    4  A    between atoms: C_11  and  C_12 
REMARK    5  A    between atoms: C_12  and  C_13 
REMARK       I    between atoms: C_13  and  N_14 
REMARK    6  A    between atoms: N_14  and  C_15 
REMARK    7  A    between atoms: C_16  and  O_17 
REMARK    8  A    between atoms: O_17  and  C_18 
ROOT
HETATM    1  C   UNL     1      43.141 -13.133   6.595  1.00  0.00     0.174 C 
HETATM    2  S   UNL     1      42.351 -12.085   5.508  1.00  0.00    -0.062 SA
HETATM    3  C   UNL     1      43.671 -11.001   5.635  1.00  0.00     0.081 C 
HETATM    4  C   UNL     1      44.610 -11.499   6.522  1.00  0.00     0.052 C 
HETATM    5  N   UNL     1      44.335 -12.777   6.999  1.00  0.00    -0.228 NA
ENDROOT
BRANCH   4   6
HETATM    6  C   UNL     1      45.816 -10.774   7.027  1.00  0.00     0.163 C 
BRANCH   6   7
HETATM    7  C   UNL     1      45.397  -9.779   8.106  1.00  0.00     0.227 C 
HETATM    8  N   UNL     1      44.557 -10.317   9.064  1.00  0.00    -0.324 N 
HETATM    9  H   UNL     1      44.473 -11.327   9.122  1.00  0.00     0.169 HD
HETATM   10  O   UNL     1      45.794  -8.615   8.082  1.00  0.00    -0.273 OA
BRANCH   8  11
HETATM   11  C   UNL     1      43.779  -9.611  10.011  1.00  0.00     0.069 A 
HETATM   12  C   UNL     1      42.466  -9.259   9.656  1.00  0.00     0.102 A 
HETATM   13  C   UNL     1      41.682  -8.460  10.499  1.00  0.00     0.039 A 
HETATM   14  C   UNL     1      42.189  -8.050  11.731  1.00  0.00     0.003 A 
HETATM   15  C   UNL     1      43.477  -8.425  12.109  1.00  0.00     0.002 A 
HETATM   16  C   UNL     1      44.270  -9.199  11.253  1.00  0.00     0.032 A 
BRANCH  12  17
HETATM   17  O   UNL     1      41.985  -9.681   8.432  1.00  0.00    -0.309 OA
BRANCH  17  18
HETATM   18  C   UNL     1      41.482  -8.718   7.583  1.00  0.00     0.076 A 
HETATM   19  C   UNL     1      40.140  -8.849   7.224  1.00  0.00     0.037 A 
HETATM   20  C   UNL     1      39.548  -7.911   6.376  1.00  0.00     0.003 A 
HETATM   21  C   UNL     1      40.295  -6.835   5.897  1.00  0.00     0.000 A 
HETATM   22  C   UNL     1      41.630  -6.689   6.274  1.00  0.00     0.003 A 
HETATM   23  C   UNL     1      42.222  -7.622   7.127  1.00  0.00     0.037 A 
ENDBRANCH  17  18
ENDBRANCH  12  17
ENDBRANCH   8  11
ENDBRANCH   6   7
ENDBRANCH   4   6
BRANCH   1  24
HETATM   24  N   UNL     1      42.401 -14.218   6.956  1.00  0.00    -0.287 N 
HETATM   25  C   UNL     1      42.550 -15.492   6.495  1.00  0.00     0.326 C 
HETATM   26  N   UNL     1      43.213 -15.651   5.312  1.00  0.00    -0.306 N 
HETATM   27  O   UNL     1      42.012 -16.395   7.135  1.00  0.00    -0.247 OA
HETATM   28  H   UNL     1      43.359 -14.812   4.758  1.00  0.00     0.171 HD
HETATM   29  H   UNL     1      41.796 -14.118   7.757  1.00  0.00     0.172 HD
BRANCH  26  30
HETATM   30  C   UNL     1      43.466 -16.869   4.648  1.00  0.00     0.069 A 
HETATM   31  C   UNL     1      43.065 -16.990   3.307  1.00  0.00     0.095 A 
HETATM   32  C   UNL     1      43.327 -18.162   2.591  1.00  0.00     0.039 A 
HETATM   33  C   UNL     1      43.970 -19.230   3.218  1.00  0.00     0.003 A 
HETATM   34  C   UNL     1      44.356 -19.123   4.553  1.00  0.00     0.002 A 
HETATM   35  C   UNL     1      44.104 -17.948   5.267  1.00  0.00     0.032 A 
BRANCH  31  36
HETATM   36  O   UNL     1      42.411 -15.924   2.734  1.00  0.00    -0.354 OA
HETATM   37  C   UNL     1      43.083 -15.447   1.566  1.00  0.00     0.210 C 
ENDBRANCH  31  36
ENDBRANCH  26  30
ENDBRANCH   1  24
TORSDOF 8
ENDMDL
MODEL 5
REMARK VINA RESULT:      -9.0      3.441      6.896
REMARK  8 active torsions:
REMARK  status: ('A' for Active; 'I' for Inactive)
REMARK    1  A    between atoms: O_2  and  C_3 
REMARK    2  A    between atoms: C_4  and  N_5 
REMARK       I    between atoms: N_5  and  C_6 
REMARK       I    between atoms: C_6  and  N_7 
REMARK    3  A    between atoms: N_7  and  C_8 
REMARK    4  A    between atoms: C_11  and  C_12 
REMARK    5  A    between atoms: C_12  and  C_13 
REMARK       I    between atoms: C_13  and  N_14 
REMARK    6  A    between atoms: N_14  and  C_15 
REMARK    7  A    between atoms: C_16  and  O_17 
REMARK    8  A    between atoms: O_17  and  C_18 
ROOT
HETATM    1  C   UNL     1      39.386 -10.496   3.845  1.00  0.00     0.174 C 
HETATM    2  S   UNL     1      38.475  -9.098   3.502  1.00  0.00    -0.062 SA
HETATM    3  C   UNL     1      39.459  -8.827   2.126  1.00  0.00     0.081 C 
HETATM    4  C   UNL     1      40.434  -9.806   2.040  1.00  0.00     0.052 C 
HETATM    5  N   UNL     1      40.322 -10.819   2.988  1.00  0.00    -0.228 NA
ENDROOT
BRANCH   4   6
HETATM    6  C   UNL     1      41.580  -9.825   1.082  1.00  0.00     0.163 C 
BRANCH   6   7
HETATM    7  C   UNL     1      41.189 -10.613  -0.165  1.00  0.00     0.227 C 
HETATM    8  N   UNL     1      40.188 -11.542   0.054  1.00  0.00    -0.324 N 
HETATM    9  H   UNL     1      39.646 -11.477   0.909  1.00  0.00     0.169 HD
HETATM   10  O   UNL     1      41.744 -10.407  -1.244  1.00  0.00    -0.273 OA
BRANCH   8  11
HETATM   11  C   UNL     1      39.806 -12.603  -0.800  1.00  0.00     0.069 A 
HETATM   12  C   UNL     1      39.709 -13.892  -0.249  1.00  0.00     0.102 A 
HETATM   13  C   UNL     1      39.449 -15.003  -1.060  1.00  0.00     0.039 A 
HETATM   14  C   UNL     1      39.232 -14.828  -2.425  1.00  0.00     0.003 A 
HETATM   15  C   UNL     1      39.288 -13.549  -2.976  1.00  0.00     0.002 A 
HETATM   16  C   UNL     1      39.577 -12.442  -2.169  1.00  0.00     0.032 A 
BRANCH  12  17
HETATM   17  O   UNL     1      39.925 -14.039   1.108  1.00  0.00    -0.309 OA
BRANCH  17  18
HETATM   18  C   UNL     1      41.040 -14.749   1.498  1.00  0.00     0.076 A 
HETATM   19  C   UNL     1      40.832 -16.080   1.861  1.00  0.00     0.037 A 
HETATM   20  C   UNL     1      41.910 -16.873   2.259  1.00  0.00     0.003 A 
HETATM   21  C   UNL     1      43.198 -16.339   2.282  1.00  0.00     0.000 A 
HETATM   22  C   UNL     1      43.412 -15.015   1.896  1.00  0.00     0.003 A 
HETATM   23  C   UNL     1      42.337 -14.222   1.492  1.00  0.00     0.037 A 
ENDBRANCH  17  18
ENDBRANCH  12  17
ENDBRANCH   8  11
ENDBRANCH   6   7
ENDBRANCH   4   6
BRANCH   1  24
HETATM   24  N   UNL     1      39.052 -11.101   5.019  1.00  0.00    -0.287 N 
HETATM   25  C   UNL     1      39.683 -12.164   5.592  1.00  0.00     0.326 C 
HETATM   26  N   UNL     1      40.459 -12.940   4.778  1.00  0.00    -0.306 N 
HETATM   27  O   UNL     1      39.449 -12.394   6.779  1.00  0.00    -0.247 OA
HETATM   28  H   UNL     1      40.343 -12.803   3.778  1.00  0.00     0.171 HD
HETATM   29  H   UNL     1      38.385 -10.628   5.609  1.00  0.00     0.172 HD
BRANCH  26  30
HETATM   30  C   UNL     1      41.184 -14.090   5.154  1.00  0.00     0.069 A 
HETATM   31  C   UNL     1      42.576 -13.976   5.306  1.00  0.00     0.095 A 
HETATM   32  C   UNL     1      43.337 -15.075   5.716  1.00  0.00     0.039 A 
HETATM   33  C   UNL     1      42.714 -16.301   5.951  1.00  0.00     0.003 A 
HETATM   34  C   UNL     1      41.336 -16.426   5.785  1.00  0.00     0.002 A 
HETATM   35  C   UNL     1      40.573 -15.325   5.386  1.00  0.00     0.032 A 
BRANCH  31  36
HETATM   36  O   UNL     1      43.153 -12.756   5.040  1.00  0.00    -0.354 OA
HETATM   37  C   UNL     1      43.795 -12.203   6.191  1.00  0.00     0.210 C 
ENDBRANCH  31  36
ENDBRANCH  26  30
ENDBRANCH   1  24
TORSDOF 8
ENDMDL
MODEL 6
REMARK VINA RESULT:      -8.9      2.799     10.020
REMARK  8 active torsions:
REMARK  status: ('A' for Active; 'I' for Inactive)
REMARK    1  A    between atoms: O_2  and  C_3 
REMARK    2  A    between atoms: C_4  and  N_5 
REMARK       I    between atoms: N_5  and  C_6 
REMARK       I    between atoms: C_6  and  N_7 
REMARK    3  A    between atoms: N_7  and  C_8 
REMARK    4  A    between atoms: C_11  and  C_12 
REMARK    5  A    between atoms: C_12  and  C_13 
REMARK       I    between atoms: C_13  and  N_14 
REMARK    6  A    between atoms: N_14  and  C_15 
REMARK    7  A    between atoms: C_16  and  O_17 
REMARK    8  A    between atoms: O_17  and  C_18 
ROOT
HETATM    1  C   UNL     1      42.432 -13.147   5.231  1.00  0.00     0.174 C 
HETATM    2  S   UNL     1      42.833 -12.037   4.003  1.00  0.00    -0.062 SA
HETATM    3  C   UNL     1      43.916 -11.270   5.086  1.00  0.00     0.081 C 
HETATM    4  C   UNL     1      43.875 -11.896   6.320  1.00  0.00     0.052 C 
HETATM    5  N   UNL     1      43.081 -13.039   6.364  1.00  0.00    -0.228 NA
ENDROOT
BRANCH   4   6
HETATM    6  C   UNL     1      44.544 -11.424   7.570  1.00  0.00     0.163 C 
BRANCH   6   7
HETATM    7  C   UNL     1      43.852 -10.160   8.072  1.00  0.00     0.227 C 
HETATM    8  N   UNL     1      42.486 -10.301   8.238  1.00  0.00    -0.324 N 
HETATM    9  H   UNL     1      42.095 -11.237   8.250  1.00  0.00     0.169 HD
HETATM   10  O   UNL     1      44.492  -9.132   8.292  1.00  0.00    -0.273 OA
BRANCH   8  11
HETATM   11  C   UNL     1      41.535  -9.268   8.410  1.00  0.00     0.069 A 
HETATM   12  C   UNL     1      40.991  -9.079   9.692  1.00  0.00     0.102 A 
HETATM   13  C   UNL     1      39.962  -8.153   9.907  1.00  0.00     0.039 A 
HETATM   14  C   UNL     1      39.504  -7.371   8.849  1.00  0.00     0.003 A 
HETATM   15  C   UNL     1      40.063  -7.524   7.582  1.00  0.00     0.002 A 
HETATM   16  C   UNL     1      41.071  -8.470   7.362  1.00  0.00     0.032 A 
BRANCH  12  17
HETATM   17  O   UNL     1      41.465  -9.865  10.725  1.00  0.00    -0.309 OA
BRANCH  17  18
HETATM   18  C   UNL     1      41.852  -9.223  11.882  1.00  0.00     0.076 A 
HETATM   19  C   UNL     1      41.111  -9.513  13.029  1.00  0.00     0.037 A 
HETATM   20  C   UNL     1      41.443  -8.914  14.245  1.00  0.00     0.003 A 
HETATM   21  C   UNL     1      42.524  -8.036  14.319  1.00  0.00     0.000 A 
HETATM   22  C   UNL     1      43.282  -7.765  13.179  1.00  0.00     0.003 A 
HETATM   23  C   UNL     1      42.955  -8.367  11.963  1.00  0.00     0.037 A 
ENDBRANCH  17  18
ENDBRANCH  12  17
ENDBRANCH   8  11
ENDBRANCH   6   7
ENDBRANCH   4   6
BRANCH   1  24
HETATM   24  N   UNL     1      41.430 -14.007   4.896  1.00  0.00    -0.287 N 
HETATM   25  C   UNL     1      41.566 -15.323   4.567  1.00  0.00     0.326 C 
HETATM   26  N   UNL     1      42.802 -15.738   4.160  1.00  0.00    -0.306 N 
HETATM   27  O   UNL     1      40.553 -16.022   4.586  1.00  0.00    -0.247 OA
HETATM   28  H   UNL     1      43.470 -15.009   3.927  1.00  0.00     0.171 HD
HETATM   29  H   UNL     1      40.484 -13.701   5.063  1.00  0.00     0.172 HD
BRANCH  26  30
HETATM   30  C   UNL     1      43.161 -17.042   3.760  1.00  0.00     0.069 A 
HETATM   31  C   UNL     1      43.890 -17.835   4.662  1.00  0.00     0.095 A 
HETATM   32  C   UNL     1      44.237 -19.148   4.331  1.00  0.00     0.039 A 
HETATM   33  C   UNL     1      43.880 -19.668   3.087  1.00  0.00     0.003 A 
HETATM   34  C   UNL     1      43.172 -18.881   2.181  1.00  0.00     0.002 A 
HETATM   35  C   UNL     1      42.814 -17.572   2.515  1.00  0.00     0.032 A 
BRANCH  31  36
HETATM   36  O   UNL     1      44.244 -17.275   5.868  1.00  0.00    -0.354 OA
HETATM   37  C   UNL     1      43.420 -17.741   6.939  1.00  0.00     0.210 C 
ENDBRANCH  31  36
ENDBRANCH  26  30
ENDBRANCH   1  24
TORSDOF 8
ENDMDL
MODEL 7
REMARK VINA RESULT:      -8.8      2.902      8.955
REMARK  8 active torsions:
REMARK  status: ('A' for Active; 'I' for Inactive)
REMARK    1  A    between atoms: O_2  and  C_3 
REMARK    2  A    between atoms: C_4  and  N_5 
REMARK       I    between atoms: N_5  and  C_6 
REMARK       I    between atoms: C_6  and  N_7 
REMARK    3  A    between atoms: N_7  and  C_8 
REMARK    4  A    between atoms: C_11  and  C_12 
REMARK    5  A    between atoms: C_12  and  C_13 
REMARK       I    between atoms: C_13  and  N_14 
REMARK    6  A    between atoms: N_14  and  C_15 
REMARK    7  A    between atoms: C_16  and  O_17 
REMARK    8  A    between atoms: O_17  and  C_18 
ROOT
HETATM    1  C   UNL     1      41.608 -10.086   5.102  1.00  0.00     0.174 C 
HETATM    2  S   UNL     1      40.575  -9.112   4.161  1.00  0.00    -0.062 SA
HETATM    3  C   UNL     1      39.388  -9.229   5.391  1.00  0.00     0.081 C 
HETATM    4  C   UNL     1      39.851 -10.028   6.422  1.00  0.00     0.052 C 
HETATM    5  N   UNL     1      41.173 -10.442   6.285  1.00  0.00    -0.228 NA
ENDROOT
BRANCH   4   6
HETATM    6  C   UNL     1      39.054 -10.506   7.592  1.00  0.00     0.163 C 
BRANCH   6   7
HETATM    7  C   UNL     1      39.449  -9.715   8.836  1.00  0.00     0.227 C 
HETATM    8  N   UNL     1      40.796  -9.794   9.141  1.00  0.00    -0.324 N 
HETATM    9  H   UNL     1      41.433 -10.147   8.435  1.00  0.00     0.169 HD
HETATM   10  O   UNL     1      38.611  -9.081   9.475  1.00  0.00    -0.273 OA
BRANCH   8  11
HETATM   11  C   UNL     1      41.419  -9.422  10.356  1.00  0.00     0.069 A 
HETATM   12  C   UNL     1      42.647  -8.744  10.287  1.00  0.00     0.102 A 
HETATM   13  C   UNL     1      43.373  -8.450  11.448  1.00  0.00     0.039 A 
HETATM   14  C   UNL     1      42.850  -8.788  12.695  1.00  0.00     0.003 A 
HETATM   15  C   UNL     1      41.614  -9.427  12.777  1.00  0.00     0.002 A 
HETATM   16  C   UNL     1      40.903  -9.747  11.614  1.00  0.00     0.032 A 
BRANCH  12  17
HETATM   17  O   UNL     1      43.142  -8.417   9.039  1.00  0.00    -0.309 OA
BRANCH  17  18
HETATM   18  C   UNL     1      44.164  -9.197   8.540  1.00  0.00     0.076 A 
HETATM   19  C   UNL     1      45.421  -8.595   8.461  1.00  0.00     0.037 A 
HETATM   20  C   UNL     1      46.513  -9.318   7.976  1.00  0.00     0.003 A 
HETATM   21  C   UNL     1      46.351 -10.646   7.582  1.00  0.00     0.000 A 
HETATM   22  C   UNL     1      45.101 -11.257   7.684  1.00  0.00     0.003 A 
HETATM   23  C   UNL     1      44.009 -10.538   8.174  1.00  0.00     0.037 A 
ENDBRANCH  17  18
ENDBRANCH  12  17
ENDBRANCH   8  11
ENDBRANCH   6   7
ENDBRANCH   4   6
BRANCH   1  24
HETATM   24  N   UNL     1      42.772 -10.423   4.480  1.00  0.00    -0.287 N 
HETATM   25  C   UNL     1      43.112 -11.654   4.004  1.00  0.00     0.326 C 
HETATM   26  N   UNL     1      42.433 -12.726   4.510  1.00  0.00    -0.306 N 
HETATM   27  O   UNL     1      44.053 -11.719   3.213  1.00  0.00    -0.247 OA
HETATM   28  H   UNL     1      41.882 -12.558   5.347  1.00  0.00     0.171 HD
HETATM   29  H   UNL     1      43.376  -9.669   4.191  1.00  0.00     0.172 HD
BRANCH  26  30
HETATM   30  C   UNL     1      42.630 -14.081   4.174  1.00  0.00     0.069 A 
HETATM   31  C   UNL     1      43.229 -14.921   5.127  1.00  0.00     0.095 A 
HETATM   32  C   UNL     1      43.412 -16.281   4.858  1.00  0.00     0.039 A 
HETATM   33  C   UNL     1      43.019 -16.804   3.626  1.00  0.00     0.003 A 
HETATM   34  C   UNL     1      42.439 -15.973   2.670  1.00  0.00     0.002 A 
HETATM   35  C   UNL     1      42.246 -14.615   2.941  1.00  0.00     0.032 A 
BRANCH  31  36
HETATM   36  O   UNL     1      43.625 -14.360   6.319  1.00  0.00    -0.354 OA
HETATM   37  C   UNL     1      42.939 -14.930   7.435  1.00  0.00     0.210 C 
ENDBRANCH  31  36
ENDBRANCH  26  30
ENDBRANCH   1  24
TORSDOF 8
ENDMDL
MODEL 8
REMARK VINA RESULT:      -8.8      3.066      5.308
REMARK  8 active torsions:
REMARK  status: ('A' for Active; 'I' for Inactive)
REMARK    1  A    between atoms: O_2  and  C_3 
REMARK    2  A    between atoms: C_4  and  N_5 
REMARK       I    between atoms: N_5  and  C_6 
REMARK       I    between atoms: C_6  and  N_7 
REMARK    3  A    between atoms: N_7  and  C_8 
REMARK    4  A    between atoms: C_11  and  C_12 
REMARK    5  A    between atoms: C_12  and  C_13 
REMARK       I    between atoms: C_13  and  N_14 
REMARK    6  A    between atoms: N_14  and  C_15 
REMARK    7  A    between atoms: C_16  and  O_17 
REMARK    8  A    between atoms: O_17  and  C_18 
ROOT
HETATM    1  C   UNL     1      43.600 -10.162   7.344  1.00  0.00     0.174 C 
HETATM    2  S   UNL     1      45.176 -10.764   7.580  1.00  0.00    -0.062 SA
HETATM    3  C   UNL     1      44.688 -12.245   6.871  1.00  0.00     0.081 C 
HETATM    4  C   UNL     1      43.347 -12.188   6.529  1.00  0.00     0.052 C 
HETATM    5  N   UNL     1      42.753 -10.945   6.723  1.00  0.00    -0.228 NA
ENDROOT
BRANCH   4   6
HETATM    6  C   UNL     1      42.513 -13.329   6.044  1.00  0.00     0.163 C 
BRANCH   6   7
HETATM    7  C   UNL     1      42.334 -13.221   4.532  1.00  0.00     0.227 C 
HETATM    8  N   UNL     1      41.061 -13.543   4.098  1.00  0.00    -0.324 N 
HETATM    9  H   UNL     1      40.314 -13.590   4.782  1.00  0.00     0.169 HD
HETATM   10  O   UNL     1      43.267 -12.878   3.807  1.00  0.00    -0.273 OA
BRANCH   8  11
HETATM   11  C   UNL     1      40.655 -13.814   2.770  1.00  0.00     0.069 A 
HETATM   12  C   UNL     1      40.407 -15.151   2.416  1.00  0.00     0.102 A 
HETATM   13  C   UNL     1      40.115 -15.502   1.091  1.00  0.00     0.039 A 
HETATM   14  C   UNL     1      40.017 -14.510   0.118  1.00  0.00     0.003 A 
HETATM   15  C   UNL     1      40.224 -13.176   0.467  1.00  0.00     0.002 A 
HETATM   16  C   UNL     1      40.545 -12.829   1.785  1.00  0.00     0.032 A 
BRANCH  12  17
HETATM   17  O   UNL     1      40.507 -16.116   3.400  1.00  0.00    -0.309 OA
BRANCH  17  18
HETATM   18  C   UNL     1      41.704 -16.793   3.504  1.00  0.00     0.076 A 
HETATM   19  C   UNL     1      42.292 -16.821   4.769  1.00  0.00     0.037 A 
HETATM   20  C   UNL     1      43.499 -17.494   4.963  1.00  0.00     0.003 A 
HETATM   21  C   UNL     1      44.113 -18.149   3.896  1.00  0.00     0.000 A 
HETATM   22  C   UNL     1      43.514 -18.143   2.636  1.00  0.00     0.003 A 
HETATM   23  C   UNL     1      42.303 -17.476   2.440  1.00  0.00     0.037 A 
ENDBRANCH  17  18
ENDBRANCH  12  17
ENDBRANCH   8  11
ENDBRANCH   6   7
ENDBRANCH   4   6
BRANCH   1  24
HETATM   24  N   UNL     1      43.392  -8.927   7.879  1.00  0.00    -0.287 N 
HETATM   25  C   UNL     1      42.984  -8.652   9.150  1.00  0.00     0.326 C 
HETATM   26  N   UNL     1      42.364  -9.657   9.836  1.00  0.00    -0.306 N 
HETATM   27  O   UNL     1      43.134  -7.500   9.560  1.00  0.00    -0.247 OA
HETATM   28  H   UNL     1      42.060 -10.458   9.289  1.00  0.00     0.171 HD
HETATM   29  H   UNL     1      43.723  -8.134   7.353  1.00  0.00     0.172 HD
BRANCH  26  30
HETATM   30  C   UNL     1      41.852  -9.588  11.148  1.00  0.00     0.069 A 
HETATM   31  C   UNL     1      40.457  -9.617  11.319  1.00  0.00     0.095 A 
HETATM   32  C   UNL     1      39.900  -9.591  12.601  1.00  0.00     0.039 A 
HETATM   33  C   UNL     1      40.731  -9.510  13.719  1.00  0.00     0.003 A 
HETATM   34  C   UNL     1      42.114  -9.463  13.556  1.00  0.00     0.002 A 
HETATM   35  C   UNL     1      42.674  -9.500  12.275  1.00  0.00     0.032 A 
BRANCH  31  36
HETATM   36  O   UNL     1      39.674  -9.672  10.191  1.00  0.00    -0.354 OA
HETATM   37  C   UNL     1      38.955  -8.456   9.975  1.00  0.00     0.210 C 
ENDBRANCH  31  36
ENDBRANCH  26  30
ENDBRANCH   1  24
TORSDOF 8
ENDMDL
MODEL 9
REMARK VINA RESULT:      -8.7      2.319      4.210
REMARK  8 active torsions:
REMARK  status: ('A' for Active; 'I' for Inactive)
REMARK    1  A    between atoms: O_2  and  C_3 
REMARK    2  A    between atoms: C_4  and  N_5 
REMARK       I    between atoms: N_5  and  C_6 
REMARK       I    between atoms: C_6  and  N_7 
REMARK    3  A    between atoms: N_7  and  C_8 
REMARK    4  A    between atoms: C_11  and  C_12 
REMARK    5  A    between atoms: C_12  and  C_13 
REMARK       I    between atoms: C_13  and  N_14 
REMARK    6  A    between atoms: N_14  and  C_15 
REMARK    7  A    between atoms: C_16  and  O_17 
REMARK    8  A    between atoms: O_17  and  C_18 
ROOT
HETATM    1  C   UNL     1      42.862 -11.286   6.156  1.00  0.00     0.174 C 
HETATM    2  S   UNL     1      44.549 -11.066   6.237  1.00  0.00    -0.062 SA
HETATM    3  C   UNL     1      44.712 -12.698   6.730  1.00  0.00     0.081 C 
HETATM    4  C   UNL     1      43.464 -13.291   6.826  1.00  0.00     0.052 C 
HETATM    5  N   UNL     1      42.408 -12.489   6.401  1.00  0.00    -0.228 NA
ENDROOT
BRANCH   4   6
HETATM    6  C   UNL     1      43.174 -14.647   7.383  1.00  0.00     0.163 C 
BRANCH   6   7
HETATM    7  C   UNL     1      42.356 -15.447   6.373  1.00  0.00     0.227 C 
HETATM    8  N   UNL     1      42.566 -15.068   5.060  1.00  0.00    -0.324 N 
HETATM    9  H   UNL     1      43.372 -14.490   4.846  1.00  0.00     0.169 HD
HETATM   10  O   UNL     1      41.592 -16.338   6.743  1.00  0.00    -0.273 OA
BRANCH   8  11
HETATM   11  C   UNL     1      41.774 -15.405   3.937  1.00  0.00     0.069 A 
HETATM   12  C   UNL     1      42.333 -16.252   2.966  1.00  0.00     0.102 A 
HETATM   13  C   UNL     1      41.650 -16.532   1.776  1.00  0.00     0.039 A 
HETATM   14  C   UNL     1      40.376 -16.006   1.570  1.00  0.00     0.003 A 
HETATM   15  C   UNL     1      39.797 -15.194   2.544  1.00  0.00     0.002 A 
HETATM   16  C   UNL     1      40.493 -14.892   3.720  1.00  0.00     0.032 A 
BRANCH  12  17
HETATM   17  O   UNL     1      43.596 -16.764   3.196  1.00  0.00    -0.309 OA
BRANCH  17  18
HETATM   18  C   UNL     1      43.698 -18.120   3.424  1.00  0.00     0.076 A 
HETATM   19  C   UNL     1      43.977 -18.509   4.734  1.00  0.00     0.037 A 
HETATM   20  C   UNL     1      44.087 -19.864   5.053  1.00  0.00     0.003 A 
HETATM   21  C   UNL     1      43.904 -20.830   4.064  1.00  0.00     0.000 A 
HETATM   22  C   UNL     1      43.600 -20.444   2.759  1.00  0.00     0.003 A 
HETATM   23  C   UNL     1      43.484 -19.090   2.438  1.00  0.00     0.037 A 
ENDBRANCH  17  18
ENDBRANCH  12  17
ENDBRANCH   8  11
ENDBRANCH   6   7
ENDBRANCH   4   6
BRANCH   1  24
HETATM   24  N   UNL     1      42.166 -10.147   5.880  1.00  0.00    -0.287 N 
HETATM   25  C   UNL     1      41.549  -9.335   6.784  1.00  0.00     0.326 C 
HETATM   26  N   UNL     1      41.257  -9.872   8.006  1.00  0.00    -0.306 N 
HETATM   27  O   UNL     1      41.229  -8.206   6.410  1.00  0.00    -0.247 OA
HETATM   28  H   UNL     1      41.324 -10.883   8.083  1.00  0.00     0.171 HD
HETATM   29  H   UNL     1      42.248  -9.770   4.949  1.00  0.00     0.172 HD
BRANCH  26  30
HETATM   30  C   UNL     1      40.612  -9.221   9.077  1.00  0.00     0.069 A 
HETATM   31  C   UNL     1      41.346  -8.991  10.253  1.00  0.00     0.095 A 
HETATM   32  C   UNL     1      40.765  -8.315  11.330  1.00  0.00     0.039 A 
HETATM   33  C   UNL     1      39.440  -7.887  11.249  1.00  0.00     0.003 A 
HETATM   34  C   UNL     1      38.701  -8.127  10.092  1.00  0.00     0.002 A 
HETATM   35  C   UNL     1      39.283  -8.793   9.010  1.00  0.00     0.032 A 
BRANCH  31  36
HETATM   36  O   UNL     1      42.641  -9.451  10.302  1.00  0.00    -0.354 OA
HETATM   37  C   UNL     1      42.921 -10.139  11.522  1.00  0.00     0.210 C 
ENDBRANCH  31  36
ENDBRANCH  26  30
ENDBRANCH   1  24
TORSDOF 8
ENDMDL
MODEL 10
REMARK VINA RESULT:      -8.7      2.662      4.596
REMARK  8 active torsions:
REMARK  status: ('A' for Active; 'I' for Inactive)
REMARK    1  A    between atoms: O_2  and  C_3 
REMARK    2  A    between atoms: C_4  and  N_5 
REMARK       I    between atoms: N_5  and  C_6 
REMARK       I    between atoms: C_6  and  N_7 
REMARK    3  A    between atoms: N_7  and  C_8 
REMARK    4  A    between atoms: C_11  and  C_12 
REMARK    5  A    between atoms: C_12  and  C_13 
REMARK       I    between atoms: C_13  and  N_14 
REMARK    6  A    between atoms: N_14  and  C_15 
REMARK    7  A    between atoms: C_16  and  O_17 
REMARK    8  A    between atoms: O_17  and  C_18 
ROOT
HETATM    1  C   UNL     1      43.762 -11.070   7.461  1.00  0.00     0.174 C 
HETATM    2  S   UNL     1      42.729 -10.793   6.135  1.00  0.00    -0.062 SA
HETATM    3  C   UNL     1      42.695 -12.481   5.843  1.00  0.00     0.081 C 
HETATM    4  C   UNL     1      43.498 -13.137   6.761  1.00  0.00     0.052 C 
HETATM    5  N   UNL     1      44.036 -12.318   7.749  1.00  0.00    -0.228 NA
ENDROOT
BRANCH   4   6
HETATM    6  C   UNL     1      43.860 -14.586   6.735  1.00  0.00     0.163 C 
BRANCH   6   7
HETATM    7  C   UNL     1      42.818 -15.358   5.930  1.00  0.00     0.227 C 
HETATM    8  N   UNL     1      42.870 -15.112   4.570  1.00  0.00    -0.324 N 
HETATM    9  H   UNL     1      43.694 -14.656   4.192  1.00  0.00     0.169 HD
HETATM   10  O   UNL     1      42.024 -16.116   6.485  1.00  0.00    -0.273 OA
BRANCH   8  11
HETATM   11  C   UNL     1      41.887 -15.436   3.606  1.00  0.00     0.069 A 
HETATM   12  C   UNL     1      42.246 -16.312   2.567  1.00  0.00     0.102 A 
HETATM   13  C   UNL     1      41.360 -16.583   1.517  1.00  0.00     0.039 A 
HETATM   14  C   UNL     1      40.086 -16.020   1.524  1.00  0.00     0.003 A 
HETATM   15  C   UNL     1      39.707 -15.179   2.569  1.00  0.00     0.002 A 
HETATM   16  C   UNL     1      40.603 -14.885   3.603  1.00  0.00     0.032 A 
BRANCH  12  17
HETATM   17  O   UNL     1      43.514 -16.860   2.585  1.00  0.00    -0.309 OA
BRANCH  17  18
HETATM   18  C   UNL     1      43.640 -18.149   3.060  1.00  0.00     0.076 A 
HETATM   19  C   UNL     1      43.377 -19.173   2.149  1.00  0.00     0.037 A 
HETATM   20  C   UNL     1      43.491 -20.507   2.546  1.00  0.00     0.003 A 
HETATM   21  C   UNL     1      43.881 -20.817   3.848  1.00  0.00     0.000 A 
HETATM   22  C   UNL     1      44.168 -19.794   4.753  1.00  0.00     0.003 A 
HETATM   23  C   UNL     1      44.060 -18.460   4.358  1.00  0.00     0.037 A 
ENDBRANCH  17  18
ENDBRANCH  12  17
ENDBRANCH   8  11
ENDBRANCH   6   7
ENDBRANCH   4   6
BRANCH   1  24
HETATM   24  N   UNL     1      44.226  -9.933   8.051  1.00  0.00    -0.287 N 
HETATM   25  C   UNL     1      43.908  -9.476   9.295  1.00  0.00     0.326 C 
HETATM   26  N   UNL     1      42.761  -9.957   9.860  1.00  0.00    -0.306 N 
HETATM   27  O   UNL     1      44.632  -8.610   9.786  1.00  0.00    -0.247 OA
HETATM   28  H   UNL     1      42.122 -10.447   9.240  1.00  0.00     0.171 HD
HETATM   29  H   UNL     1      44.999  -9.464   7.606  1.00  0.00     0.172 HD
BRANCH  26  30
HETATM   30  C   UNL     1      42.237  -9.611  11.123  1.00  0.00     0.069 A 
HETATM   31  C   UNL     1      41.127  -8.751  11.169  1.00  0.00     0.095 A 
HETATM   32  C   UNL     1      40.546  -8.409  12.393  1.00  0.00     0.039 A 
HETATM   33  C   UNL     1      41.085  -8.904  13.581  1.00  0.00     0.003 A 
HETATM   34  C   UNL     1      42.196  -9.744  13.544  1.00  0.00     0.002 A 
HETATM   35  C   UNL     1      42.772 -10.096  12.320  1.00  0.00     0.032 A 
BRANCH  31  36
HETATM   36  O   UNL     1      40.642  -8.265   9.977  1.00  0.00    -0.354 OA
HETATM   37  C   UNL     1      40.827  -6.853   9.857  1.00  0.00     0.210 C 
ENDBRANCH  31  36
ENDBRANCH  26  30
ENDBRANCH   1  24
TORSDOF 8
ENDMDL
