MODEL 1
REMARK VINA RESULT:      -8.3      0.000      0.000
REMARK  7 active torsions:
REMARK  status: ('A' for Active; 'I' for Inactive)
REMARK    1  A    between atoms: N_3  and  C_4 
REMARK    2  A    between atoms: C_12  and  C_13 
REMARK       I    between atoms: C_13  and  N_14 
REMARK    3  A    between atoms: N_14  and  C_15 
REMARK    4  A    between atoms: C_15  and  C_16 
REMARK    5  A    between atoms: C_16  and  O_17 
REMARK    6  A    between atoms: C_16  and  C_18 
REMARK    7  A    between atoms: C_21  and  O_22 
ROOT
HETATM    1  C   UNL     1      41.911 -13.458   4.309  1.00  0.00     0.255 C 
HETATM    2  N   UNL     1      42.342 -14.618   3.705  1.00  0.00    -0.350 N 
HETATM    3  O   UNL     1      40.938 -12.826   3.913  1.00  0.00    -0.268 OA
HETATM    4  H   UNL     1      42.947 -15.219   4.248  1.00  0.00     0.163 HD
ENDROOT
BRANCH   2   5
HETATM    5  C   UNL     1      41.628 -15.253   2.593  1.00  0.00     0.114 C 
HETATM    6  C   UNL     1      40.400 -16.027   3.086  1.00  0.00     0.035 C 
BRANCH   5   7
HETATM    7  C   UNL     1      42.552 -16.121   1.687  1.00  0.00     0.173 C 
BRANCH   7   8
HETATM    8  O   UNL     1      43.686 -15.367   1.245  1.00  0.00    -0.389 OA
HETATM    9  H   UNL     1      43.462 -14.429   1.378  1.00  0.00     0.210 HD
ENDBRANCH   7   8
BRANCH   7  10
HETATM   10  C   UNL     1      43.054 -17.354   2.420  1.00  0.00    -0.028 A 
HETATM   11  C   UNL     1      43.719 -17.223   3.648  1.00  0.00     0.012 A 
HETATM   12  C   UNL     1      44.194 -18.351   4.323  1.00  0.00     0.037 A 
HETATM   13  C   UNL     1      43.992 -19.627   3.799  1.00  0.00     0.068 A 
HETATM   14  C   UNL     1      43.358 -19.770   2.566  1.00  0.00     0.037 A 
HETATM   15  C   UNL     1      42.894 -18.641   1.883  1.00  0.00     0.012 A 
BRANCH  13  16
HETATM   16  O   UNL     1      44.478 -20.657   4.557  1.00  0.00    -0.356 OA
HETATM   17  C   UNL     1      43.841 -20.834   5.819  1.00  0.00     0.210 C 
ENDBRANCH  13  16
ENDBRANCH   7  10
ENDBRANCH   5   7
ENDBRANCH   2   5
BRANCH   1  18
HETATM   18  C   UNL     1      42.625 -13.072   5.515  1.00  0.00     0.075 C 
HETATM   19  C   UNL     1      42.901 -11.820   6.059  1.00  0.00     0.051 C 
HETATM   20  C   UNL     1      42.453 -10.458   5.657  1.00  0.00     0.071 C 
HETATM   21  N   UNL     1      43.721 -12.049   7.168  1.00  0.00    -0.220 N 
HETATM   22  N   UNL     1      43.805 -13.380   7.450  1.00  0.00    -0.177 NA
HETATM   23  C   UNL     1      43.165 -13.977   6.449  1.00  0.00     0.158 C 
BRANCH  21  24
HETATM   24  C   UNL     1      44.449 -11.094   7.958  1.00  0.00     0.150 A 
HETATM   25  N   UNL     1      44.049 -10.846   9.235  1.00  0.00    -0.241 NA
HETATM   26  C   UNL     1      44.735  -9.913   9.932  1.00  0.00     0.119 A 
HETATM   27  C   UNL     1      45.811  -9.206   9.426  1.00  0.00     0.019 A 
HETATM   28  C   UNL     1      46.213  -9.470   8.122  1.00  0.00     0.005 A 
HETATM   29  C   UNL     1      45.525 -10.423   7.374  1.00  0.00     0.052 A 
ENDBRANCH  21  24
ENDBRANCH   1  18
TORSDOF 7
ENDMDL
MODEL 2
REMARK VINA RESULT:      -8.2      3.108      5.309
REMARK  7 active torsions:
REMARK  status: ('A' for Active; 'I' for Inactive)
REMARK    1  A    between atoms: N_3  and  C_4 
REMARK    2  A    between atoms: C_12  and  C_13 
REMARK       I    between atoms: C_13  and  N_14 
REMARK    3  A    between atoms: N_14  and  C_15 
REMARK    4  A    between atoms: C_15  and  C_16 
REMARK    5  A    between atoms: C_16  and  O_17 
REMARK    6  A    between atoms: C_16  and  C_18 
REMARK    7  A    between atoms: C_21  and  O_22 
ROOT
HETATM    1  C   UNL     1      44.263 -10.927   8.377  1.00  0.00     0.255 C 
HETATM    2  N   UNL     1      43.259 -11.409   7.568  1.00  0.00    -0.350 N 
HETATM    3  O   UNL     1      45.446 -11.203   8.203  1.00  0.00    -0.268 OA
HETATM    4  H   UNL     1      42.376 -10.917   7.593  1.00  0.00     0.163 HD
ENDROOT
BRANCH   2   5
HETATM    5  C   UNL     1      43.515 -12.220   6.374  1.00  0.00     0.114 C 
HETATM    6  C   UNL     1      43.770 -11.341   5.144  1.00  0.00     0.035 C 
BRANCH   5   7
HETATM    7  C   UNL     1      42.416 -13.296   6.117  1.00  0.00     0.173 C 
BRANCH   7   8
HETATM    8  O   UNL     1      41.539 -12.885   5.062  1.00  0.00    -0.389 OA
HETATM    9  H   UNL     1      41.828 -13.360   4.263  1.00  0.00     0.210 HD
ENDBRANCH   7   8
BRANCH   7  10
HETATM   10  C   UNL     1      43.026 -14.636   5.738  1.00  0.00    -0.028 A 
HETATM   11  C   UNL     1      42.670 -15.257   4.532  1.00  0.00     0.012 A 
HETATM   12  C   UNL     1      43.218 -16.494   4.182  1.00  0.00     0.037 A 
HETATM   13  C   UNL     1      44.146 -17.119   5.015  1.00  0.00     0.068 A 
HETATM   14  C   UNL     1      44.486 -16.526   6.229  1.00  0.00     0.037 A 
HETATM   15  C   UNL     1      43.929 -15.294   6.587  1.00  0.00     0.012 A 
BRANCH  13  16
HETATM   16  O   UNL     1      44.633 -18.314   4.559  1.00  0.00    -0.356 OA
HETATM   17  C   UNL     1      44.131 -18.730   3.292  1.00  0.00     0.210 C 
ENDBRANCH  13  16
ENDBRANCH   7  10
ENDBRANCH   5   7
ENDBRANCH   2   5
BRANCH   1  18
HETATM   18  C   UNL     1      43.849  -9.983   9.404  1.00  0.00     0.075 C 
HETATM   19  C   UNL     1      43.679 -10.135  10.777  1.00  0.00     0.051 C 
HETATM   20  C   UNL     1      43.983 -11.279  11.680  1.00  0.00     0.071 C 
HETATM   21  N   UNL     1      43.155  -8.925  11.241  1.00  0.00    -0.220 N 
HETATM   22  N   UNL     1      43.176  -7.974  10.264  1.00  0.00    -0.177 NA
HETATM   23  C   UNL     1      43.572  -8.622   9.173  1.00  0.00     0.158 C 
BRANCH  21  24
HETATM   24  C   UNL     1      42.613  -8.619  12.537  1.00  0.00     0.150 A 
HETATM   25  N   UNL     1      41.461  -9.224  12.934  1.00  0.00    -0.241 NA
HETATM   26  C   UNL     1      40.962  -8.882  14.142  1.00  0.00     0.119 A 
HETATM   27  C   UNL     1      41.553  -7.962  14.990  1.00  0.00     0.019 A 
HETATM   28  C   UNL     1      42.730  -7.352  14.575  1.00  0.00     0.005 A 
HETATM   29  C   UNL     1      43.270  -7.680  13.333  1.00  0.00     0.052 A 
ENDBRANCH  21  24
ENDBRANCH   1  18
TORSDOF 7
ENDMDL
MODEL 3
REMARK VINA RESULT:      -8.1      1.754      2.427
REMARK  7 active torsions:
REMARK  status: ('A' for Active; 'I' for Inactive)
REMARK    1  A    between atoms: N_3  and  C_4 
REMARK    2  A    between atoms: C_12  and  C_13 
REMARK       I    between atoms: C_13  and  N_14 
REMARK    3  A    between atoms: N_14  and  C_15 
REMARK    4  A    between atoms: C_15  and  C_16 
REMARK    5  A    between atoms: C_16  and  O_17 
REMARK    6  A    between atoms: C_16  and  C_18 
REMARK    7  A    between atoms: C_21  and  O_22 
ROOT
HETATM    1  C   UNL     1      42.388 -12.530   4.186  1.00  0.00     0.255 C 
HETATM    2  N   UNL     1      41.074 -12.891   3.989  1.00  0.00    -0.350 N 
HETATM    3  O   UNL     1      43.302 -12.939   3.477  1.00  0.00    -0.268 OA
HETATM    4  H   UNL     1      40.370 -12.302   4.412  1.00  0.00     0.163 HD
ENDROOT
BRANCH   2   5
HETATM    5  C   UNL     1      40.634 -13.722   2.865  1.00  0.00     0.114 C 
HETATM    6  C   UNL     1      39.581 -13.001   2.015  1.00  0.00     0.035 C 
BRANCH   5   7
HETATM    7  C   UNL     1      40.172 -15.147   3.298  1.00  0.00     0.173 C 
BRANCH   7   8
HETATM    8  O   UNL     1      39.248 -15.693   2.351  1.00  0.00    -0.389 OA
HETATM    9  H   UNL     1      38.451 -15.136   2.391  1.00  0.00     0.210 HD
ENDBRANCH   7   8
BRANCH   7  10
HETATM   10  C   UNL     1      41.349 -16.100   3.423  1.00  0.00    -0.028 A 
HETATM   11  C   UNL     1      41.983 -16.283   4.661  1.00  0.00     0.012 A 
HETATM   12  C   UNL     1      43.073 -17.149   4.780  1.00  0.00     0.037 A 
HETATM   13  C   UNL     1      43.533 -17.865   3.675  1.00  0.00     0.068 A 
HETATM   14  C   UNL     1      42.931 -17.672   2.433  1.00  0.00     0.037 A 
HETATM   15  C   UNL     1      41.848 -16.795   2.309  1.00  0.00     0.012 A 
BRANCH  13  16
HETATM   16  O   UNL     1      44.589 -18.700   3.916  1.00  0.00    -0.356 OA
HETATM   17  C   UNL     1      44.302 -19.816   4.754  1.00  0.00     0.210 C 
ENDBRANCH  13  16
ENDBRANCH   7  10
ENDBRANCH   5   7
ENDBRANCH   2   5
BRANCH   1  18
HETATM   18  C   UNL     1      42.624 -11.549   5.234  1.00  0.00     0.075 C 
HETATM   19  C   UNL     1      43.410 -11.600   6.381  1.00  0.00     0.051 C 
HETATM   20  C   UNL     1      44.374 -12.628   6.861  1.00  0.00     0.071 C 
HETATM   21  N   UNL     1      43.161 -10.414   7.078  1.00  0.00    -0.220 N 
HETATM   22  N   UNL     1      42.417  -9.552   6.328  1.00  0.00    -0.177 NA
HETATM   23  C   UNL     1      42.088 -10.246   5.244  1.00  0.00     0.158 C 
BRANCH  21  24
HETATM   24  C   UNL     1      43.560 -10.056   8.411  1.00  0.00     0.150 A 
HETATM   25  N   UNL     1      42.607  -9.708   9.318  1.00  0.00    -0.241 NA
HETATM   26  C   UNL     1      43.023  -9.339  10.550  1.00  0.00     0.119 A 
HETATM   27  C   UNL     1      44.351  -9.300  10.936  1.00  0.00     0.019 A 
HETATM   28  C   UNL     1      45.316  -9.659  10.004  1.00  0.00     0.005 A 
HETATM   29  C   UNL     1      44.920 -10.041   8.723  1.00  0.00     0.052 A 
ENDBRANCH  21  24
ENDBRANCH   1  18
TORSDOF 7
ENDMDL
MODEL 4
REMARK VINA RESULT:      -8.0      1.879      2.932
REMARK  7 active torsions:
REMARK  status: ('A' for Active; 'I' for Inactive)
REMARK    1  A    between atoms: N_3  and  C_4 
REMARK    2  A    between atoms: C_12  and  C_13 
REMARK       I    between atoms: C_13  and  N_14 
REMARK    3  A    between atoms: N_14  and  C_15 
REMARK    4  A    between atoms: C_15  and  C_16 
REMARK    5  A    between atoms: C_16  and  O_17 
REMARK    6  A    between atoms: C_16  and  C_18 
REMARK    7  A    between atoms: C_21  and  O_22 
ROOT
HETATM    1  C   UNL     1      43.924 -11.851   4.940  1.00  0.00     0.255 C 
HETATM    2  N   UNL     1      42.918 -12.773   4.756  1.00  0.00    -0.350 N 
HETATM    3  O   UNL     1      44.572 -11.382   4.011  1.00  0.00    -0.268 OA
HETATM    4  H   UNL     1      42.256 -12.884   5.513  1.00  0.00     0.163 HD
ENDROOT
BRANCH   2   5
HETATM    5  C   UNL     1      42.468 -13.211   3.432  1.00  0.00     0.114 C 
HETATM    6  C   UNL     1      41.917 -12.039   2.612  1.00  0.00     0.035 C 
BRANCH   5   7
HETATM    7  C   UNL     1      41.478 -14.414   3.487  1.00  0.00     0.173 C 
BRANCH   7   8
HETATM    8  O   UNL     1      40.539 -14.350   2.408  1.00  0.00    -0.389 OA
HETATM    9  H   UNL     1      40.432 -13.407   2.192  1.00  0.00     0.210 HD
ENDBRANCH   7   8
BRANCH   7  10
HETATM   10  C   UNL     1      42.210 -15.743   3.406  1.00  0.00    -0.028 A 
HETATM   11  C   UNL     1      42.259 -16.450   2.195  1.00  0.00     0.012 A 
HETATM   12  C   UNL     1      42.921 -17.678   2.116  1.00  0.00     0.037 A 
HETATM   13  C   UNL     1      43.565 -18.209   3.233  1.00  0.00     0.068 A 
HETATM   14  C   UNL     1      43.501 -17.531   4.449  1.00  0.00     0.037 A 
HETATM   15  C   UNL     1      42.827 -16.308   4.534  1.00  0.00     0.012 A 
BRANCH  13  16
HETATM   16  O   UNL     1      44.200 -19.404   3.032  1.00  0.00    -0.356 OA
HETATM   17  C   UNL     1      43.595 -20.257   2.064  1.00  0.00     0.210 C 
ENDBRANCH  13  16
ENDBRANCH   7  10
ENDBRANCH   5   7
ENDBRANCH   2   5
BRANCH   1  18
HETATM   18  C   UNL     1      44.112 -11.386   6.306  1.00  0.00     0.075 C 
HETATM   19  C   UNL     1      43.266 -10.692   7.166  1.00  0.00     0.051 C 
HETATM   20  C   UNL     1      41.836 -10.299   7.026  1.00  0.00     0.071 C 
HETATM   21  N   UNL     1      44.018 -10.411   8.310  1.00  0.00    -0.220 N 
HETATM   22  N   UNL     1      45.216 -11.061   8.282  1.00  0.00    -0.177 NA
HETATM   23  C   UNL     1      45.267 -11.620   7.077  1.00  0.00     0.158 C 
BRANCH  21  24
HETATM   24  C   UNL     1      43.688  -9.549   9.412  1.00  0.00     0.150 A 
HETATM   25  N   UNL     1      43.414  -8.238   9.171  1.00  0.00    -0.241 NA
HETATM   26  C   UNL     1      43.146  -7.451  10.237  1.00  0.00     0.119 A 
HETATM   27  C   UNL     1      43.133  -7.901  11.545  1.00  0.00     0.019 A 
HETATM   28  C   UNL     1      43.412  -9.241  11.780  1.00  0.00     0.005 A 
HETATM   29  C   UNL     1      43.695 -10.079  10.703  1.00  0.00     0.052 A 
ENDBRANCH  21  24
ENDBRANCH   1  18
TORSDOF 7
ENDMDL
MODEL 5
REMARK VINA RESULT:      -8.0      5.592      9.276
REMARK  7 active torsions:
REMARK  status: ('A' for Active; 'I' for Inactive)
REMARK    1  A    between atoms: N_3  and  C_4 
REMARK    2  A    between atoms: C_12  and  C_13 
REMARK       I    between atoms: C_13  and  N_14 
REMARK    3  A    between atoms: N_14  and  C_15 
REMARK    4  A    between atoms: C_15  and  C_16 
REMARK    5  A    between atoms: C_16  and  O_17 
REMARK    6  A    between atoms: C_16  and  C_18 
REMARK    7  A    between atoms: C_21  and  O_22 
ROOT
HETATM    1  C   UNL     1      40.269 -13.848   0.642  1.00  0.00     0.255 C 
HETATM    2  N   UNL     1      40.418 -14.265  -0.661  1.00  0.00    -0.350 N 
HETATM    3  O   UNL     1      39.741 -12.782   0.942  1.00  0.00    -0.268 OA
HETATM    4  H   UNL     1      40.588 -15.251  -0.809  1.00  0.00     0.163 HD
ENDROOT
BRANCH   2   5
HETATM    5  C   UNL     1      39.881 -13.521  -1.805  1.00  0.00     0.114 C 
HETATM    6  C   UNL     1      39.262 -14.464  -2.844  1.00  0.00     0.035 C 
BRANCH   5   7
HETATM    7  C   UNL     1      40.913 -12.538  -2.436  1.00  0.00     0.173 C 
BRANCH   7   8
HETATM    8  O   UNL     1      41.642 -13.173  -3.492  1.00  0.00    -0.389 OA
HETATM    9  H   UNL     1      41.043 -13.833  -3.882  1.00  0.00     0.210 HD
ENDBRANCH   7   8
BRANCH   7  10
HETATM   10  C   UNL     1      40.231 -11.302  -3.001  1.00  0.00    -0.028 A 
HETATM   11  C   UNL     1      40.985 -10.320  -3.661  1.00  0.00     0.012 A 
HETATM   12  C   UNL     1      40.367  -9.176  -4.174  1.00  0.00     0.037 A 
HETATM   13  C   UNL     1      38.987  -9.004  -4.058  1.00  0.00     0.068 A 
HETATM   14  C   UNL     1      38.231  -9.959  -3.381  1.00  0.00     0.037 A 
HETATM   15  C   UNL     1      38.850 -11.098  -2.855  1.00  0.00     0.012 A 
BRANCH  13  16
HETATM   16  O   UNL     1      38.489  -7.859  -4.618  1.00  0.00    -0.356 OA
HETATM   17  C   UNL     1      39.466  -6.889  -4.983  1.00  0.00     0.210 C 
ENDBRANCH  13  16
ENDBRANCH   7  10
ENDBRANCH   5   7
ENDBRANCH   2   5
BRANCH   1  18
HETATM   18  C   UNL     1      40.691 -14.796   1.662  1.00  0.00     0.075 C 
HETATM   19  C   UNL     1      41.953 -15.267   2.012  1.00  0.00     0.051 C 
HETATM   20  C   UNL     1      43.310 -14.868   1.548  1.00  0.00     0.071 C 
HETATM   21  N   UNL     1      41.746 -16.251   2.984  1.00  0.00    -0.220 N 
HETATM   22  N   UNL     1      40.444 -16.273   3.389  1.00  0.00    -0.177 NA
HETATM   23  C   UNL     1      39.825 -15.418   2.582  1.00  0.00     0.158 C 
BRANCH  21  24
HETATM   24  C   UNL     1      42.691 -17.185   3.532  1.00  0.00     0.150 A 
HETATM   25  N   UNL     1      43.127 -17.016   4.809  1.00  0.00    -0.241 NA
HETATM   26  C   UNL     1      44.046 -17.891   5.275  1.00  0.00     0.119 A 
HETATM   27  C   UNL     1      44.558 -18.941   4.533  1.00  0.00     0.019 A 
HETATM   28  C   UNL     1      44.104 -19.106   3.231  1.00  0.00     0.005 A 
HETATM   29  C   UNL     1      43.160 -18.218   2.718  1.00  0.00     0.052 A 
ENDBRANCH  21  24
ENDBRANCH   1  18
TORSDOF 7
ENDMDL
MODEL 6
REMARK VINA RESULT:      -7.9      3.996      9.919
REMARK  7 active torsions:
REMARK  status: ('A' for Active; 'I' for Inactive)
REMARK    1  A    between atoms: N_3  and  C_4 
REMARK    2  A    between atoms: C_12  and  C_13 
REMARK       I    between atoms: C_13  and  N_14 
REMARK    3  A    between atoms: N_14  and  C_15 
REMARK    4  A    between atoms: C_15  and  C_16 
REMARK    5  A    between atoms: C_16  and  O_17 
REMARK    6  A    between atoms: C_16  and  C_18 
REMARK    7  A    between atoms: C_21  and  O_22 
ROOT
HETATM    1  C   UNL     1      44.094 -11.606   7.556  1.00  0.00     0.255 C 
HETATM    2  N   UNL     1      43.100 -10.800   8.063  1.00  0.00    -0.350 N 
HETATM    3  O   UNL     1      45.267 -11.511   7.902  1.00  0.00    -0.268 OA
HETATM    4  H   UNL     1      42.148 -11.125   7.954  1.00  0.00     0.163 HD
ENDROOT
BRANCH   2   5
HETATM    5  C   UNL     1      43.332  -9.818   9.125  1.00  0.00     0.114 C 
HETATM    6  C   UNL     1      44.328  -8.740   8.683  1.00  0.00     0.035 C 
BRANCH   5   7
HETATM    7  C   UNL     1      43.725 -10.468  10.487  1.00  0.00     0.173 C 
BRANCH   7   8
HETATM    8  O   UNL     1      45.148 -10.513  10.637  1.00  0.00    -0.389 OA
HETATM    9  H   UNL     1      45.364 -11.411  10.942  1.00  0.00     0.210 HD
ENDBRANCH   7   8
BRANCH   7  10
HETATM   10  C   UNL     1      43.144  -9.697  11.661  1.00  0.00    -0.028 A 
HETATM   11  C   UNL     1      43.783  -8.540  12.131  1.00  0.00     0.012 A 
HETATM   12  C   UNL     1      43.261  -7.832  13.218  1.00  0.00     0.037 A 
HETATM   13  C   UNL     1      42.083  -8.252  13.836  1.00  0.00     0.068 A 
HETATM   14  C   UNL     1      41.454  -9.415  13.397  1.00  0.00     0.037 A 
HETATM   15  C   UNL     1      41.982 -10.132  12.318  1.00  0.00     0.012 A 
BRANCH  13  16
HETATM   16  O   UNL     1      41.654  -7.469  14.873  1.00  0.00    -0.356 OA
HETATM   17  C   UNL     1      40.300  -7.033  14.783  1.00  0.00     0.210 C 
ENDBRANCH  13  16
ENDBRANCH   7  10
ENDBRANCH   5   7
ENDBRANCH   2   5
BRANCH   1  18
HETATM   18  C   UNL     1      43.657 -12.654   6.647  1.00  0.00     0.075 C 
HETATM   19  C   UNL     1      43.467 -12.656   5.268  1.00  0.00     0.051 C 
HETATM   20  C   UNL     1      43.768 -11.623   4.238  1.00  0.00     0.071 C 
HETATM   21  N   UNL     1      42.925 -13.904   4.950  1.00  0.00    -0.220 N 
HETATM   22  N   UNL     1      42.951 -14.740   6.027  1.00  0.00    -0.177 NA
HETATM   23  C   UNL     1      43.370 -13.978   7.033  1.00  0.00     0.158 C 
BRANCH  21  24
HETATM   24  C   UNL     1      42.361 -14.347   3.704  1.00  0.00     0.150 A 
HETATM   25  N   UNL     1      41.067 -14.042   3.415  1.00  0.00    -0.241 NA
HETATM   26  C   UNL     1      40.561 -14.510   2.253  1.00  0.00     0.119 A 
HETATM   27  C   UNL     1      41.280 -15.271   1.348  1.00  0.00     0.019 A 
HETATM   28  C   UNL     1      42.601 -15.574   1.652  1.00  0.00     0.005 A 
HETATM   29  C   UNL     1      43.152 -15.111   2.845  1.00  0.00     0.052 A 
ENDBRANCH  21  24
ENDBRANCH   1  18
TORSDOF 7
ENDMDL
MODEL 7
REMARK VINA RESULT:      -7.9      5.102      8.056
REMARK  7 active torsions:
REMARK  status: ('A' for Active; 'I' for Inactive)
REMARK    1  A    between atoms: N_3  and  C_4 
REMARK    2  A    between atoms: C_12  and  C_13 
REMARK       I    between atoms: C_13  and  N_14 
REMARK    3  A    between atoms: N_14  and  C_15 
REMARK    4  A    between atoms: C_15  and  C_16 
REMARK    5  A    between atoms: C_16  and  O_17 
REMARK    6  A    between atoms: C_16  and  C_18 
REMARK    7  A    between atoms: C_21  and  O_22 
ROOT
HETATM    1  C   UNL     1      40.129 -14.681   0.712  1.00  0.00     0.255 C 
HETATM    2  N   UNL     1      40.881 -14.022   1.658  1.00  0.00    -0.350 N 
HETATM    3  O   UNL     1      39.711 -15.823   0.872  1.00  0.00    -0.268 OA
HETATM    4  H   UNL     1      40.934 -13.015   1.581  1.00  0.00     0.163 HD
ENDROOT
BRANCH   2   5
HETATM    5  C   UNL     1      41.176 -14.586   2.979  1.00  0.00     0.114 C 
HETATM    6  C   UNL     1      40.475 -13.799   4.093  1.00  0.00     0.035 C 
BRANCH   5   7
HETATM    7  C   UNL     1      42.702 -14.760   3.245  1.00  0.00     0.173 C 
BRANCH   7   8
HETATM    8  O   UNL     1      43.086 -14.100   4.455  1.00  0.00    -0.389 OA
HETATM    9  H   UNL     1      43.171 -13.155   4.239  1.00  0.00     0.210 HD
ENDBRANCH   7   8
BRANCH   7  10
HETATM   10  C   UNL     1      43.085 -16.226   3.357  1.00  0.00    -0.028 A 
HETATM   11  C   UNL     1      43.691 -16.710   4.526  1.00  0.00     0.012 A 
HETATM   12  C   UNL     1      44.056 -18.055   4.633  1.00  0.00     0.037 A 
HETATM   13  C   UNL     1      43.802 -18.943   3.587  1.00  0.00     0.068 A 
HETATM   14  C   UNL     1      43.226 -18.470   2.410  1.00  0.00     0.037 A 
HETATM   15  C   UNL     1      42.872 -17.121   2.297  1.00  0.00     0.012 A 
BRANCH  13  16
HETATM   16  O   UNL     1      44.180 -20.238   3.813  1.00  0.00    -0.356 OA
HETATM   17  C   UNL     1      44.121 -20.660   5.173  1.00  0.00     0.210 C 
ENDBRANCH  13  16
ENDBRANCH   7  10
ENDBRANCH   5   7
ENDBRANCH   2   5
BRANCH   1  18
HETATM   18  C   UNL     1      39.771 -13.903  -0.464  1.00  0.00     0.075 C 
HETATM   19  C   UNL     1      39.146 -12.665  -0.593  1.00  0.00     0.051 C 
HETATM   20  C   UNL     1      38.746 -11.660   0.431  1.00  0.00     0.071 C 
HETATM   21  N   UNL     1      38.954 -12.466  -1.963  1.00  0.00    -0.220 N 
HETATM   22  N   UNL     1      39.600 -13.420  -2.693  1.00  0.00    -0.177 NA
HETATM   23  C   UNL     1      40.063 -14.278  -1.790  1.00  0.00     0.158 C 
BRANCH  21  24
HETATM   24  C   UNL     1      38.181 -11.449  -2.623  1.00  0.00     0.150 A 
HETATM   25  N   UNL     1      36.824 -11.541  -2.619  1.00  0.00    -0.241 NA
HETATM   26  C   UNL     1      36.133 -10.588  -3.283  1.00  0.00     0.119 A 
HETATM   27  C   UNL     1      36.724  -9.534  -3.957  1.00  0.00     0.019 A 
HETATM   28  C   UNL     1      38.111  -9.449  -3.952  1.00  0.00     0.005 A 
HETATM   29  C   UNL     1      38.853 -10.417  -3.280  1.00  0.00     0.052 A 
ENDBRANCH  21  24
ENDBRANCH   1  18
TORSDOF 7
ENDMDL
MODEL 8
REMARK VINA RESULT:      -7.8      4.168      7.189
REMARK  7 active torsions:
REMARK  status: ('A' for Active; 'I' for Inactive)
REMARK    1  A    between atoms: N_3  and  C_4 
REMARK    2  A    between atoms: C_12  and  C_13 
REMARK       I    between atoms: C_13  and  N_14 
REMARK    3  A    between atoms: N_14  and  C_15 
REMARK    4  A    between atoms: C_15  and  C_16 
REMARK    5  A    between atoms: C_16  and  O_17 
REMARK    6  A    between atoms: C_16  and  C_18 
REMARK    7  A    between atoms: C_21  and  O_22 
ROOT
HETATM    1  C   UNL     1      40.261 -14.518   2.879  1.00  0.00     0.255 C 
HETATM    2  N   UNL     1      41.029 -14.043   3.919  1.00  0.00    -0.350 N 
HETATM    3  O   UNL     1      39.996 -15.707   2.739  1.00  0.00    -0.268 OA
HETATM    4  H   UNL     1      40.959 -13.056   4.126  1.00  0.00     0.163 HD
ENDROOT
BRANCH   2   5
HETATM    5  C   UNL     1      41.524 -14.898   5.002  1.00  0.00     0.114 C 
HETATM    6  C   UNL     1      41.100 -14.363   6.375  1.00  0.00     0.035 C 
BRANCH   5   7
HETATM    7  C   UNL     1      43.057 -15.168   4.918  1.00  0.00     0.173 C 
BRANCH   7   8
HETATM    8  O   UNL     1      43.679 -14.975   6.193  1.00  0.00    -0.389 OA
HETATM    9  H   UNL     1      43.177 -15.515   6.829  1.00  0.00     0.210 HD
ENDBRANCH   7   8
BRANCH   7  10
HETATM   10  C   UNL     1      43.349 -16.586   4.454  1.00  0.00    -0.028 A 
HETATM   11  C   UNL     1      43.121 -16.952   3.119  1.00  0.00     0.012 A 
HETATM   12  C   UNL     1      43.376 -18.257   2.688  1.00  0.00     0.037 A 
HETATM   13  C   UNL     1      43.884 -19.209   3.572  1.00  0.00     0.068 A 
HETATM   14  C   UNL     1      44.088 -18.866   4.907  1.00  0.00     0.037 A 
HETATM   15  C   UNL     1      43.821 -17.564   5.344  1.00  0.00     0.012 A 
BRANCH  13  16
HETATM   16  O   UNL     1      44.118 -20.445   3.033  1.00  0.00    -0.356 OA
HETATM   17  C   UNL     1      43.690 -20.609   1.684  1.00  0.00     0.210 C 
ENDBRANCH  13  16
ENDBRANCH   7  10
ENDBRANCH   5   7
ENDBRANCH   2   5
BRANCH   1  18
HETATM   18  C   UNL     1      39.695 -13.507   1.999  1.00  0.00     0.075 C 
HETATM   19  C   UNL     1      39.612 -13.439   0.612  1.00  0.00     0.051 C 
HETATM   20  C   UNL     1      39.962 -14.434  -0.440  1.00  0.00     0.071 C 
HETATM   21  N   UNL     1      39.071 -12.185   0.314  1.00  0.00    -0.220 N 
HETATM   22  N   UNL     1      38.637 -11.557   1.444  1.00  0.00    -0.177 NA
HETATM   23  C   UNL     1      39.032 -12.345   2.439  1.00  0.00     0.158 C 
BRANCH  21  24
HETATM   24  C   UNL     1      38.963 -11.533  -0.962  1.00  0.00     0.150 A 
HETATM   25  N   UNL     1      40.052 -10.905  -1.482  1.00  0.00    -0.241 NA
HETATM   26  C   UNL     1      39.900 -10.270  -2.665  1.00  0.00     0.119 A 
HETATM   27  C   UNL     1      38.711 -10.228  -3.372  1.00  0.00     0.019 A 
HETATM   28  C   UNL     1      37.606 -10.875  -2.834  1.00  0.00     0.005 A 
HETATM   29  C   UNL     1      37.728 -11.535  -1.613  1.00  0.00     0.052 A 
ENDBRANCH  21  24
ENDBRANCH   1  18
TORSDOF 7
ENDMDL
MODEL 9
REMARK VINA RESULT:      -7.8      2.455      3.503
REMARK  7 active torsions:
REMARK  status: ('A' for Active; 'I' for Inactive)
REMARK    1  A    between atoms: N_3  and  C_4 
REMARK    2  A    between atoms: C_12  and  C_13 
REMARK       I    between atoms: C_13  and  N_14 
REMARK    3  A    between atoms: N_14  and  C_15 
REMARK    4  A    between atoms: C_15  and  C_16 
REMARK    5  A    between atoms: C_16  and  O_17 
REMARK    6  A    between atoms: C_16  and  C_18 
REMARK    7  A    between atoms: C_21  and  O_22 
ROOT
HETATM    1  C   UNL     1      42.664 -12.827   5.717  1.00  0.00     0.255 C 
HETATM    2  N   UNL     1      42.187 -13.828   6.532  1.00  0.00    -0.350 N 
HETATM    3  O   UNL     1      43.130 -13.043   4.603  1.00  0.00    -0.268 OA
HETATM    4  H   UNL     1      41.569 -13.551   7.284  1.00  0.00     0.163 HD
ENDROOT
BRANCH   2   5
HETATM    5  C   UNL     1      42.107 -15.230   6.113  1.00  0.00     0.114 C 
HETATM    6  C   UNL     1      40.760 -15.854   6.498  1.00  0.00     0.035 C 
BRANCH   5   7
HETATM    7  C   UNL     1      43.316 -16.086   6.597  1.00  0.00     0.173 C 
BRANCH   7   8
HETATM    8  O   UNL     1      43.124 -16.522   7.947  1.00  0.00    -0.389 OA
HETATM    9  H   UNL     1      42.410 -15.971   8.315  1.00  0.00     0.210 HD
ENDBRANCH   7   8
BRANCH   7  10
HETATM   10  C   UNL     1      43.517 -17.313   5.722  1.00  0.00    -0.028 A 
HETATM   11  C   UNL     1      43.604 -17.180   4.329  1.00  0.00     0.012 A 
HETATM   12  C   UNL     1      43.778 -18.304   3.517  1.00  0.00     0.037 A 
HETATM   13  C   UNL     1      43.892 -19.575   4.082  1.00  0.00     0.068 A 
HETATM   14  C   UNL     1      43.779 -19.724   5.463  1.00  0.00     0.037 A 
HETATM   15  C   UNL     1      43.592 -18.601   6.276  1.00  0.00     0.012 A 
BRANCH  13  16
HETATM   16  O   UNL     1      44.083 -20.597   3.193  1.00  0.00    -0.356 OA
HETATM   17  C   UNL     1      43.548 -20.377   1.891  1.00  0.00     0.210 C 
ENDBRANCH  13  16
ENDBRANCH   7  10
ENDBRANCH   5   7
ENDBRANCH   2   5
BRANCH   1  18
HETATM   18  C   UNL     1      42.496 -11.471   6.216  1.00  0.00     0.075 C 
HETATM   19  C   UNL     1      43.106 -10.797   7.270  1.00  0.00     0.051 C 
HETATM   20  C   UNL     1      44.230 -11.192   8.164  1.00  0.00     0.071 C 
HETATM   21  N   UNL     1      42.469  -9.556   7.360  1.00  0.00    -0.220 N 
HETATM   22  N   UNL     1      41.636  -9.354   6.300  1.00  0.00    -0.177 NA
HETATM   23  C   UNL     1      41.646 -10.507   5.640  1.00  0.00     0.158 C 
BRANCH  21  24
HETATM   24  C   UNL     1      42.578  -8.564   8.395  1.00  0.00     0.150 A 
HETATM   25  N   UNL     1      43.345  -7.461   8.179  1.00  0.00    -0.241 NA
HETATM   26  C   UNL     1      43.454  -6.570   9.190  1.00  0.00     0.119 A 
HETATM   27  C   UNL     1      42.834  -6.716  10.418  1.00  0.00     0.019 A 
HETATM   28  C   UNL     1      42.051  -7.845  10.626  1.00  0.00     0.005 A 
HETATM   29  C   UNL     1      41.921  -8.784   9.606  1.00  0.00     0.052 A 
ENDBRANCH  21  24
ENDBRANCH   1  18
TORSDOF 7
ENDMDL
MODEL 10
REMARK VINA RESULT:      -7.8      3.497      9.846
REMARK  7 active torsions:
REMARK  status: ('A' for Active; 'I' for Inactive)
REMARK    1  A    between atoms: N_3  and  C_4 
REMARK    2  A    between atoms: C_12  and  C_13 
REMARK       I    between atoms: C_13  and  N_14 
REMARK    3  A    between atoms: N_14  and  C_15 
REMARK    4  A    between atoms: C_15  and  C_16 
REMARK    5  A    between atoms: C_16  and  O_17 
REMARK    6  A    between atoms: C_16  and  C_18 
REMARK    7  A    between atoms: C_21  and  O_22 
ROOT
HETATM    1  C   UNL     1      43.256 -10.727   6.399  1.00  0.00     0.255 C 
HETATM    2  N   UNL     1      44.445 -10.764   7.093  1.00  0.00    -0.350 N 
HETATM    3  O   UNL     1      42.370  -9.915   6.642  1.00  0.00    -0.268 OA
HETATM    4  H   UNL     1      45.216 -11.250   6.654  1.00  0.00     0.163 HD
ENDROOT
BRANCH   2   5
HETATM    5  C   UNL     1      44.800  -9.783   8.122  1.00  0.00     0.114 C 
HETATM    6  C   UNL     1      46.281  -9.394   8.038  1.00  0.00     0.035 C 
BRANCH   5   7
HETATM    7  C   UNL     1      44.382 -10.223   9.558  1.00  0.00     0.173 C 
BRANCH   7   8
HETATM    8  O   UNL     1      45.516 -10.689  10.298  1.00  0.00    -0.389 OA
HETATM    9  H   UNL     1      46.303 -10.437   9.784  1.00  0.00     0.210 HD
ENDBRANCH   7   8
BRANCH   7  10
HETATM   10  C   UNL     1      43.747  -9.077  10.329  1.00  0.00    -0.028 A 
HETATM   11  C   UNL     1      43.614  -9.152  11.724  1.00  0.00     0.012 A 
HETATM   12  C   UNL     1      43.020  -8.108  12.438  1.00  0.00     0.037 A 
HETATM   13  C   UNL     1      42.572  -6.964  11.778  1.00  0.00     0.068 A 
HETATM   14  C   UNL     1      42.672  -6.888  10.390  1.00  0.00     0.037 A 
HETATM   15  C   UNL     1      43.254  -7.938   9.672  1.00  0.00     0.012 A 
BRANCH  13  16
HETATM   16  O   UNL     1      42.031  -5.998  12.582  1.00  0.00    -0.356 OA
HETATM   17  C   UNL     1      42.238  -6.184  13.979  1.00  0.00     0.210 C 
ENDBRANCH  13  16
ENDBRANCH   7  10
ENDBRANCH   5   7
ENDBRANCH   2   5
BRANCH   1  18
HETATM   18  C   UNL     1      43.147 -11.654   5.283  1.00  0.00     0.075 C 
HETATM   19  C   UNL     1      42.444 -12.848   5.146  1.00  0.00     0.051 C 
HETATM   20  C   UNL     1      41.466 -13.517   6.047  1.00  0.00     0.071 C 
HETATM   21  N   UNL     1      42.801 -13.369   3.899  1.00  0.00    -0.220 N 
HETATM   22  N   UNL     1      43.533 -12.469   3.182  1.00  0.00    -0.177 NA
HETATM   23  C   UNL     1      43.747 -11.463   4.023  1.00  0.00     0.158 C 
BRANCH  21  24
HETATM   24  C   UNL     1      42.519 -14.670   3.355  1.00  0.00     0.150 A 
HETATM   25  N   UNL     1      41.410 -14.841   2.586  1.00  0.00    -0.241 NA
HETATM   26  C   UNL     1      41.157 -16.087   2.126  1.00  0.00     0.119 A 
HETATM   27  C   UNL     1      41.958 -17.185   2.389  1.00  0.00     0.019 A 
HETATM   28  C   UNL     1      43.089 -16.997   3.173  1.00  0.00     0.005 A 
HETATM   29  C   UNL     1      43.376 -15.726   3.666  1.00  0.00     0.052 A 
ENDBRANCH  21  24
ENDBRANCH   1  18
TORSDOF 7
ENDMDL
