MODEL 1
REMARK VINA RESULT:      -8.2      0.000      0.000
REMARK  7 active torsions:
REMARK  status: ('A' for Active; 'I' for Inactive)
REMARK    1  A    between atoms: C_2  and  C_3 
REMARK    2  A    between atoms: C_3  and  N_4 
REMARK    3  A    between atoms: C_7  and  C_8 
REMARK    4  A    between atoms: C_8  and  N_9 
REMARK       I    between atoms: N_9  and  C_10 
REMARK       I    between atoms: C_10  and  N_11 
REMARK    5  A    between atoms: N_11  and  C_12 
REMARK    6  A    between atoms: C_16  and  N_17 
REMARK       I    between atoms: N_17  and  C_18 
REMARK    7  A    between atoms: C_18  and  C_19 
ROOT
HETATM    1  C   UNL     1      42.778 -12.669   5.650  1.00  0.00     0.036 A 
HETATM    2  C   UNL     1      43.046 -12.843   4.293  1.00  0.00     0.038 A 
HETATM    3  C   UNL     1      43.076 -14.130   3.716  1.00  0.00    -0.033 A 
HETATM    4  C   UNL     1      43.348 -14.245   2.240  1.00  0.00     0.050 C 
HETATM    5  C   UNL     1      42.877 -15.262   4.533  1.00  0.00     0.041 A 
HETATM    6  C   UNL     1      42.571 -15.070   5.885  1.00  0.00     0.032 A 
HETATM    7  C   UNL     1      42.503 -13.787   6.433  1.00  0.00     0.032 A 
ENDROOT
BRANCH   1   8
HETATM    8  N   UNL     1      42.753 -11.412   6.284  1.00  0.00    -0.309 N 
HETATM    9  C   UNL     1      43.540 -11.020   7.340  1.00  0.00     0.320 C 
HETATM   10  N   UNL     1      43.235  -9.728   7.723  1.00  0.00    -0.342 N 
HETATM   11  O   UNL     1      44.334 -11.707   7.970  1.00  0.00    -0.247 OA
HETATM   12  H   UNL     1      43.041  -9.117   6.936  1.00  0.00     0.164 HD
HETATM   13  H   UNL     1      41.934 -10.847   6.118  1.00  0.00     0.170 HD
BRANCH  10  14
HETATM   14  C   UNL     1      43.906  -9.116   8.852  1.00  0.00     0.130 C 
BRANCH  14  15
HETATM   15  C   UNL     1      43.094  -9.125  10.148  1.00  0.00     0.031 C 
HETATM   16  C   UNL     1      43.273 -10.345  11.038  1.00  0.00     0.241 C 
HETATM   17  N   UNL     1      42.097 -10.254  12.014  1.00  0.00    -0.071 N 
HETATM   18  H   UNL     1      41.712 -11.206  12.075  1.00  0.00     0.279 HD
HETATM   19  C   UNL     1      41.058  -9.356  11.363  1.00  0.00     0.235 C 
HETATM   20  C   UNL     1      41.582  -9.096   9.961  1.00  0.00     0.035 C 
BRANCH  17  21
HETATM   21  C   UNL     1      42.513  -9.836  13.401  1.00  0.00     0.234 C 
BRANCH  21  22
HETATM   22  C   UNL     1      42.028  -8.430  13.746  1.00  0.00     0.023 C 
HETATM   23  C   UNL     1      43.145  -7.399  13.822  1.00  0.00     0.007 C 
ENDBRANCH  21  22
ENDBRANCH  17  21
ENDBRANCH  14  15
ENDBRANCH  10  14
ENDBRANCH   1   8
BRANCH   5  24
HETATM   24  N   UNL     1      42.989 -16.548   3.966  1.00  0.00    -0.321 N 
HETATM   25  C   UNL     1      43.858 -17.568   4.318  1.00  0.00     0.279 C 
HETATM   26  O   UNL     1      44.702 -17.508   5.205  1.00  0.00    -0.265 OA
HETATM   27  H   UNL     1      42.428 -16.752   3.146  1.00  0.00     0.169 HD
BRANCH  25  28
HETATM   28  C   UNL     1      43.703 -18.745   3.482  1.00  0.00     0.142 A 
HETATM   29  O   UNL     1      44.096 -19.970   3.961  1.00  0.00    -0.317 OA
HETATM   30  C   UNL     1      43.847 -20.879   2.982  1.00  0.00     0.143 A 
HETATM   31  C   UNL     1      43.287 -20.268   1.885  1.00  0.00     0.027 A 
HETATM   32  C   UNL     1      43.196 -18.892   2.205  1.00  0.00     0.045 A 
ENDBRANCH  25  28
ENDBRANCH   5  24
TORSDOF 7
ENDMDL
MODEL 2
REMARK VINA RESULT:      -7.4      1.919      2.250
REMARK  7 active torsions:
REMARK  status: ('A' for Active; 'I' for Inactive)
REMARK    1  A    between atoms: C_2  and  C_3 
REMARK    2  A    between atoms: C_3  and  N_4 
REMARK    3  A    between atoms: C_7  and  C_8 
REMARK    4  A    between atoms: C_8  and  N_9 
REMARK       I    between atoms: N_9  and  C_10 
REMARK       I    between atoms: C_10  and  N_11 
REMARK    5  A    between atoms: N_11  and  C_12 
REMARK    6  A    between atoms: C_16  and  N_17 
REMARK       I    between atoms: N_17  and  C_18 
REMARK    7  A    between atoms: C_18  and  C_19 
ROOT
HETATM    1  C   UNL     1      42.052 -12.782   5.643  1.00  0.00     0.036 A 
HETATM    2  C   UNL     1      42.557 -12.941   4.353  1.00  0.00     0.038 A 
HETATM    3  C   UNL     1      42.724 -14.223   3.788  1.00  0.00    -0.033 A 
HETATM    4  C   UNL     1      43.251 -14.321   2.381  1.00  0.00     0.050 C 
HETATM    5  C   UNL     1      42.419 -15.365   4.558  1.00  0.00     0.041 A 
HETATM    6  C   UNL     1      41.878 -15.190   5.835  1.00  0.00     0.032 A 
HETATM    7  C   UNL     1      41.679 -13.913   6.365  1.00  0.00     0.032 A 
ENDROOT
BRANCH   1   8
HETATM    8  N   UNL     1      41.881 -11.531   6.264  1.00  0.00    -0.309 N 
HETATM    9  C   UNL     1      40.684 -10.941   6.586  1.00  0.00     0.320 C 
HETATM   10  N   UNL     1      40.889  -9.704   7.167  1.00  0.00    -0.342 N 
HETATM   11  O   UNL     1      39.560 -11.348   6.320  1.00  0.00    -0.247 OA
HETATM   12  H   UNL     1      41.685  -9.689   7.795  1.00  0.00     0.164 HD
HETATM   13  H   UNL     1      42.680 -10.914   6.247  1.00  0.00     0.170 HD
BRANCH  10  14
HETATM   14  C   UNL     1      39.763  -8.873   7.547  1.00  0.00     0.130 C 
BRANCH  14  15
HETATM   15  C   UNL     1      39.698  -8.547   9.040  1.00  0.00     0.031 C 
HETATM   16  C   UNL     1      39.226  -9.673   9.947  1.00  0.00     0.241 C 
HETATM   17  N   UNL     1      38.905  -8.963  11.265  1.00  0.00    -0.071 N 
HETATM   18  H   UNL     1      38.005  -9.352  11.578  1.00  0.00     0.279 HD
HETATM   19  C   UNL     1      38.703  -7.494  10.930  1.00  0.00     0.235 C 
HETATM   20  C   UNL     1      38.738  -7.425   9.413  1.00  0.00     0.035 C 
BRANCH  17  21
HETATM   21  C   UNL     1      39.923  -9.231  12.343  1.00  0.00     0.234 C 
BRANCH  21  22
HETATM   22  C   UNL     1      40.765  -7.996  12.656  1.00  0.00     0.023 C 
HETATM   23  C   UNL     1      42.210  -8.107  12.191  1.00  0.00     0.007 C 
ENDBRANCH  21  22
ENDBRANCH  17  21
ENDBRANCH  14  15
ENDBRANCH  10  14
ENDBRANCH   1   8
BRANCH   5  24
HETATM   24  N   UNL     1      42.665 -16.644   4.017  1.00  0.00    -0.321 N 
HETATM   25  C   UNL     1      43.693 -17.522   4.323  1.00  0.00     0.279 C 
HETATM   26  O   UNL     1      44.586 -17.313   5.137  1.00  0.00    -0.265 OA
HETATM   27  H   UNL     1      42.077 -16.954   3.251  1.00  0.00     0.169 HD
BRANCH  25  28
HETATM   28  C   UNL     1      43.640 -18.739   3.534  1.00  0.00     0.142 A 
HETATM   29  O   UNL     1      44.006 -19.931   4.107  1.00  0.00    -0.317 OA
HETATM   30  C   UNL     1      43.869 -20.890   3.154  1.00  0.00     0.143 A 
HETATM   31  C   UNL     1      43.406 -20.343   1.980  1.00  0.00     0.027 A 
HETATM   32  C   UNL     1      43.260 -18.956   2.223  1.00  0.00     0.045 A 
ENDBRANCH  25  28
ENDBRANCH   5  24
TORSDOF 7
ENDMDL
MODEL 3
REMARK VINA RESULT:      -7.4      3.977     12.246
REMARK  7 active torsions:
REMARK  status: ('A' for Active; 'I' for Inactive)
REMARK    1  A    between atoms: C_2  and  C_3 
REMARK    2  A    between atoms: C_3  and  N_4 
REMARK    3  A    between atoms: C_7  and  C_8 
REMARK    4  A    between atoms: C_8  and  N_9 
REMARK       I    between atoms: N_9  and  C_10 
REMARK       I    between atoms: C_10  and  N_11 
REMARK    5  A    between atoms: N_11  and  C_12 
REMARK    6  A    between atoms: C_16  and  N_17 
REMARK       I    between atoms: N_17  and  C_18 
REMARK    7  A    between atoms: C_18  and  C_19 
ROOT
HETATM    1  C   UNL     1      42.289  -9.469  11.656  1.00  0.00     0.036 A 
HETATM    2  C   UNL     1      43.006  -8.458  12.294  1.00  0.00     0.038 A 
HETATM    3  C   UNL     1      42.727  -8.098  13.629  1.00  0.00    -0.033 A 
HETATM    4  C   UNL     1      43.555  -7.014  14.266  1.00  0.00     0.050 C 
HETATM    5  C   UNL     1      41.675  -8.740  14.316  1.00  0.00     0.041 A 
HETATM    6  C   UNL     1      40.990  -9.779  13.677  1.00  0.00     0.032 A 
HETATM    7  C   UNL     1      41.305 -10.152  12.368  1.00  0.00     0.032 A 
ENDROOT
BRANCH   1   8
HETATM    8  N   UNL     1      42.510  -9.858  10.322  1.00  0.00    -0.309 N 
HETATM    9  C   UNL     1      43.607 -10.533   9.844  1.00  0.00     0.320 C 
HETATM   10  N   UNL     1      43.503 -10.731   8.480  1.00  0.00    -0.342 N 
HETATM   11  O   UNL     1      44.618 -10.840  10.463  1.00  0.00    -0.247 OA
HETATM   12  H   UNL     1      42.558 -10.955   8.184  1.00  0.00     0.164 HD
HETATM   13  H   UNL     1      41.946  -9.395   9.625  1.00  0.00     0.170 HD
BRANCH  10  14
HETATM   14  C   UNL     1      44.570 -11.381   7.747  1.00  0.00     0.130 C 
BRANCH  14  15
HETATM   15  C   UNL     1      44.092 -12.290   6.612  1.00  0.00     0.031 C 
HETATM   16  C   UNL     1      42.928 -11.765   5.785  1.00  0.00     0.241 C 
HETATM   17  N   UNL     1      42.445 -13.000   5.021  1.00  0.00    -0.071 N 
HETATM   18  H   UNL     1      41.418 -12.984   5.089  1.00  0.00     0.279 HD
HETATM   19  C   UNL     1      42.957 -14.212   5.782  1.00  0.00     0.235 C 
HETATM   20  C   UNL     1      43.570 -13.651   7.054  1.00  0.00     0.035 C 
BRANCH  17  21
HETATM   21  C   UNL     1      42.810 -12.970   3.560  1.00  0.00     0.234 C 
BRANCH  21  22
HETATM   22  C   UNL     1      43.142 -11.558   3.081  1.00  0.00     0.023 C 
HETATM   23  C   UNL     1      42.028 -10.910   2.271  1.00  0.00     0.007 C 
ENDBRANCH  21  22
ENDBRANCH  17  21
ENDBRANCH  14  15
ENDBRANCH  10  14
ENDBRANCH   1   8
BRANCH   5  24
HETATM   24  N   UNL     1      41.348  -8.319  15.622  1.00  0.00    -0.321 N 
HETATM   25  C   UNL     1      40.551  -7.253  16.005  1.00  0.00     0.279 C 
HETATM   26  O   UNL     1      39.990  -6.475  15.241  1.00  0.00    -0.265 OA
HETATM   27  H   UNL     1      41.801  -8.791  16.397  1.00  0.00     0.169 HD
BRANCH  25  28
HETATM   28  C   UNL     1      40.470  -7.108  17.447  1.00  0.00     0.142 A 
HETATM   29  O   UNL     1      40.724  -5.885  18.018  1.00  0.00    -0.317 OA
HETATM   30  C   UNL     1      40.586  -6.037  19.361  1.00  0.00     0.143 A 
HETATM   31  C   UNL     1      40.233  -7.329  19.669  1.00  0.00     0.027 A 
HETATM   32  C   UNL     1      40.160  -8.021  18.437  1.00  0.00     0.045 A 
ENDBRANCH  25  28
ENDBRANCH   5  24
TORSDOF 7
ENDMDL
MODEL 4
REMARK VINA RESULT:      -7.2      1.475      2.323
REMARK  7 active torsions:
REMARK  status: ('A' for Active; 'I' for Inactive)
REMARK    1  A    between atoms: C_2  and  C_3 
REMARK    2  A    between atoms: C_3  and  N_4 
REMARK    3  A    between atoms: C_7  and  C_8 
REMARK    4  A    between atoms: C_8  and  N_9 
REMARK       I    between atoms: N_9  and  C_10 
REMARK       I    between atoms: C_10  and  N_11 
REMARK    5  A    between atoms: N_11  and  C_12 
REMARK    6  A    between atoms: C_16  and  N_17 
REMARK       I    between atoms: N_17  and  C_18 
REMARK    7  A    between atoms: C_18  and  C_19 
ROOT
HETATM    1  C   UNL     1      41.514 -12.537   5.445  1.00  0.00     0.036 A 
HETATM    2  C   UNL     1      40.948 -13.683   6.003  1.00  0.00     0.038 A 
HETATM    3  C   UNL     1      41.298 -14.968   5.539  1.00  0.00    -0.033 A 
HETATM    4  C   UNL     1      40.668 -16.164   6.203  1.00  0.00     0.050 C 
HETATM    5  C   UNL     1      42.200 -15.096   4.462  1.00  0.00     0.041 A 
HETATM    6  C   UNL     1      42.789 -13.941   3.938  1.00  0.00     0.032 A 
HETATM    7  C   UNL     1      42.464 -12.677   4.436  1.00  0.00     0.032 A 
ENDROOT
BRANCH   1   8
HETATM    8  N   UNL     1      41.190 -11.230   5.853  1.00  0.00    -0.309 N 
HETATM    9  C   UNL     1      42.075 -10.271   6.283  1.00  0.00     0.320 C 
HETATM   10  N   UNL     1      41.408  -9.110   6.625  1.00  0.00    -0.342 N 
HETATM   11  O   UNL     1      43.278 -10.401   6.470  1.00  0.00    -0.247 OA
HETATM   12  H   UNL     1      40.641  -8.895   5.998  1.00  0.00     0.164 HD
HETATM   13  H   UNL     1      40.222 -11.064   6.083  1.00  0.00     0.170 HD
BRANCH  10  14
HETATM   14  C   UNL     1      42.134  -7.973   7.154  1.00  0.00     0.130 C 
BRANCH  14  15
HETATM   15  C   UNL     1      42.552  -8.118   8.618  1.00  0.00     0.031 C 
HETATM   16  C   UNL     1      41.626  -8.947   9.495  1.00  0.00     0.241 C 
HETATM   17  N   UNL     1      42.074  -8.601  10.918  1.00  0.00    -0.071 N 
HETATM   18  H   UNL     1      41.208  -8.451  11.453  1.00  0.00     0.279 HD
HETATM   19  C   UNL     1      42.819  -7.280  10.831  1.00  0.00     0.235 C 
HETATM   20  C   UNL     1      42.632  -6.812   9.398  1.00  0.00     0.035 C 
BRANCH  17  21
HETATM   21  C   UNL     1      42.838  -9.716  11.583  1.00  0.00     0.234 C 
BRANCH  21  22
HETATM   22  C   UNL     1      43.663 -10.522  10.581  1.00  0.00     0.023 C 
HETATM   23  C   UNL     1      45.111 -10.064  10.473  1.00  0.00     0.007 C 
ENDBRANCH  21  22
ENDBRANCH  17  21
ENDBRANCH  14  15
ENDBRANCH  10  14
ENDBRANCH   1   8
BRANCH   5  24
HETATM   24  N   UNL     1      42.482 -16.380   3.951  1.00  0.00    -0.321 N 
HETATM   25  C   UNL     1      43.551 -17.208   4.254  1.00  0.00     0.279 C 
HETATM   26  O   UNL     1      44.457 -16.941   5.037  1.00  0.00    -0.265 OA
HETATM   27  H   UNL     1      41.887 -16.734   3.210  1.00  0.00     0.169 HD
BRANCH  25  28
HETATM   28  C   UNL     1      43.526 -18.448   3.501  1.00  0.00     0.142 A 
HETATM   29  O   UNL     1      43.951 -19.609   4.097  1.00  0.00    -0.317 OA
HETATM   30  C   UNL     1      43.828 -20.599   3.175  1.00  0.00     0.143 A 
HETATM   31  C   UNL     1      43.318 -20.104   1.998  1.00  0.00     0.027 A 
HETATM   32  C   UNL     1      43.124 -18.717   2.206  1.00  0.00     0.045 A 
ENDBRANCH  25  28
ENDBRANCH   5  24
TORSDOF 7
ENDMDL
MODEL 5
REMARK VINA RESULT:      -7.0      3.555     11.828
REMARK  7 active torsions:
REMARK  status: ('A' for Active; 'I' for Inactive)
REMARK    1  A    between atoms: C_2  and  C_3 
REMARK    2  A    between atoms: C_3  and  N_4 
REMARK    3  A    between atoms: C_7  and  C_8 
REMARK    4  A    between atoms: C_8  and  N_9 
REMARK       I    between atoms: N_9  and  C_10 
REMARK       I    between atoms: C_10  and  N_11 
REMARK    5  A    between atoms: N_11  and  C_12 
REMARK    6  A    between atoms: C_16  and  N_17 
REMARK       I    between atoms: N_17  and  C_18 
REMARK    7  A    between atoms: C_18  and  C_19 
ROOT
HETATM    1  C   UNL     1      42.477  -9.291  10.618  1.00  0.00     0.036 A 
HETATM    2  C   UNL     1      41.390  -9.806  11.323  1.00  0.00     0.038 A 
HETATM    3  C   UNL     1      41.186  -9.485  12.682  1.00  0.00    -0.033 A 
HETATM    4  C   UNL     1      39.978 -10.056  13.377  1.00  0.00     0.050 C 
HETATM    5  C   UNL     1      42.120  -8.668  13.351  1.00  0.00     0.041 A 
HETATM    6  C   UNL     1      43.185  -8.128  12.621  1.00  0.00     0.032 A 
HETATM    7  C   UNL     1      43.351  -8.421  11.266  1.00  0.00     0.032 A 
ENDROOT
BRANCH   1   8
HETATM    8  N   UNL     1      42.742  -9.590   9.269  1.00  0.00    -0.309 N 
HETATM    9  C   UNL     1      43.584 -10.571   8.805  1.00  0.00     0.320 C 
HETATM   10  N   UNL     1      43.621 -10.570   7.423  1.00  0.00    -0.342 N 
HETATM   11  O   UNL     1      44.314 -11.299   9.467  1.00  0.00    -0.247 OA
HETATM   12  H   UNL     1      42.715 -10.392   7.003  1.00  0.00     0.164 HD
HETATM   13  H   UNL     1      42.492  -8.878   8.599  1.00  0.00     0.170 HD
BRANCH  10  14
HETATM   14  C   UNL     1      44.482 -11.491   6.709  1.00  0.00     0.130 C 
BRANCH  14  15
HETATM   15  C   UNL     1      43.748 -12.668   6.064  1.00  0.00     0.031 C 
HETATM   16  C   UNL     1      42.337 -12.383   5.572  1.00  0.00     0.241 C 
HETATM   17  N   UNL     1      41.747 -13.778   5.347  1.00  0.00    -0.071 N 
HETATM   18  H   UNL     1      40.800 -13.747   5.749  1.00  0.00     0.279 HD
HETATM   19  C   UNL     1      42.586 -14.744   6.167  1.00  0.00     0.235 C 
HETATM   20  C   UNL     1      43.523 -13.865   6.978  1.00  0.00     0.035 C 
BRANCH  17  21
HETATM   21  C   UNL     1      41.617 -14.135   3.889  1.00  0.00     0.234 C 
BRANCH  21  22
HETATM   22  C   UNL     1      40.998 -15.517   3.690  1.00  0.00     0.023 C 
HETATM   23  C   UNL     1      40.057 -15.599   2.497  1.00  0.00     0.007 C 
ENDBRANCH  21  22
ENDBRANCH  17  21
ENDBRANCH  14  15
ENDBRANCH  10  14
ENDBRANCH   1   8
BRANCH   5  24
HETATM   24  N   UNL     1      41.954  -8.419  14.729  1.00  0.00    -0.321 N 
HETATM   25  C   UNL     1      41.480  -7.269  15.341  1.00  0.00     0.279 C 
HETATM   26  O   UNL     1      41.126  -6.249  14.760  1.00  0.00    -0.265 OA
HETATM   27  H   UNL     1      42.285  -9.122  15.379  1.00  0.00     0.169 HD
BRANCH  25  28
HETATM   28  C   UNL     1      41.480  -7.369  16.789  1.00  0.00     0.142 A 
HETATM   29  O   UNL     1      42.485  -6.768  17.507  1.00  0.00    -0.317 OA
HETATM   30  C   UNL     1      42.243  -7.023  18.819  1.00  0.00     0.143 A 
HETATM   31  C   UNL     1      41.094  -7.763  18.966  1.00  0.00     0.027 A 
HETATM   32  C   UNL     1      40.602  -7.988  17.658  1.00  0.00     0.045 A 
ENDBRANCH  25  28
ENDBRANCH   5  24
TORSDOF 7
ENDMDL
MODEL 6
REMARK VINA RESULT:      -6.7      1.728      2.031
REMARK  7 active torsions:
REMARK  status: ('A' for Active; 'I' for Inactive)
REMARK    1  A    between atoms: C_2  and  C_3 
REMARK    2  A    between atoms: C_3  and  N_4 
REMARK    3  A    between atoms: C_7  and  C_8 
REMARK    4  A    between atoms: C_8  and  N_9 
REMARK       I    between atoms: N_9  and  C_10 
REMARK       I    between atoms: C_10  and  N_11 
REMARK    5  A    between atoms: N_11  and  C_12 
REMARK    6  A    between atoms: C_16  and  N_17 
REMARK       I    between atoms: N_17  and  C_18 
REMARK    7  A    between atoms: C_18  and  C_19 
ROOT
HETATM    1  C   UNL     1      43.159 -11.527   6.096  1.00  0.00     0.036 A 
HETATM    2  C   UNL     1      42.905 -11.698   4.736  1.00  0.00     0.038 A 
HETATM    3  C   UNL     1      42.926 -12.980   4.147  1.00  0.00    -0.033 A 
HETATM    4  C   UNL     1      42.618 -13.097   2.677  1.00  0.00     0.050 C 
HETATM    5  C   UNL     1      43.254 -14.101   4.937  1.00  0.00     0.041 A 
HETATM    6  C   UNL     1      43.469 -13.919   6.307  1.00  0.00     0.032 A 
HETATM    7  C   UNL     1      43.404 -12.649   6.884  1.00  0.00     0.032 A 
ENDROOT
BRANCH   1   8
HETATM    8  N   UNL     1      43.171 -10.272   6.734  1.00  0.00    -0.309 N 
HETATM    9  C   UNL     1      42.070  -9.555   7.134  1.00  0.00     0.320 C 
HETATM   10  N   UNL     1      42.451  -8.356   7.708  1.00  0.00    -0.342 N 
HETATM   11  O   UNL     1      40.893  -9.828   6.936  1.00  0.00    -0.247 OA
HETATM   12  H   UNL     1      43.281  -8.440   8.284  1.00  0.00     0.164 HD
HETATM   13  H   UNL     1      44.032  -9.750   6.671  1.00  0.00     0.170 HD
BRANCH  10  14
HETATM   14  C   UNL     1      41.453  -7.408   8.162  1.00  0.00     0.130 C 
BRANCH  14  15
HETATM   15  C   UNL     1      41.322  -7.313   9.684  1.00  0.00     0.031 C 
HETATM   16  C   UNL     1      42.564  -7.681  10.482  1.00  0.00     0.241 C 
HETATM   17  N   UNL     1      42.033  -7.860  11.907  1.00  0.00    -0.071 N 
HETATM   18  H   UNL     1      42.475  -8.720  12.262  1.00  0.00     0.279 HD
HETATM   19  C   UNL     1      40.538  -8.104  11.789  1.00  0.00     0.235 C 
HETATM   20  C   UNL     1      40.274  -8.232  10.298  1.00  0.00     0.035 C 
BRANCH  17  21
HETATM   21  C   UNL     1      42.419  -6.731  12.827  1.00  0.00     0.234 C 
BRANCH  21  22
HETATM   22  C   UNL     1      43.188  -7.226  14.051  1.00  0.00     0.023 C 
HETATM   23  C   UNL     1      42.442  -7.026  15.363  1.00  0.00     0.007 C 
ENDBRANCH  21  22
ENDBRANCH  17  21
ENDBRANCH  14  15
ENDBRANCH  10  14
ENDBRANCH   1   8
BRANCH   5  24
HETATM   24  N   UNL     1      43.352 -15.368   4.325  1.00  0.00    -0.321 N 
HETATM   25  C   UNL     1      42.411 -16.385   4.302  1.00  0.00     0.279 C 
HETATM   26  O   UNL     1      41.308 -16.344   4.837  1.00  0.00    -0.265 OA
HETATM   27  H   UNL     1      44.240 -15.623   3.907  1.00  0.00     0.169 HD
BRANCH  25  28
HETATM   28  C   UNL     1      42.882 -17.564   3.599  1.00  0.00     0.142 A 
HETATM   29  O   UNL     1      43.726 -18.439   4.236  1.00  0.00    -0.317 OA
HETATM   30  C   UNL     1      44.009 -19.434   3.355  1.00  0.00     0.143 A 
HETATM   31  C   UNL     1      43.352 -19.228   2.165  1.00  0.00     0.027 A 
HETATM   32  C   UNL     1      42.626 -18.023   2.320  1.00  0.00     0.045 A 
ENDBRANCH  25  28
ENDBRANCH   5  24
TORSDOF 7
ENDMDL
MODEL 7
REMARK VINA RESULT:      -6.7      6.997     11.014
REMARK  7 active torsions:
REMARK  status: ('A' for Active; 'I' for Inactive)
REMARK    1  A    between atoms: C_2  and  C_3 
REMARK    2  A    between atoms: C_3  and  N_4 
REMARK    3  A    between atoms: C_7  and  C_8 
REMARK    4  A    between atoms: C_8  and  N_9 
REMARK       I    between atoms: N_9  and  C_10 
REMARK       I    between atoms: C_10  and  N_11 
REMARK    5  A    between atoms: N_11  and  C_12 
REMARK    6  A    between atoms: C_16  and  N_17 
REMARK       I    between atoms: N_17  and  C_18 
REMARK    7  A    between atoms: C_18  and  C_19 
ROOT
HETATM    1  C   UNL     1      39.479 -13.050  -0.324  1.00  0.00     0.036 A 
HETATM    2  C   UNL     1      38.692 -11.899  -0.346  1.00  0.00     0.038 A 
HETATM    3  C   UNL     1      38.787 -10.972  -1.405  1.00  0.00    -0.033 A 
HETATM    4  C   UNL     1      37.891  -9.762  -1.379  1.00  0.00     0.050 C 
HETATM    5  C   UNL     1      39.726 -11.188  -2.435  1.00  0.00     0.041 A 
HETATM    6  C   UNL     1      40.481 -12.366  -2.420  1.00  0.00     0.032 A 
HETATM    7  C   UNL     1      40.346 -13.295  -1.386  1.00  0.00     0.032 A 
ENDROOT
BRANCH   1   8
HETATM    8  N   UNL     1      39.441 -13.999   0.714  1.00  0.00    -0.309 N 
HETATM    9  C   UNL     1      40.153 -13.948   1.888  1.00  0.00     0.320 C 
HETATM   10  N   UNL     1      39.888 -15.057   2.668  1.00  0.00    -0.342 N 
HETATM   11  O   UNL     1      41.003 -13.126   2.206  1.00  0.00    -0.247 OA
HETATM   12  H   UNL     1      38.914 -15.338   2.639  1.00  0.00     0.164 HD
HETATM   13  H   UNL     1      39.057 -14.902   0.476  1.00  0.00     0.170 HD
BRANCH  10  14
HETATM   14  C   UNL     1      40.565 -15.245   3.936  1.00  0.00     0.130 C 
BRANCH  14  15
HETATM   15  C   UNL     1      41.601 -16.370   3.936  1.00  0.00     0.031 C 
HETATM   16  C   UNL     1      42.820 -16.153   4.820  1.00  0.00     0.241 C 
HETATM   17  N   UNL     1      43.810 -17.214   4.333  1.00  0.00    -0.071 N 
HETATM   18  H   UNL     1      44.718 -16.734   4.261  1.00  0.00     0.279 HD
HETATM   19  C   UNL     1      43.368 -17.615   2.936  1.00  0.00     0.235 C 
HETATM   20  C   UNL     1      42.244 -16.655   2.585  1.00  0.00     0.035 C 
BRANCH  17  21
HETATM   21  C   UNL     1      43.970 -18.359   5.299  1.00  0.00     0.234 C 
BRANCH  21  22
HETATM   22  C   UNL     1      44.310 -19.667   4.585  1.00  0.00     0.023 C 
HETATM   23  C   UNL     1      43.949 -20.910   5.385  1.00  0.00     0.007 C 
ENDBRANCH  21  22
ENDBRANCH  17  21
ENDBRANCH  14  15
ENDBRANCH  10  14
ENDBRANCH   1   8
BRANCH   5  24
HETATM   24  N   UNL     1      39.872 -10.217  -3.447  1.00  0.00    -0.321 N 
HETATM   25  C   UNL     1      40.782  -9.174  -3.510  1.00  0.00     0.279 C 
HETATM   26  O   UNL     1      41.629  -8.918  -2.660  1.00  0.00    -0.265 OA
HETATM   27  H   UNL     1      39.191 -10.211  -4.198  1.00  0.00     0.169 HD
BRANCH  25  28
HETATM   28  C   UNL     1      40.610  -8.355  -4.695  1.00  0.00     0.142 A 
HETATM   29  O   UNL     1      39.705  -8.736  -5.655  1.00  0.00    -0.317 OA
HETATM   30  C   UNL     1      39.754  -7.804  -6.642  1.00  0.00     0.143 A 
HETATM   31  C   UNL     1      40.661  -6.818  -6.332  1.00  0.00     0.027 A 
HETATM   32  C   UNL     1      41.215  -7.173  -5.079  1.00  0.00     0.045 A 
ENDBRANCH  25  28
ENDBRANCH   5  24
TORSDOF 7
ENDMDL
MODEL 8
REMARK VINA RESULT:      -6.6     17.807     20.104
REMARK  7 active torsions:
REMARK  status: ('A' for Active; 'I' for Inactive)
REMARK    1  A    between atoms: C_2  and  C_3 
REMARK    2  A    between atoms: C_3  and  N_4 
REMARK    3  A    between atoms: C_7  and  C_8 
REMARK    4  A    between atoms: C_8  and  N_9 
REMARK       I    between atoms: N_9  and  C_10 
REMARK       I    between atoms: C_10  and  N_11 
REMARK    5  A    between atoms: N_11  and  C_12 
REMARK    6  A    between atoms: C_16  and  N_17 
REMARK       I    between atoms: N_17  and  C_18 
REMARK    7  A    between atoms: C_18  and  C_19 
ROOT
HETATM    1  C   UNL     1      50.237 -30.041   2.694  1.00  0.00     0.036 A 
HETATM    2  C   UNL     1      48.993 -29.443   2.895  1.00  0.00     0.038 A 
HETATM    3  C   UNL     1      48.119 -29.202   1.814  1.00  0.00    -0.033 A 
HETATM    4  C   UNL     1      46.780 -28.575   2.104  1.00  0.00     0.050 C 
HETATM    5  C   UNL     1      48.526 -29.529   0.505  1.00  0.00     0.041 A 
HETATM    6  C   UNL     1      49.759 -30.163   0.323  1.00  0.00     0.032 A 
HETATM    7  C   UNL     1      50.597 -30.434   1.407  1.00  0.00     0.032 A 
ENDROOT
BRANCH   1   8
HETATM    8  N   UNL     1      51.158 -30.289   3.729  1.00  0.00    -0.309 N 
HETATM    9  C   UNL     1      51.033 -31.234   4.718  1.00  0.00     0.320 C 
HETATM   10  N   UNL     1      52.113 -31.186   5.579  1.00  0.00    -0.342 N 
HETATM   11  O   UNL     1      50.073 -31.964   4.931  1.00  0.00    -0.247 OA
HETATM   12  H   UNL     1      52.992 -31.016   5.101  1.00  0.00     0.164 HD
HETATM   13  H   UNL     1      51.835 -29.562   3.904  1.00  0.00     0.170 HD
BRANCH  10  14
HETATM   14  C   UNL     1      52.175 -32.061   6.732  1.00  0.00     0.130 C 
BRANCH  14  15
HETATM   15  C   UNL     1      53.566 -32.180   7.358  1.00  0.00     0.031 C 
HETATM   16  C   UNL     1      54.002 -31.016   8.234  1.00  0.00     0.241 C 
HETATM   17  N   UNL     1      55.510 -31.230   8.390  1.00  0.00    -0.071 N 
HETATM   18  H   UNL     1      55.938 -30.304   8.256  1.00  0.00     0.279 HD
HETATM   19  C   UNL     1      55.944 -32.129   7.244  1.00  0.00     0.235 C 
HETATM   20  C   UNL     1      54.715 -32.268   6.362  1.00  0.00     0.035 C 
BRANCH  17  21
HETATM   21  C   UNL     1      55.898 -31.722   9.761  1.00  0.00     0.234 C 
BRANCH  21  22
HETATM   22  C   UNL     1      54.771 -31.537  10.775  1.00  0.00     0.023 C 
HETATM   23  C   UNL     1      54.433 -32.803  11.550  1.00  0.00     0.007 C 
ENDBRANCH  21  22
ENDBRANCH  17  21
ENDBRANCH  14  15
ENDBRANCH  10  14
ENDBRANCH   1   8
BRANCH   5  24
HETATM   24  N   UNL     1      47.680 -29.211  -0.578  1.00  0.00    -0.321 N 
HETATM   25  C   UNL     1      46.757 -30.026  -1.213  1.00  0.00     0.279 C 
HETATM   26  O   UNL     1      46.527 -31.196  -0.928  1.00  0.00    -0.265 OA
HETATM   27  H   UNL     1      47.795 -28.304  -1.016  1.00  0.00     0.169 HD
BRANCH  25  28
HETATM   28  C   UNL     1      46.090 -29.358  -2.316  1.00  0.00     0.142 A 
HETATM   29  O   UNL     1      45.759 -30.075  -3.439  1.00  0.00    -0.317 OA
HETATM   30  C   UNL     1      45.161 -29.212  -4.301  1.00  0.00     0.143 A 
HETATM   31  C   UNL     1      45.085 -27.954  -3.752  1.00  0.00     0.027 A 
HETATM   32  C   UNL     1      45.685 -28.046  -2.474  1.00  0.00     0.045 A 
ENDBRANCH  25  28
ENDBRANCH   5  24
TORSDOF 7
ENDMDL
MODEL 9
REMARK VINA RESULT:      -6.6     17.525     19.790
REMARK  7 active torsions:
REMARK  status: ('A' for Active; 'I' for Inactive)
REMARK    1  A    between atoms: C_2  and  C_3 
REMARK    2  A    between atoms: C_3  and  N_4 
REMARK    3  A    between atoms: C_7  and  C_8 
REMARK    4  A    between atoms: C_8  and  N_9 
REMARK       I    between atoms: N_9  and  C_10 
REMARK       I    between atoms: C_10  and  N_11 
REMARK    5  A    between atoms: N_11  and  C_12 
REMARK    6  A    between atoms: C_16  and  N_17 
REMARK       I    between atoms: N_17  and  C_18 
REMARK    7  A    between atoms: C_18  and  C_19 
ROOT
HETATM    1  C   UNL     1      41.392 -30.686   2.883  1.00  0.00     0.036 A 
HETATM    2  C   UNL     1      41.640 -30.742   4.254  1.00  0.00     0.038 A 
HETATM    3  C   UNL     1      40.964 -31.666   5.079  1.00  0.00    -0.033 A 
HETATM    4  C   UNL     1      41.297 -31.690   6.547  1.00  0.00     0.050 C 
HETATM    5  C   UNL     1      39.987 -32.514   4.516  1.00  0.00     0.041 A 
HETATM    6  C   UNL     1      39.777 -32.473   3.134  1.00  0.00     0.032 A 
HETATM    7  C   UNL     1      40.484 -31.582   2.324  1.00  0.00     0.032 A 
ENDROOT
BRANCH   1   8
HETATM    8  N   UNL     1      42.021 -29.774   2.015  1.00  0.00    -0.309 N 
HETATM    9  C   UNL     1      42.871 -30.090   0.983  1.00  0.00     0.320 C 
HETATM   10  N   UNL     1      43.321 -28.946   0.353  1.00  0.00    -0.342 N 
HETATM   11  O   UNL     1      43.300 -31.199   0.687  1.00  0.00    -0.247 OA
HETATM   12  H   UNL     1      42.603 -28.235   0.263  1.00  0.00     0.164 HD
HETATM   13  H   UNL     1      42.049 -28.814   2.324  1.00  0.00     0.170 HD
BRANCH  10  14
HETATM   14  C   UNL     1      44.270 -29.031  -0.739  1.00  0.00     0.130 C 
BRANCH  14  15
HETATM   15  C   UNL     1      45.736 -29.023  -0.301  1.00  0.00     0.031 C 
HETATM   16  C   UNL     1      46.008 -28.495   1.099  1.00  0.00     0.241 C 
HETATM   17  N   UNL     1      47.520 -28.254   1.104  1.00  0.00    -0.071 N 
HETATM   18  H   UNL     1      47.654 -27.336   1.552  1.00  0.00     0.279 HD
HETATM   19  C   UNL     1      47.949 -28.145  -0.350  1.00  0.00     0.235 C 
HETATM   20  C   UNL     1      46.656 -28.151  -1.146  1.00  0.00     0.035 C 
BRANCH  17  21
HETATM   21  C   UNL     1      48.278 -29.275   1.912  1.00  0.00     0.234 C 
BRANCH  21  22
HETATM   22  C   UNL     1      48.639 -28.753   3.302  1.00  0.00     0.023 C 
HETATM   23  C   UNL     1      49.534 -29.695   4.094  1.00  0.00     0.007 C 
ENDBRANCH  21  22
ENDBRANCH  17  21
ENDBRANCH  14  15
ENDBRANCH  10  14
ENDBRANCH   1   8
BRANCH   5  24
HETATM   24  N   UNL     1      39.258 -33.377   5.360  1.00  0.00    -0.321 N 
HETATM   25  C   UNL     1      37.888 -33.419   5.567  1.00  0.00     0.279 C 
HETATM   26  O   UNL     1      37.067 -32.679   5.036  1.00  0.00    -0.265 OA
HETATM   27  H   UNL     1      39.781 -34.005   5.959  1.00  0.00     0.169 HD
BRANCH  25  28
HETATM   28  C   UNL     1      37.502 -34.425   6.539  1.00  0.00     0.142 A 
HETATM   29  O   UNL     1      36.482 -34.159   7.418  1.00  0.00    -0.317 OA
HETATM   30  C   UNL     1      36.339 -35.256   8.206  1.00  0.00     0.143 A 
HETATM   31  C   UNL     1      37.236 -36.234   7.844  1.00  0.00     0.027 A 
HETATM   32  C   UNL     1      37.987 -35.699   6.770  1.00  0.00     0.045 A 
ENDBRANCH  25  28
ENDBRANCH   5  24
TORSDOF 7
ENDMDL
MODEL 10
REMARK VINA RESULT:      -6.5      6.943      9.854
REMARK  7 active torsions:
REMARK  status: ('A' for Active; 'I' for Inactive)
REMARK    1  A    between atoms: C_2  and  C_3 
REMARK    2  A    between atoms: C_3  and  N_4 
REMARK    3  A    between atoms: C_7  and  C_8 
REMARK    4  A    between atoms: C_8  and  N_9 
REMARK       I    between atoms: N_9  and  C_10 
REMARK       I    between atoms: C_10  and  N_11 
REMARK    5  A    between atoms: N_11  and  C_12 
REMARK    6  A    between atoms: C_16  and  N_17 
REMARK       I    between atoms: N_17  and  C_18 
REMARK    7  A    between atoms: C_18  and  C_19 
ROOT
HETATM    1  C   UNL     1      40.315 -13.807   1.416  1.00  0.00     0.036 A 
HETATM    2  C   UNL     1      41.649 -14.128   1.169  1.00  0.00     0.038 A 
HETATM    3  C   UNL     1      42.252 -15.251   1.773  1.00  0.00    -0.033 A 
HETATM    4  C   UNL     1      43.690 -15.555   1.444  1.00  0.00     0.050 C 
HETATM    5  C   UNL     1      41.508 -16.036   2.678  1.00  0.00     0.041 A 
HETATM    6  C   UNL     1      40.160 -15.726   2.887  1.00  0.00     0.032 A 
HETATM    7  C   UNL     1      39.565 -14.635   2.249  1.00  0.00     0.032 A 
ENDROOT
BRANCH   1   8
HETATM    8  N   UNL     1      39.666 -12.690   0.858  1.00  0.00    -0.309 N 
HETATM    9  C   UNL     1      39.103 -12.620  -0.393  1.00  0.00     0.320 C 
HETATM   10  N   UNL     1      38.571 -11.365  -0.620  1.00  0.00    -0.342 N 
HETATM   11  O   UNL     1      39.137 -13.473  -1.272  1.00  0.00    -0.247 OA
HETATM   12  H   UNL     1      38.119 -10.974   0.200  1.00  0.00     0.164 HD
HETATM   13  H   UNL     1      39.843 -11.804   1.307  1.00  0.00     0.170 HD
BRANCH  10  14
HETATM   14  C   UNL     1      37.965 -11.041  -1.896  1.00  0.00     0.130 C 
BRANCH  14  15
HETATM   15  C   UNL     1      36.575 -10.411  -1.791  1.00  0.00     0.031 C 
HETATM   16  C   UNL     1      36.355  -9.147  -2.608  1.00  0.00     0.241 C 
HETATM   17  N   UNL     1      35.068  -8.560  -2.022  1.00  0.00    -0.071 N 
HETATM   18  H   UNL     1      35.246  -7.552  -1.915  1.00  0.00     0.279 HD
HETATM   19  C   UNL     1      34.902  -9.168  -0.639  1.00  0.00     0.235 C 
HETATM   20  C   UNL     1      36.181  -9.949  -0.394  1.00  0.00     0.035 C 
BRANCH  17  21
HETATM   21  C   UNL     1      33.878  -8.724  -2.931  1.00  0.00     0.234 C 
BRANCH  21  22
HETATM   22  C   UNL     1      33.009  -9.915  -2.530  1.00  0.00     0.023 C 
HETATM   23  C   UNL     1      33.114 -11.096  -3.484  1.00  0.00     0.007 C 
ENDBRANCH  21  22
ENDBRANCH  17  21
ENDBRANCH  14  15
ENDBRANCH  10  14
ENDBRANCH   1   8
BRANCH   5  24
HETATM   24  N   UNL     1      42.141 -17.109   3.340  1.00  0.00    -0.321 N 
HETATM   25  C   UNL     1      42.976 -17.062   4.444  1.00  0.00     0.279 C 
HETATM   26  O   UNL     1      43.315 -16.043   5.036  1.00  0.00    -0.265 OA
HETATM   27  H   UNL     1      42.053 -18.033   2.932  1.00  0.00     0.169 HD
BRANCH  25  28
HETATM   28  C   UNL     1      43.468 -18.373   4.827  1.00  0.00     0.142 A 
HETATM   29  O   UNL     1      43.203 -18.854   6.085  1.00  0.00    -0.317 OA
HETATM   30  C   UNL     1      43.779 -20.080   6.173  1.00  0.00     0.143 A 
HETATM   31  C   UNL     1      44.399 -20.410   4.990  1.00  0.00     0.027 A 
HETATM   32  C   UNL     1      44.201 -19.310   4.123  1.00  0.00     0.045 A 
ENDBRANCH  25  28
ENDBRANCH   5  24
TORSDOF 7
ENDMDL
