MODEL 1
REMARK VINA RESULT:      -8.6      0.000      0.000
REMARK  3 active torsions:
REMARK  status: ('A' for Active; 'I' for Inactive)
REMARK    1  A    between atoms: C_4  and  N_5 
REMARK       I    between atoms: N_5  and  C_6 
REMARK    2  A    between atoms: C_6  and  C_7 
REMARK    3  A    between atoms: C_7  and  C_8 
ROOT
HETATM    1  C   UNL     1      40.532 -13.645   1.351  1.00  0.00     0.286 C 
HETATM    2  N   UNL     1      41.186 -13.466  -0.018  1.00  0.00    -0.056 N 
HETATM    3  H   UNL     1      41.762 -12.599   0.061  1.00  0.00     0.278 HD
HETATM    4  H   UNL     1      41.853 -14.221  -0.213  1.00  0.00     0.278 HD
HETATM    5  C   UNL     1      40.242 -13.251  -1.166  1.00  0.00     0.209 C 
HETATM    6  C   UNL     1      39.253 -12.115  -0.815  1.00  0.00     0.115 C 
HETATM    7  N   UNL     1      38.615 -12.309   0.486  1.00  0.00    -0.353 N 
HETATM    8  C   UNL     1      39.302 -12.745   1.590  1.00  0.00     0.249 C 
HETATM    9  O   UNL     1      38.880 -12.500   2.715  1.00  0.00    -0.271 OA
HETATM   10  C   UNL     1      39.547 -14.564  -1.527  1.00  0.00     0.035 C 
HETATM   11  C   UNL     1      38.533 -14.345  -2.648  1.00  0.00     0.002 C 
HETATM   12  C   UNL     1      37.520 -13.261  -2.285  1.00  0.00     0.002 C 
HETATM   13  C   UNL     1      38.205 -11.945  -1.918  1.00  0.00     0.027 C 
HETATM   14  H   UNL     1      37.848 -11.686   0.734  1.00  0.00     0.163 HD
ENDROOT
BRANCH   1  15
HETATM   15  C   UNL     1      41.556 -13.445   2.481  1.00  0.00     0.146 C 
BRANCH  15  16
HETATM   16  C   UNL     1      42.548 -14.590   2.491  1.00  0.00     0.224 C 
HETATM   17  N   UNL     1      42.172 -15.657   3.268  1.00  0.00    -0.327 N 
HETATM   18  H   UNL     1      41.329 -15.569   3.827  1.00  0.00     0.169 HD
HETATM   19  O   UNL     1      43.547 -14.498   1.776  1.00  0.00    -0.273 OA
BRANCH  17  20
HETATM   20  C   UNL     1      42.863 -16.880   3.430  1.00  0.00     0.035 A 
HETATM   21  C   UNL     1      42.799 -17.942   2.525  1.00  0.00     0.036 A 
HETATM   22  C   UNL     1      43.507 -19.133   2.755  1.00  0.00    -0.060 A 
HETATM   23  C   UNL     1      43.440 -20.251   1.754  1.00  0.00     0.048 C 
HETATM   24  C   UNL     1      44.301 -19.248   3.899  1.00  0.00     0.007 A 
HETATM   25  C   UNL     1      44.370 -18.194   4.809  1.00  0.00     0.003 A 
HETATM   26  C   UNL     1      43.653 -17.019   4.577  1.00  0.00     0.029 A 
ENDBRANCH  17  20
ENDBRANCH  15  16
ENDBRANCH   1  15
TORSDOF 3
ENDMDL
MODEL 2
REMARK VINA RESULT:      -8.4      1.807      2.889
REMARK  3 active torsions:
REMARK  status: ('A' for Active; 'I' for Inactive)
REMARK    1  A    between atoms: C_4  and  N_5 
REMARK       I    between atoms: N_5  and  C_6 
REMARK    2  A    between atoms: C_6  and  C_7 
REMARK    3  A    between atoms: C_7  and  C_8 
ROOT
HETATM    1  C   UNL     1      41.632 -13.610   3.475  1.00  0.00     0.286 C 
HETATM    2  N   UNL     1      40.154 -13.989   3.390  1.00  0.00    -0.056 N 
HETATM    3  H   UNL     1      40.123 -15.021   3.539  1.00  0.00     0.278 HD
HETATM    4  H   UNL     1      39.622 -13.583   4.168  1.00  0.00     0.278 HD
HETATM    5  C   UNL     1      39.492 -13.725   2.069  1.00  0.00     0.209 C 
HETATM    6  C   UNL     1      40.341 -14.344   0.934  1.00  0.00     0.115 C 
HETATM    7  N   UNL     1      41.748 -13.955   1.010  1.00  0.00    -0.353 N 
HETATM    8  C   UNL     1      42.438 -13.906   2.195  1.00  0.00     0.249 C 
HETATM    9  O   UNL     1      43.662 -13.999   2.199  1.00  0.00    -0.271 OA
HETATM   10  C   UNL     1      39.250 -12.226   1.891  1.00  0.00     0.035 C 
HETATM   11  C   UNL     1      38.639 -11.938   0.522  1.00  0.00     0.002 C 
HETATM   12  C   UNL     1      39.501 -12.499  -0.607  1.00  0.00     0.002 C 
HETATM   13  C   UNL     1      39.753 -13.998  -0.437  1.00  0.00     0.027 C 
HETATM   14  H   UNL     1      42.350 -14.201   0.226  1.00  0.00     0.163 HD
ENDROOT
BRANCH   1  15
HETATM   15  C   UNL     1      42.304 -14.281   4.685  1.00  0.00     0.146 C 
BRANCH  15  16
HETATM   16  C   UNL     1      42.184 -15.788   4.576  1.00  0.00     0.224 C 
HETATM   17  N   UNL     1      43.357 -16.427   4.262  1.00  0.00    -0.327 N 
HETATM   18  H   UNL     1      44.170 -15.858   4.048  1.00  0.00     0.169 HD
HETATM   19  O   UNL     1      41.094 -16.303   4.832  1.00  0.00    -0.273 OA
BRANCH  17  20
HETATM   20  C   UNL     1      43.564 -17.821   4.145  1.00  0.00     0.035 A 
HETATM   21  C   UNL     1      43.521 -18.521   2.936  1.00  0.00     0.036 A 
HETATM   22  C   UNL     1      43.729 -19.909   2.897  1.00  0.00    -0.060 A 
HETATM   23  C   UNL     1      43.701 -20.635   1.582  1.00  0.00     0.048 C 
HETATM   24  C   UNL     1      44.000 -20.596   4.083  1.00  0.00     0.007 A 
HETATM   25  C   UNL     1      44.044 -19.907   5.294  1.00  0.00     0.003 A 
HETATM   26  C   UNL     1      43.824 -18.528   5.324  1.00  0.00     0.029 A 
ENDBRANCH  17  20
ENDBRANCH  15  16
ENDBRANCH   1  15
TORSDOF 3
ENDMDL
MODEL 3
REMARK VINA RESULT:      -8.0      1.287      1.917
REMARK  3 active torsions:
REMARK  status: ('A' for Active; 'I' for Inactive)
REMARK    1  A    between atoms: C_4  and  N_5 
REMARK       I    between atoms: N_5  and  C_6 
REMARK    2  A    between atoms: C_6  and  C_7 
REMARK    3  A    between atoms: C_7  and  C_8 
ROOT
HETATM    1  C   UNL     1      40.744 -14.349   1.495  1.00  0.00     0.286 C 
HETATM    2  N   UNL     1      41.332 -13.944   0.145  1.00  0.00    -0.056 N 
HETATM    3  H   UNL     1      42.050 -13.218   0.361  1.00  0.00     0.278 HD
HETATM    4  H   UNL     1      41.848 -14.721  -0.284  1.00  0.00     0.278 HD
HETATM    5  C   UNL     1      40.369 -13.320  -0.822  1.00  0.00     0.209 C 
HETATM    6  C   UNL     1      39.609 -12.168  -0.123  1.00  0.00     0.115 C 
HETATM    7  N   UNL     1      39.030 -12.573   1.156  1.00  0.00    -0.353 N 
HETATM    8  C   UNL     1      39.702 -13.361   2.056  1.00  0.00     0.249 C 
HETATM    9  O   UNL     1      39.398 -13.335   3.244  1.00  0.00    -0.271 OA
HETATM   10  C   UNL     1      39.440 -14.387  -1.403  1.00  0.00     0.035 C 
HETATM   11  C   UNL     1      38.409 -13.755  -2.335  1.00  0.00     0.002 C 
HETATM   12  C   UNL     1      37.619 -12.653  -1.635  1.00  0.00     0.002 C 
HETATM   13  C   UNL     1      38.538 -11.582  -1.047  1.00  0.00     0.027 C 
HETATM   14  H   UNL     1      38.396 -11.921   1.616  1.00  0.00     0.163 HD
ENDROOT
BRANCH   1  15
HETATM   15  C   UNL     1      41.856 -14.583   2.532  1.00  0.00     0.146 C 
BRANCH  15  16
HETATM   16  C   UNL     1      41.856 -16.033   2.974  1.00  0.00     0.224 C 
HETATM   17  N   UNL     1      42.963 -16.743   2.581  1.00  0.00    -0.327 N 
HETATM   18  H   UNL     1      43.635 -16.286   1.973  1.00  0.00     0.169 HD
HETATM   19  O   UNL     1      40.925 -16.425   3.679  1.00  0.00    -0.273 OA
BRANCH  17  20
HETATM   20  C   UNL     1      43.265 -18.091   2.887  1.00  0.00     0.035 A 
HETATM   21  C   UNL     1      43.599 -18.548   4.165  1.00  0.00     0.036 A 
HETATM   22  C   UNL     1      43.895 -19.902   4.394  1.00  0.00    -0.060 A 
HETATM   23  C   UNL     1      44.228 -20.373   5.780  1.00  0.00     0.048 C 
HETATM   24  C   UNL     1      43.838 -20.805   3.329  1.00  0.00     0.007 A 
HETATM   25  C   UNL     1      43.507 -20.358   2.051  1.00  0.00     0.003 A 
HETATM   26  C   UNL     1      43.226 -19.008   1.831  1.00  0.00     0.029 A 
ENDBRANCH  17  20
ENDBRANCH  15  16
ENDBRANCH   1  15
TORSDOF 3
ENDMDL
MODEL 4
REMARK VINA RESULT:      -7.8      1.154      1.866
REMARK  3 active torsions:
REMARK  status: ('A' for Active; 'I' for Inactive)
REMARK    1  A    between atoms: C_4  and  N_5 
REMARK       I    between atoms: N_5  and  C_6 
REMARK    2  A    between atoms: C_6  and  C_7 
REMARK    3  A    between atoms: C_7  and  C_8 
ROOT
HETATM    1  C   UNL     1      40.247 -13.918   0.717  1.00  0.00     0.286 C 
HETATM    2  N   UNL     1      40.868 -13.853  -0.678  1.00  0.00    -0.056 N 
HETATM    3  H   UNL     1      41.544 -13.058  -0.644  1.00  0.00     0.278 HD
HETATM    4  H   UNL     1      41.435 -14.686  -0.871  1.00  0.00     0.278 HD
HETATM    5  C   UNL     1      39.916 -13.559  -1.800  1.00  0.00     0.209 C 
HETATM    6  C   UNL     1      39.079 -12.306  -1.451  1.00  0.00     0.115 C 
HETATM    7  N   UNL     1      38.469 -12.390  -0.125  1.00  0.00    -0.353 N 
HETATM    8  C   UNL     1      39.140 -12.875   0.968  1.00  0.00     0.249 C 
HETATM    9  O   UNL     1      38.790 -12.553   2.099  1.00  0.00    -0.271 OA
HETATM   10  C   UNL     1      39.059 -14.790  -2.099  1.00  0.00     0.035 C 
HETATM   11  C   UNL     1      38.038 -14.483  -3.192  1.00  0.00     0.002 C 
HETATM   12  C   UNL     1      37.172 -13.279  -2.830  1.00  0.00     0.002 C 
HETATM   13  C   UNL     1      38.018 -12.043  -2.524  1.00  0.00     0.027 C 
HETATM   14  H   UNL     1      37.789 -11.674   0.129  1.00  0.00     0.163 HD
ENDROOT
BRANCH   1  15
HETATM   15  C   UNL     1      41.327 -13.810   1.806  1.00  0.00     0.146 C 
BRANCH  15  16
HETATM   16  C   UNL     1      41.433 -15.119   2.564  1.00  0.00     0.224 C 
HETATM   17  N   UNL     1      42.717 -15.566   2.743  1.00  0.00    -0.327 N 
HETATM   18  H   UNL     1      43.470 -15.053   2.296  1.00  0.00     0.169 HD
HETATM   19  O   UNL     1      40.395 -15.623   2.997  1.00  0.00    -0.273 OA
BRANCH  17  20
HETATM   20  C   UNL     1      43.128 -16.720   3.451  1.00  0.00     0.035 A 
HETATM   21  C   UNL     1      43.146 -16.819   4.844  1.00  0.00     0.036 A 
HETATM   22  C   UNL     1      43.575 -17.996   5.480  1.00  0.00    -0.060 A 
HETATM   23  C   UNL     1      43.563 -18.085   6.980  1.00  0.00     0.048 C 
HETATM   24  C   UNL     1      43.972 -19.088   4.705  1.00  0.00     0.007 A 
HETATM   25  C   UNL     1      43.958 -18.999   3.314  1.00  0.00     0.003 A 
HETATM   26  C   UNL     1      43.541 -17.820   2.691  1.00  0.00     0.029 A 
ENDBRANCH  17  20
ENDBRANCH  15  16
ENDBRANCH   1  15
TORSDOF 3
ENDMDL
MODEL 5
REMARK VINA RESULT:      -7.7      5.004      7.506
REMARK  3 active torsions:
REMARK  status: ('A' for Active; 'I' for Inactive)
REMARK    1  A    between atoms: C_4  and  N_5 
REMARK       I    between atoms: N_5  and  C_6 
REMARK    2  A    between atoms: C_6  and  C_7 
REMARK    3  A    between atoms: C_7  and  C_8 
ROOT
HETATM    1  C   UNL     1      42.335 -11.351   6.152  1.00  0.00     0.286 C 
HETATM    2  N   UNL     1      43.122 -12.205   7.146  1.00  0.00    -0.056 N 
HETATM    3  H   UNL     1      42.431 -12.487   7.876  1.00  0.00     0.278 HD
HETATM    4  H   UNL     1      43.438 -13.080   6.715  1.00  0.00     0.278 HD
HETATM    5  C   UNL     1      44.240 -11.505   7.861  1.00  0.00     0.209 C 
HETATM    6  C   UNL     1      43.713 -10.188   8.479  1.00  0.00     0.115 C 
HETATM    7  N   UNL     1      42.984  -9.368   7.514  1.00  0.00    -0.353 N 
HETATM    8  C   UNL     1      42.097  -9.899   6.612  1.00  0.00     0.249 C 
HETATM    9  O   UNL     1      41.215  -9.197   6.129  1.00  0.00    -0.271 OA
HETATM   10  C   UNL     1      45.421 -11.293   6.913  1.00  0.00     0.035 C 
HETATM   11  C   UNL     1      46.539 -10.520   7.609  1.00  0.00     0.002 C 
HETATM   12  C   UNL     1      46.036  -9.194   8.174  1.00  0.00     0.002 C 
HETATM   13  C   UNL     1      44.853  -9.392   9.121  1.00  0.00     0.027 C 
HETATM   14  H   UNL     1      42.724  -8.423   7.795  1.00  0.00     0.163 HD
ENDROOT
BRANCH   1  15
HETATM   15  C   UNL     1      40.995 -12.016   5.795  1.00  0.00     0.146 C 
BRANCH  15  16
HETATM   16  C   UNL     1      41.199 -13.498   5.553  1.00  0.00     0.224 C 
HETATM   17  N   UNL     1      41.791 -13.799   4.352  1.00  0.00    -0.327 N 
HETATM   18  H   UNL     1      41.964 -13.041   3.700  1.00  0.00     0.169 HD
HETATM   19  O   UNL     1      40.884 -14.280   6.452  1.00  0.00    -0.273 OA
BRANCH  17  20
HETATM   20  C   UNL     1      42.153 -15.081   3.877  1.00  0.00     0.035 A 
HETATM   21  C   UNL     1      43.114 -15.897   4.478  1.00  0.00     0.036 A 
HETATM   22  C   UNL     1      43.427 -17.158   3.945  1.00  0.00    -0.060 A 
HETATM   23  C   UNL     1      44.448 -18.027   4.624  1.00  0.00     0.048 C 
HETATM   24  C   UNL     1      42.754 -17.607   2.806  1.00  0.00     0.007 A 
HETATM   25  C   UNL     1      41.795 -16.800   2.198  1.00  0.00     0.003 A 
HETATM   26  C   UNL     1      41.498 -15.543   2.729  1.00  0.00     0.029 A 
ENDBRANCH  17  20
ENDBRANCH  15  16
ENDBRANCH   1  15
TORSDOF 3
ENDMDL
MODEL 6
REMARK VINA RESULT:      -7.5      1.341      7.323
REMARK  3 active torsions:
REMARK  status: ('A' for Active; 'I' for Inactive)
REMARK    1  A    between atoms: C_4  and  N_5 
REMARK       I    between atoms: N_5  and  C_6 
REMARK    2  A    between atoms: C_6  and  C_7 
REMARK    3  A    between atoms: C_7  and  C_8 
ROOT
HETATM    1  C   UNL     1      42.104 -14.208   3.282  1.00  0.00     0.286 C 
HETATM    2  N   UNL     1      41.290 -15.476   3.031  1.00  0.00    -0.056 N 
HETATM    3  H   UNL     1      40.436 -15.379   3.624  1.00  0.00     0.278 HD
HETATM    4  H   UNL     1      40.950 -15.514   2.064  1.00  0.00     0.278 HD
HETATM    5  C   UNL     1      41.949 -16.763   3.436  1.00  0.00     0.209 C 
HETATM    6  C   UNL     1      42.454 -16.646   4.894  1.00  0.00     0.115 C 
HETATM    7  N   UNL     1      43.253 -15.443   5.116  1.00  0.00    -0.353 N 
HETATM    8  C   UNL     1      42.909 -14.220   4.597  1.00  0.00     0.249 C 
HETATM    9  O   UNL     1      43.322 -13.191   5.120  1.00  0.00    -0.271 OA
HETATM   10  C   UNL     1      43.054 -17.123   2.443  1.00  0.00     0.035 C 
HETATM   11  C   UNL     1      43.780 -18.393   2.882  1.00  0.00     0.002 C 
HETATM   12  C   UNL     1      44.327 -18.265   4.302  1.00  0.00     0.002 C 
HETATM   13  C   UNL     1      43.231 -17.901   5.303  1.00  0.00     0.027 C 
HETATM   14  H   UNL     1      43.742 -15.357   6.006  1.00  0.00     0.163 HD
ENDROOT
BRANCH   1  15
HETATM   15  C   UNL     1      41.210 -12.959   3.225  1.00  0.00     0.146 C 
BRANCH  15  16
HETATM   16  C   UNL     1      40.088 -13.168   2.227  1.00  0.00     0.224 C 
HETATM   17  N   UNL     1      40.471 -13.050   0.915  1.00  0.00    -0.327 N 
HETATM   18  H   UNL     1      41.422 -12.757   0.717  1.00  0.00     0.169 HD
HETATM   19  O   UNL     1      38.977 -13.478   2.661  1.00  0.00    -0.273 OA
BRANCH  17  20
HETATM   20  C   UNL     1      39.662 -13.242  -0.230  1.00  0.00     0.035 A 
HETATM   21  C   UNL     1      38.779 -12.284  -0.734  1.00  0.00     0.036 A 
HETATM   22  C   UNL     1      38.001 -12.548  -1.874  1.00  0.00    -0.060 A 
HETATM   23  C   UNL     1      37.075 -11.493  -2.410  1.00  0.00     0.048 C 
HETATM   24  C   UNL     1      38.126 -13.780  -2.519  1.00  0.00     0.007 A 
HETATM   25  C   UNL     1      39.004 -14.742  -2.023  1.00  0.00     0.003 A 
HETATM   26  C   UNL     1      39.765 -14.475  -0.883  1.00  0.00     0.029 A 
ENDBRANCH  17  20
ENDBRANCH  15  16
ENDBRANCH   1  15
TORSDOF 3
ENDMDL
MODEL 7
REMARK VINA RESULT:      -7.3      2.718      3.608
REMARK  3 active torsions:
REMARK  status: ('A' for Active; 'I' for Inactive)
REMARK    1  A    between atoms: C_4  and  N_5 
REMARK       I    between atoms: N_5  and  C_6 
REMARK    2  A    between atoms: C_6  and  C_7 
REMARK    3  A    between atoms: C_7  and  C_8 
ROOT
HETATM    1  C   UNL     1      41.129 -13.685   4.394  1.00  0.00     0.286 C 
HETATM    2  N   UNL     1      41.738 -12.737   3.362  1.00  0.00    -0.056 N 
HETATM    3  H   UNL     1      42.414 -12.145   3.894  1.00  0.00     0.278 HD
HETATM    4  H   UNL     1      42.302 -13.248   2.675  1.00  0.00     0.278 HD
HETATM    5  C   UNL     1      40.776 -11.796   2.697  1.00  0.00     0.209 C 
HETATM    6  C   UNL     1      39.943 -11.063   3.776  1.00  0.00     0.115 C 
HETATM    7  N   UNL     1      39.345 -11.981   4.743  1.00  0.00    -0.353 N 
HETATM    8  C   UNL     1      40.025 -13.052   5.265  1.00  0.00     0.249 C 
HETATM    9  O   UNL     1      39.685 -13.533   6.341  1.00  0.00    -0.271 OA
HETATM   10  C   UNL     1      39.916 -12.551   1.684  1.00  0.00     0.035 C 
HETATM   11  C   UNL     1      38.885 -11.619   1.051  1.00  0.00     0.002 C 
HETATM   12  C   UNL     1      38.024 -10.932   2.108  1.00  0.00     0.002 C 
HETATM   13  C   UNL     1      38.874 -10.177   3.130  1.00  0.00     0.027 C 
HETATM   14  H   UNL     1      38.668 -11.599   5.402  1.00  0.00     0.163 HD
ENDROOT
BRANCH   1  15
HETATM   15  C   UNL     1      42.218 -14.297   5.290  1.00  0.00     0.146 C 
BRANCH  15  16
HETATM   16  C   UNL     1      42.225 -15.805   5.143  1.00  0.00     0.224 C 
HETATM   17  N   UNL     1      43.047 -16.272   4.148  1.00  0.00    -0.327 N 
HETATM   18  H   UNL     1      43.507 -15.593   3.548  1.00  0.00     0.169 HD
HETATM   19  O   UNL     1      41.564 -16.469   5.942  1.00  0.00    -0.273 OA
BRANCH  17  20
HETATM   20  C   UNL     1      43.298 -17.623   3.812  1.00  0.00     0.035 A 
HETATM   21  C   UNL     1      43.791 -18.574   4.708  1.00  0.00     0.036 A 
HETATM   22  C   UNL     1      44.024 -19.898   4.302  1.00  0.00    -0.060 A 
HETATM   23  C   UNL     1      44.531 -20.909   5.291  1.00  0.00     0.048 C 
HETATM   24  C   UNL     1      43.742 -20.270   2.985  1.00  0.00     0.007 A 
HETATM   25  C   UNL     1      43.252 -19.328   2.083  1.00  0.00     0.003 A 
HETATM   26  C   UNL     1      43.034 -18.011   2.494  1.00  0.00     0.029 A 
ENDBRANCH  17  20
ENDBRANCH  15  16
ENDBRANCH   1  15
TORSDOF 3
ENDMDL
MODEL 8
REMARK VINA RESULT:      -7.3      1.564      2.142
REMARK  3 active torsions:
REMARK  status: ('A' for Active; 'I' for Inactive)
REMARK    1  A    between atoms: C_4  and  N_5 
REMARK       I    between atoms: N_5  and  C_6 
REMARK    2  A    between atoms: C_6  and  C_7 
REMARK    3  A    between atoms: C_7  and  C_8 
ROOT
HETATM    1  C   UNL     1      41.213 -12.738   1.064  1.00  0.00     0.286 C 
HETATM    2  N   UNL     1      40.655 -11.315   1.054  1.00  0.00    -0.056 N 
HETATM    3  H   UNL     1      39.788 -11.353   1.633  1.00  0.00     0.278 HD
HETATM    4  H   UNL     1      41.283 -10.667   1.542  1.00  0.00     0.278 HD
HETATM    5  C   UNL     1      40.251 -10.786  -0.291  1.00  0.00     0.209 C 
HETATM    6  C   UNL     1      39.320 -11.806  -0.988  1.00  0.00     0.115 C 
HETATM    7  N   UNL     1      39.874 -13.158  -0.994  1.00  0.00    -0.353 N 
HETATM    8  C   UNL     1      40.504 -13.705   0.095  1.00  0.00     0.249 C 
HETATM    9  O   UNL     1      40.573 -14.923   0.219  1.00  0.00    -0.271 OA
HETATM   10  C   UNL     1      41.491 -10.443  -1.116  1.00  0.00     0.035 C 
HETATM   11  C   UNL     1      41.095  -9.969  -2.513  1.00  0.00     0.002 C 
HETATM   12  C   UNL     1      40.219 -10.995  -3.227  1.00  0.00     0.002 C 
HETATM   13  C   UNL     1      38.977 -11.349  -2.409  1.00  0.00     0.027 C 
HETATM   14  H   UNL     1      39.395 -13.863  -1.553  1.00  0.00     0.163 HD
ENDROOT
BRANCH   1  15
HETATM   15  C   UNL     1      41.206 -13.322   2.487  1.00  0.00     0.146 C 
BRANCH  15  16
HETATM   16  C   UNL     1      42.315 -14.343   2.634  1.00  0.00     0.224 C 
HETATM   17  N   UNL     1      41.908 -15.552   3.142  1.00  0.00    -0.327 N 
HETATM   18  H   UNL     1      40.945 -15.641   3.451  1.00  0.00     0.169 HD
HETATM   19  O   UNL     1      43.442 -14.036   2.241  1.00  0.00    -0.273 OA
BRANCH  17  20
HETATM   20  C   UNL     1      42.702 -16.705   3.341  1.00  0.00     0.035 A 
HETATM   21  C   UNL     1      42.684 -17.823   2.502  1.00  0.00     0.036 A 
HETATM   22  C   UNL     1      43.495 -18.938   2.767  1.00  0.00    -0.060 A 
HETATM   23  C   UNL     1      43.475 -20.118   1.837  1.00  0.00     0.048 C 
HETATM   24  C   UNL     1      44.345 -18.920   3.876  1.00  0.00     0.007 A 
HETATM   25  C   UNL     1      44.369 -17.810   4.719  1.00  0.00     0.003 A 
HETATM   26  C   UNL     1      43.550 -16.711   4.454  1.00  0.00     0.029 A 
ENDBRANCH  17  20
ENDBRANCH  15  16
ENDBRANCH   1  15
TORSDOF 3
ENDMDL
MODEL 9
REMARK VINA RESULT:      -7.2      5.768      8.045
REMARK  3 active torsions:
REMARK  status: ('A' for Active; 'I' for Inactive)
REMARK    1  A    between atoms: C_4  and  N_5 
REMARK       I    between atoms: N_5  and  C_6 
REMARK    2  A    between atoms: C_6  and  C_7 
REMARK    3  A    between atoms: C_7  and  C_8 
ROOT
HETATM    1  C   UNL     1      41.235 -12.103   5.513  1.00  0.00     0.286 C 
HETATM    2  N   UNL     1      42.090 -12.410   4.285  1.00  0.00    -0.056 N 
HETATM    3  H   UNL     1      41.614 -11.931   3.489  1.00  0.00     0.278 HD
HETATM    4  H   UNL     1      43.014 -11.971   4.356  1.00  0.00     0.278 HD
HETATM    5  C   UNL     1      42.193 -13.860   3.912  1.00  0.00     0.209 C 
HETATM    6  C   UNL     1      40.776 -14.475   3.832  1.00  0.00     0.115 C 
HETATM    7  N   UNL     1      39.976 -14.196   5.023  1.00  0.00    -0.353 N 
HETATM    8  C   UNL     1      39.966 -12.969   5.637  1.00  0.00     0.249 C 
HETATM    9  O   UNL     1      39.013 -12.637   6.334  1.00  0.00    -0.271 OA
HETATM   10  C   UNL     1      43.112 -14.591   4.891  1.00  0.00     0.035 C 
HETATM   11  C   UNL     1      43.171 -16.082   4.565  1.00  0.00     0.002 C 
HETATM   12  C   UNL     1      41.778 -16.706   4.537  1.00  0.00     0.002 C 
HETATM   13  C   UNL     1      40.849 -15.981   3.564  1.00  0.00     0.027 C 
HETATM   14  H   UNL     1      39.083 -14.679   5.118  1.00  0.00     0.163 HD
ENDROOT
BRANCH   1  15
HETATM   15  C   UNL     1      40.860 -10.612   5.565  1.00  0.00     0.146 C 
BRANCH  15  16
HETATM   16  C   UNL     1      41.768  -9.882   6.535  1.00  0.00     0.224 C 
HETATM   17  N   UNL     1      42.436 -10.701   7.410  1.00  0.00    -0.327 N 
HETATM   18  H   UNL     1      42.216 -11.692   7.401  1.00  0.00     0.169 HD
HETATM   19  O   UNL     1      41.875  -8.660   6.421  1.00  0.00    -0.273 OA
BRANCH  17  20
HETATM   20  C   UNL     1      43.383 -10.315   8.387  1.00  0.00     0.035 A 
HETATM   21  C   UNL     1      43.055  -9.684   9.589  1.00  0.00     0.036 A 
HETATM   22  C   UNL     1      44.051  -9.321  10.511  1.00  0.00    -0.060 A 
HETATM   23  C   UNL     1      43.670  -8.664  11.807  1.00  0.00     0.048 C 
HETATM   24  C   UNL     1      45.387  -9.613  10.226  1.00  0.00     0.007 A 
HETATM   25  C   UNL     1      45.724 -10.242   9.029  1.00  0.00     0.003 A 
HETATM   26  C   UNL     1      44.728 -10.588   8.114  1.00  0.00     0.029 A 
ENDBRANCH  17  20
ENDBRANCH  15  16
ENDBRANCH   1  15
TORSDOF 3
ENDMDL
MODEL 10
REMARK VINA RESULT:      -7.2      3.290      5.178
REMARK  3 active torsions:
REMARK  status: ('A' for Active; 'I' for Inactive)
REMARK    1  A    between atoms: C_4  and  N_5 
REMARK       I    between atoms: N_5  and  C_6 
REMARK    2  A    between atoms: C_6  and  C_7 
REMARK    3  A    between atoms: C_7  and  C_8 
ROOT
HETATM    1  C   UNL     1      40.624 -13.093   4.125  1.00  0.00     0.286 C 
HETATM    2  N   UNL     1      39.487 -12.076   4.033  1.00  0.00    -0.056 N 
HETATM    3  H   UNL     1      39.554 -11.670   3.074  1.00  0.00     0.278 HD
HETATM    4  H   UNL     1      38.571 -12.537   4.073  1.00  0.00     0.278 HD
HETATM    5  C   UNL     1      39.568 -10.924   4.992  1.00  0.00     0.209 C 
HETATM    6  C   UNL     1      40.969 -10.275   4.902  1.00  0.00     0.115 C 
HETATM    7  N   UNL     1      42.049 -11.254   5.016  1.00  0.00    -0.353 N 
HETATM    8  C   UNL     1      42.010 -12.474   4.389  1.00  0.00     0.249 C 
HETATM    9  O   UNL     1      43.052 -13.075   4.148  1.00  0.00    -0.271 OA
HETATM   10  C   UNL     1      39.209 -11.388   6.404  1.00  0.00     0.035 C 
HETATM   11  C   UNL     1      39.355 -10.241   7.401  1.00  0.00     0.002 C 
HETATM   12  C   UNL     1      40.754  -9.631   7.355  1.00  0.00     0.002 C 
HETATM   13  C   UNL     1      41.125  -9.166   5.947  1.00  0.00     0.027 C 
HETATM   14  H   UNL     1      43.000 -10.901   5.108  1.00  0.00     0.163 HD
ENDROOT
BRANCH   1  15
HETATM   15  C   UNL     1      40.674 -13.977   2.867  1.00  0.00     0.146 C 
BRANCH  15  16
HETATM   16  C   UNL     1      41.041 -15.398   3.246  1.00  0.00     0.224 C 
HETATM   17  N   UNL     1      42.333 -15.748   2.942  1.00  0.00    -0.327 N 
HETATM   18  H   UNL     1      42.901 -15.084   2.426  1.00  0.00     0.169 HD
HETATM   19  O   UNL     1      40.197 -16.077   3.833  1.00  0.00    -0.273 OA
BRANCH  17  20
HETATM   20  C   UNL     1      42.971 -16.979   3.222  1.00  0.00     0.035 A 
HETATM   21  C   UNL     1      42.957 -18.081   2.364  1.00  0.00     0.036 A 
HETATM   22  C   UNL     1      43.608 -19.277   2.711  1.00  0.00    -0.060 A 
HETATM   23  C   UNL     1      43.598 -20.440   1.761  1.00  0.00     0.048 C 
HETATM   24  C   UNL     1      44.293 -19.355   3.926  1.00  0.00     0.007 A 
HETATM   25  C   UNL     1      44.312 -18.262   4.789  1.00  0.00     0.003 A 
HETATM   26  C   UNL     1      43.652 -17.081   4.440  1.00  0.00     0.029 A 
ENDBRANCH  17  20
ENDBRANCH  15  16
ENDBRANCH   1  15
TORSDOF 3
ENDMDL
