MODEL 1
REMARK VINA RESULT:      -9.0      0.000      0.000
REMARK  8 active torsions:
REMARK  status: ('A' for Active; 'I' for Inactive)
REMARK    1  A    between atoms: O_2  and  C_3 
REMARK    2  A    between atoms: C_3  and  C_4 
REMARK    3  A    between atoms: C_7  and  C_8 
REMARK    4  A    between atoms: C_8  and  N_9 
REMARK    5  A    between atoms: C_18  and  C_19 
REMARK    6  A    between atoms: C_19  and  N_20 
REMARK    7  A    between atoms: C_24  and  O_25 
REMARK    8  A    between atoms: C_24  and  C_26 
ROOT
HETATM    1  N   UNL     1      40.679 -14.864   1.052  1.00  0.00    -0.061 N 
HETATM    2  H   UNL     1      40.433 -15.848   0.893  1.00  0.00     0.280 HD
HETATM    3  C   UNL     1      39.803 -14.440   2.211  1.00  0.00     0.276 C 
HETATM    4  C   UNL     1      40.087 -13.077   2.777  1.00  0.00     0.002 A 
HETATM    5  C   UNL     1      39.961 -11.940   1.979  1.00  0.00     0.076 A 
HETATM    6  O   UNL     1      39.518 -12.029   0.689  1.00  0.00    -0.349 OA
HETATM    7  C   UNL     1      40.481 -12.634  -0.180  1.00  0.00     0.203 C 
HETATM    8  C   UNL     1      40.310 -14.157  -0.245  1.00  0.00     0.262 C 
HETATM    9  C   UNL     1      40.422 -12.911   4.133  1.00  0.00     0.020 A 
HETATM   10  C   UNL     1      40.645 -11.632   4.684  1.00  0.00    -0.032 A 
HETATM   11  C   UNL     1      40.539 -10.514   3.846  1.00  0.00     0.011 A 
HETATM   12  C   UNL     1      40.175 -10.668   2.505  1.00  0.00     0.038 A 
ENDROOT
BRANCH  10  13
HETATM   13  C   UNL     1      40.984 -11.483   6.150  1.00  0.00     0.273 C 
BRANCH  13  14
HETATM   14  N   UNL     1      42.039 -10.437   6.478  1.00  0.00    -0.067 N 
HETATM   15  H   UNL     1      42.286  -9.983   5.589  1.00  0.00     0.280 HD
HETATM   16  C   UNL     1      41.542  -9.354   7.408  1.00  0.00     0.238 C 
HETATM   17  C   UNL     1      42.649  -8.341   7.643  1.00  0.00     0.071 C 
HETATM   18  C   UNL     1      43.885  -8.987   8.299  1.00  0.00     0.089 C 
HETATM   19  C   UNL     1      44.368 -10.085   7.329  1.00  0.00     0.071 C 
HETATM   20  C   UNL     1      43.291 -11.111   7.002  1.00  0.00     0.238 C 
BRANCH  18  21
HETATM   21  O   UNL     1      44.904  -7.988   8.308  1.00  0.00    -0.385 OA
HETATM   22  H   UNL     1      44.757  -7.362   9.043  1.00  0.00     0.211 HD
ENDBRANCH  18  21
BRANCH  18  23
HETATM   23  C   UNL     1      43.624  -9.420   9.737  1.00  0.00    -0.006 A 
HETATM   24  C   UNL     1      44.109 -10.608  10.279  1.00  0.00     0.126 A 
HETATM   25  N   UNL     1      43.832 -11.056  11.522  1.00  0.00    -0.272 NA
HETATM   26  C   UNL     1      43.102 -10.254  12.323  1.00  0.00     0.116 A 
HETATM   27  C   UNL     1      42.623  -9.024  11.920  1.00  0.00     0.020 A 
HETATM   28  C   UNL     1      42.892  -8.605  10.619  1.00  0.00     0.013 A 
ENDBRANCH  18  23
ENDBRANCH  13  14
ENDBRANCH  10  13
BRANCH   1  29
HETATM   29  C   UNL     1      42.173 -14.877   1.310  1.00  0.00     0.273 C 
BRANCH  29  30
HETATM   30  C   UNL     1      42.640 -15.863   2.351  1.00  0.00    -0.033 A 
HETATM   31  C   UNL     1      42.757 -17.231   2.067  1.00  0.00     0.010 A 
HETATM   32  C   UNL     1      43.168 -18.126   3.061  1.00  0.00     0.018 A 
HETATM   33  C   UNL     1      43.490 -17.669   4.345  1.00  0.00     0.039 A 
HETATM   34  C   UNL     1      43.411 -16.300   4.622  1.00  0.00     0.018 A 
HETATM   35  C   UNL     1      42.993 -15.406   3.633  1.00  0.00     0.010 A 
BRANCH  33  36
HETATM   36  C   UNL     1      43.900 -18.670   5.369  1.00  0.00     0.292 C 
HETATM   37  O   UNL     1      43.617 -18.564   6.550  1.00  0.00    -0.259 OA
BRANCH  36  38
HETATM   38  O   UNL     1      44.644 -19.653   4.804  1.00  0.00    -0.323 OA
HETATM   39  C   UNL     1      44.231 -20.973   5.173  1.00  0.00     0.213 C 
ENDBRANCH  36  38
ENDBRANCH  33  36
ENDBRANCH  29  30
ENDBRANCH   1  29
TORSDOF 8
ENDMDL
MODEL 2
REMARK VINA RESULT:      -8.7      3.520     11.007
REMARK  8 active torsions:
REMARK  status: ('A' for Active; 'I' for Inactive)
REMARK    1  A    between atoms: O_2  and  C_3 
REMARK    2  A    between atoms: C_3  and  C_4 
REMARK    3  A    between atoms: C_7  and  C_8 
REMARK    4  A    between atoms: C_8  and  N_9 
REMARK    5  A    between atoms: C_18  and  C_19 
REMARK    6  A    between atoms: C_19  and  N_20 
REMARK    7  A    between atoms: C_24  and  O_25 
REMARK    8  A    between atoms: C_24  and  C_26 
ROOT
HETATM    1  N   UNL     1      43.575  -7.854  10.495  1.00  0.00    -0.061 N 
HETATM    2  H   UNL     1      44.248  -7.541  11.203  1.00  0.00     0.280 HD
HETATM    3  C   UNL     1      44.431  -8.436   9.391  1.00  0.00     0.276 C 
HETATM    4  C   UNL     1      43.687  -9.139   8.291  1.00  0.00     0.002 A 
HETATM    5  C   UNL     1      42.763  -8.447   7.509  1.00  0.00     0.076 A 
HETATM    6  O   UNL     1      42.558  -7.106   7.679  1.00  0.00    -0.349 OA
HETATM    7  C   UNL     1      41.873  -6.808   8.900  1.00  0.00     0.203 C 
HETATM    8  C   UNL     1      42.851  -6.586  10.060  1.00  0.00     0.262 C 
HETATM    9  C   UNL     1      43.950 -10.487   7.984  1.00  0.00     0.020 A 
HETATM   10  C   UNL     1      43.290 -11.141   6.924  1.00  0.00    -0.032 A 
HETATM   11  C   UNL     1      42.345 -10.424   6.178  1.00  0.00     0.011 A 
HETATM   12  C   UNL     1      42.102  -9.076   6.456  1.00  0.00     0.038 A 
ENDROOT
BRANCH  10  13
HETATM   13  C   UNL     1      43.607 -12.585   6.605  1.00  0.00     0.273 C 
BRANCH  13  14
HETATM   14  N   UNL     1      42.405 -13.489   6.382  1.00  0.00    -0.067 N 
HETATM   15  H   UNL     1      41.609 -13.038   6.852  1.00  0.00     0.280 HD
HETATM   16  C   UNL     1      42.031 -13.645   4.925  1.00  0.00     0.238 C 
HETATM   17  C   UNL     1      40.802 -14.528   4.810  1.00  0.00     0.071 C 
HETATM   18  C   UNL     1      41.056 -15.938   5.378  1.00  0.00     0.089 C 
HETATM   19  C   UNL     1      41.434 -15.747   6.862  1.00  0.00     0.071 C 
HETATM   20  C   UNL     1      42.629 -14.825   7.061  1.00  0.00     0.238 C 
BRANCH  18  21
HETATM   21  O   UNL     1      39.795 -16.608   5.372  1.00  0.00    -0.385 OA
HETATM   22  H   UNL     1      39.487 -16.756   6.287  1.00  0.00     0.211 HD
ENDBRANCH  18  21
BRANCH  18  23
HETATM   23  C   UNL     1      42.031 -16.744   4.529  1.00  0.00    -0.006 A 
HETATM   24  C   UNL     1      43.090 -17.475   5.064  1.00  0.00     0.126 A 
HETATM   25  N   UNL     1      44.016 -18.134   4.335  1.00  0.00    -0.272 NA
HETATM   26  C   UNL     1      43.853 -18.155   2.996  1.00  0.00     0.116 A 
HETATM   27  C   UNL     1      42.806 -17.524   2.357  1.00  0.00     0.020 A 
HETATM   28  C   UNL     1      41.888 -16.819   3.132  1.00  0.00     0.013 A 
ENDBRANCH  18  23
ENDBRANCH  13  14
ENDBRANCH  10  13
BRANCH   1  29
HETATM   29  C   UNL     1      42.670  -8.826  11.225  1.00  0.00     0.273 C 
BRANCH  29  30
HETATM   30  C   UNL     1      42.377  -8.480  12.664  1.00  0.00    -0.033 A 
HETATM   31  C   UNL     1      41.313  -9.071  13.359  1.00  0.00     0.010 A 
HETATM   32  C   UNL     1      41.049  -8.710  14.685  1.00  0.00     0.018 A 
HETATM   33  C   UNL     1      41.853  -7.772  15.344  1.00  0.00     0.039 A 
HETATM   34  C   UNL     1      42.938  -7.207  14.665  1.00  0.00     0.018 A 
HETATM   35  C   UNL     1      43.198  -7.561  13.339  1.00  0.00     0.010 A 
BRANCH  33  36
HETATM   36  C   UNL     1      41.511  -7.410  16.747  1.00  0.00     0.292 C 
HETATM   37  O   UNL     1      40.621  -7.958  17.374  1.00  0.00    -0.259 OA
BRANCH  36  38
HETATM   38  O   UNL     1      42.290  -6.388  17.180  1.00  0.00    -0.323 OA
HETATM   39  C   UNL     1      41.649  -5.538  18.136  1.00  0.00     0.213 C 
ENDBRANCH  36  38
ENDBRANCH  33  36
ENDBRANCH  29  30
ENDBRANCH   1  29
TORSDOF 8
ENDMDL
MODEL 3
REMARK VINA RESULT:      -8.7      2.414      9.437
REMARK  8 active torsions:
REMARK  status: ('A' for Active; 'I' for Inactive)
REMARK    1  A    between atoms: O_2  and  C_3 
REMARK    2  A    between atoms: C_3  and  C_4 
REMARK    3  A    between atoms: C_7  and  C_8 
REMARK    4  A    between atoms: C_8  and  N_9 
REMARK    5  A    between atoms: C_18  and  C_19 
REMARK    6  A    between atoms: C_19  and  N_20 
REMARK    7  A    between atoms: C_24  and  O_25 
REMARK    8  A    between atoms: C_24  and  C_26 
ROOT
HETATM    1  N   UNL     1      42.613 -14.544   6.429  1.00  0.00    -0.061 N 
HETATM    2  H   UNL     1      42.287 -14.133   7.311  1.00  0.00     0.280 HD
HETATM    3  C   UNL     1      41.405 -15.272   5.883  1.00  0.00     0.276 C 
HETATM    4  C   UNL     1      41.550 -15.825   4.493  1.00  0.00     0.002 A 
HETATM    5  C   UNL     1      42.528 -16.779   4.210  1.00  0.00     0.076 A 
HETATM    6  O   UNL     1      43.331 -17.280   5.196  1.00  0.00    -0.349 OA
HETATM    7  C   UNL     1      44.284 -16.320   5.666  1.00  0.00     0.203 C 
HETATM    8  C   UNL     1      43.732 -15.495   6.834  1.00  0.00     0.262 C 
HETATM    9  C   UNL     1      40.669 -15.443   3.465  1.00  0.00     0.020 A 
HETATM   10  C   UNL     1      40.769 -15.990   2.170  1.00  0.00    -0.032 A 
HETATM   11  C   UNL     1      41.782 -16.924   1.913  1.00  0.00     0.011 A 
HETATM   12  C   UNL     1      42.641 -17.333   2.937  1.00  0.00     0.038 A 
ENDROOT
BRANCH  10  13
HETATM   13  C   UNL     1      39.794 -15.576   1.090  1.00  0.00     0.273 C 
BRANCH  13  14
HETATM   14  N   UNL     1      40.355 -14.657   0.016  1.00  0.00    -0.067 N 
HETATM   15  H   UNL     1      41.282 -15.026  -0.231  1.00  0.00     0.280 HD
HETATM   16  C   UNL     1      39.531 -14.640  -1.252  1.00  0.00     0.238 C 
HETATM   17  C   UNL     1      40.189 -13.730  -2.272  1.00  0.00     0.071 C 
HETATM   18  C   UNL     1      40.288 -12.278  -1.763  1.00  0.00     0.089 C 
HETATM   19  C   UNL     1      41.133 -12.327  -0.473  1.00  0.00     0.071 C 
HETATM   20  C   UNL     1      40.562 -13.266   0.581  1.00  0.00     0.238 C 
BRANCH  18  21
HETATM   21  O   UNL     1      41.070 -11.567  -2.724  1.00  0.00    -0.385 OA
HETATM   22  H   UNL     1      42.016 -11.782  -2.615  1.00  0.00     0.211 HD
ENDBRANCH  18  21
BRANCH  18  23
HETATM   23  C   UNL     1      38.927 -11.602  -1.657  1.00  0.00    -0.006 A 
HETATM   24  C   UNL     1      37.904 -11.790  -2.584  1.00  0.00     0.126 A 
HETATM   25  N   UNL     1      36.717 -11.146  -2.561  1.00  0.00    -0.272 NA
HETATM   26  C   UNL     1      36.475 -10.327  -1.518  1.00  0.00     0.116 A 
HETATM   27  C   UNL     1      37.385 -10.112  -0.503  1.00  0.00     0.020 A 
HETATM   28  C   UNL     1      38.617 -10.759  -0.575  1.00  0.00     0.013 A 
ENDBRANCH  18  23
ENDBRANCH  13  14
ENDBRANCH  10  13
BRANCH   1  29
HETATM   29  C   UNL     1      43.110 -13.365   5.616  1.00  0.00     0.273 C 
BRANCH  29  30
HETATM   30  C   UNL     1      43.648 -12.207   6.417  1.00  0.00    -0.033 A 
HETATM   31  C   UNL     1      45.006 -12.113   6.752  1.00  0.00     0.010 A 
HETATM   32  C   UNL     1      45.471 -11.039   7.519  1.00  0.00     0.018 A 
HETATM   33  C   UNL     1      44.595 -10.034   7.948  1.00  0.00     0.039 A 
HETATM   34  C   UNL     1      43.246 -10.105   7.585  1.00  0.00     0.018 A 
HETATM   35  C   UNL     1      42.779 -11.180   6.825  1.00  0.00     0.010 A 
BRANCH  33  36
HETATM   36  C   UNL     1      45.143  -8.928   8.781  1.00  0.00     0.292 C 
HETATM   37  O   UNL     1      45.363  -7.813   8.340  1.00  0.00    -0.259 OA
BRANCH  36  38
HETATM   38  O   UNL     1      45.384  -9.357  10.045  1.00  0.00    -0.323 OA
HETATM   39  C   UNL     1      44.252  -9.255  10.915  1.00  0.00     0.213 C 
ENDBRANCH  36  38
ENDBRANCH  33  36
ENDBRANCH  29  30
ENDBRANCH   1  29
TORSDOF 8
ENDMDL
MODEL 4
REMARK VINA RESULT:      -8.7      3.510      6.731
REMARK  8 active torsions:
REMARK  status: ('A' for Active; 'I' for Inactive)
REMARK    1  A    between atoms: O_2  and  C_3 
REMARK    2  A    between atoms: C_3  and  C_4 
REMARK    3  A    between atoms: C_7  and  C_8 
REMARK    4  A    between atoms: C_8  and  N_9 
REMARK    5  A    between atoms: C_18  and  C_19 
REMARK    6  A    between atoms: C_19  and  N_20 
REMARK    7  A    between atoms: C_24  and  O_25 
REMARK    8  A    between atoms: C_24  and  C_26 
ROOT
HETATM    1  N   UNL     1      43.841 -11.449   6.371  1.00  0.00    -0.061 N 
HETATM    2  H   UNL     1      43.367 -11.501   5.463  1.00  0.00     0.280 HD
HETATM    3  C   UNL     1      43.241 -10.232   7.041  1.00  0.00     0.276 C 
HETATM    4  C   UNL     1      43.630 -10.020   8.476  1.00  0.00     0.002 A 
HETATM    5  C   UNL     1      44.967  -9.824   8.825  1.00  0.00     0.076 A 
HETATM    6  O   UNL     1      45.942  -9.757   7.870  1.00  0.00    -0.349 OA
HETATM    7  C   UNL     1      46.199 -11.027   7.261  1.00  0.00     0.203 C 
HETATM    8  C   UNL     1      45.313 -11.258   6.031  1.00  0.00     0.262 C 
HETATM    9  C   UNL     1      42.656  -9.950   9.490  1.00  0.00     0.020 A 
HETATM   10  C   UNL     1      43.009  -9.705  10.833  1.00  0.00    -0.032 A 
HETATM   11  C   UNL     1      44.364  -9.543  11.151  1.00  0.00     0.011 A 
HETATM   12  C   UNL     1      45.334  -9.579  10.146  1.00  0.00     0.038 A 
ENDROOT
BRANCH  10  13
HETATM   13  C   UNL     1      41.938  -9.615  11.897  1.00  0.00     0.273 C 
BRANCH  13  14
HETATM   14  N   UNL     1      42.329  -8.867  13.161  1.00  0.00    -0.067 N 
HETATM   15  H   UNL     1      43.171  -9.330  13.527  1.00  0.00     0.280 HD
HETATM   16  C   UNL     1      42.688  -7.418  12.917  1.00  0.00     0.238 C 
HETATM   17  C   UNL     1      43.101  -6.770  14.226  1.00  0.00     0.071 C 
HETATM   18  C   UNL     1      41.959  -6.798  15.262  1.00  0.00     0.089 C 
HETATM   19  C   UNL     1      41.615  -8.284  15.490  1.00  0.00     0.071 C 
HETATM   20  C   UNL     1      41.244  -9.017  14.209  1.00  0.00     0.238 C 
BRANCH  18  21
HETATM   21  O   UNL     1      42.516  -6.325  16.488  1.00  0.00    -0.385 OA
HETATM   22  H   UNL     1      42.178  -5.431  16.690  1.00  0.00     0.211 HD
ENDBRANCH  18  21
BRANCH  18  23
HETATM   23  C   UNL     1      40.800  -5.886  14.878  1.00  0.00    -0.006 A 
HETATM   24  C   UNL     1      40.973  -4.617  14.330  1.00  0.00     0.126 A 
HETATM   25  N   UNL     1      39.971  -3.755  14.053  1.00  0.00    -0.272 NA
HETATM   26  C   UNL     1      38.708  -4.189  14.243  1.00  0.00     0.116 A 
HETATM   27  C   UNL     1      38.410  -5.450  14.718  1.00  0.00     0.020 A 
HETATM   28  C   UNL     1      39.466  -6.303  15.033  1.00  0.00     0.013 A 
ENDBRANCH  18  23
ENDBRANCH  13  14
ENDBRANCH  10  13
BRANCH   1  29
HETATM   29  C   UNL     1      43.559 -12.784   7.030  1.00  0.00     0.273 C 
BRANCH  29  30
HETATM   30  C   UNL     1      43.451 -13.959   6.090  1.00  0.00    -0.033 A 
HETATM   31  C   UNL     1      42.925 -13.820   4.798  1.00  0.00     0.010 A 
HETATM   32  C   UNL     1      42.814 -14.933   3.958  1.00  0.00     0.018 A 
HETATM   33  C   UNL     1      43.242 -16.196   4.384  1.00  0.00     0.039 A 
HETATM   34  C   UNL     1      43.801 -16.333   5.660  1.00  0.00     0.018 A 
HETATM   35  C   UNL     1      43.907 -15.223   6.502  1.00  0.00     0.010 A 
BRANCH  33  36
HETATM   36  C   UNL     1      43.078 -17.349   3.455  1.00  0.00     0.292 C 
HETATM   37  O   UNL     1      42.289 -17.344   2.527  1.00  0.00    -0.259 OA
BRANCH  36  38
HETATM   38  O   UNL     1      43.885 -18.375   3.821  1.00  0.00    -0.323 OA
HETATM   39  C   UNL     1      43.899 -19.460   2.888  1.00  0.00     0.213 C 
ENDBRANCH  36  38
ENDBRANCH  33  36
ENDBRANCH  29  30
ENDBRANCH   1  29
TORSDOF 8
ENDMDL
MODEL 5
REMARK VINA RESULT:      -8.5      1.861      5.731
REMARK  8 active torsions:
REMARK  status: ('A' for Active; 'I' for Inactive)
REMARK    1  A    between atoms: O_2  and  C_3 
REMARK    2  A    between atoms: C_3  and  C_4 
REMARK    3  A    between atoms: C_7  and  C_8 
REMARK    4  A    between atoms: C_8  and  N_9 
REMARK    5  A    between atoms: C_18  and  C_19 
REMARK    6  A    between atoms: C_19  and  N_20 
REMARK    7  A    between atoms: C_24  and  O_25 
REMARK    8  A    between atoms: C_24  and  C_26 
ROOT
HETATM    1  N   UNL     1      42.319 -15.220   1.376  1.00  0.00    -0.061 N 
HETATM    2  H   UNL     1      42.517 -14.996   0.394  1.00  0.00     0.280 HD
HETATM    3  C   UNL     1      43.053 -14.155   2.161  1.00  0.00     0.276 C 
HETATM    4  C   UNL     1      42.787 -14.137   3.640  1.00  0.00     0.002 A 
HETATM    5  C   UNL     1      43.100 -15.245   4.428  1.00  0.00     0.076 A 
HETATM    6  O   UNL     1      43.711 -16.343   3.890  1.00  0.00    -0.349 OA
HETATM    7  C   UNL     1      42.839 -17.092   3.037  1.00  0.00     0.203 C 
HETATM    8  C   UNL     1      42.912 -16.608   1.584  1.00  0.00     0.262 C 
HETATM    9  C   UNL     1      42.279 -12.987   4.272  1.00  0.00     0.020 A 
HETATM   10  C   UNL     1      42.070 -12.946   5.666  1.00  0.00    -0.032 A 
HETATM   11  C   UNL     1      42.368 -14.087   6.422  1.00  0.00     0.011 A 
HETATM   12  C   UNL     1      42.903 -15.222   5.807  1.00  0.00     0.038 A 
ENDROOT
BRANCH  10  13
HETATM   13  C   UNL     1      41.542 -11.689   6.319  1.00  0.00     0.273 C 
BRANCH  13  14
HETATM   14  N   UNL     1      42.580 -10.622   6.627  1.00  0.00    -0.067 N 
HETATM   15  H   UNL     1      42.940 -10.293   5.722  1.00  0.00     0.280 HD
HETATM   16  C   UNL     1      42.012  -9.417   7.343  1.00  0.00     0.238 C 
HETATM   17  C   UNL     1      43.112  -8.396   7.569  1.00  0.00     0.071 C 
HETATM   18  C   UNL     1      44.247  -8.963   8.444  1.00  0.00     0.089 C 
HETATM   19  C   UNL     1      44.806 -10.187   7.690  1.00  0.00     0.071 C 
HETATM   20  C   UNL     1      43.746 -11.234   7.378  1.00  0.00     0.238 C 
BRANCH  18  21
HETATM   21  O   UNL     1      45.286  -7.984   8.441  1.00  0.00    -0.385 OA
HETATM   22  H   UNL     1      45.115  -7.312   7.753  1.00  0.00     0.211 HD
ENDBRANCH  18  21
BRANCH  18  23
HETATM   23  C   UNL     1      43.813  -9.196   9.887  1.00  0.00    -0.006 A 
HETATM   24  C   UNL     1      43.910 -10.430  10.526  1.00  0.00     0.126 A 
HETATM   25  N   UNL     1      43.464 -10.688  11.774  1.00  0.00    -0.272 NA
HETATM   26  C   UNL     1      42.964  -9.654  12.481  1.00  0.00     0.116 A 
HETATM   27  C   UNL     1      42.878  -8.372  11.978  1.00  0.00     0.020 A 
HETATM   28  C   UNL     1      43.310  -8.144  10.673  1.00  0.00     0.013 A 
ENDBRANCH  18  23
ENDBRANCH  13  14
ENDBRANCH  10  13
BRANCH   1  29
HETATM   29  C   UNL     1      40.807 -15.206   1.477  1.00  0.00     0.273 C 
BRANCH  29  30
HETATM   30  C   UNL     1      40.098 -14.367   0.445  1.00  0.00    -0.033 A 
HETATM   31  C   UNL     1      39.650 -14.914  -0.766  1.00  0.00     0.010 A 
HETATM   32  C   UNL     1      39.018 -14.104  -1.715  1.00  0.00     0.018 A 
HETATM   33  C   UNL     1      38.804 -12.743  -1.466  1.00  0.00     0.039 A 
HETATM   34  C   UNL     1      39.217 -12.200  -0.244  1.00  0.00     0.018 A 
HETATM   35  C   UNL     1      39.854 -13.006   0.703  1.00  0.00     0.010 A 
BRANCH  33  36
HETATM   36  C   UNL     1      38.147 -11.925  -2.523  1.00  0.00     0.292 C 
HETATM   37  O   UNL     1      36.937 -11.856  -2.650  1.00  0.00    -0.259 OA
BRANCH  36  38
HETATM   38  O   UNL     1      39.075 -11.329  -3.312  1.00  0.00    -0.323 OA
HETATM   39  C   UNL     1      38.957  -9.904  -3.368  1.00  0.00     0.213 C 
ENDBRANCH  36  38
ENDBRANCH  33  36
ENDBRANCH  29  30
ENDBRANCH   1  29
TORSDOF 8
ENDMDL
MODEL 6
REMARK VINA RESULT:      -8.5      2.297      3.364
REMARK  8 active torsions:
REMARK  status: ('A' for Active; 'I' for Inactive)
REMARK    1  A    between atoms: O_2  and  C_3 
REMARK    2  A    between atoms: C_3  and  C_4 
REMARK    3  A    between atoms: C_7  and  C_8 
REMARK    4  A    between atoms: C_8  and  N_9 
REMARK    5  A    between atoms: C_18  and  C_19 
REMARK    6  A    between atoms: C_19  and  N_20 
REMARK    7  A    between atoms: C_24  and  O_25 
REMARK    8  A    between atoms: C_24  and  C_26 
ROOT
HETATM    1  N   UNL     1      40.021 -13.455   4.038  1.00  0.00    -0.061 N 
HETATM    2  H   UNL     1      39.792 -14.437   4.230  1.00  0.00     0.280 HD
HETATM    3  C   UNL     1      39.629 -12.723   5.303  1.00  0.00     0.276 C 
HETATM    4  C   UNL     1      40.025 -11.275   5.367  1.00  0.00     0.002 A 
HETATM    5  C   UNL     1      39.537 -10.367   4.428  1.00  0.00     0.076 A 
HETATM    6  O   UNL     1      38.642 -10.754   3.470  1.00  0.00    -0.349 OA
HETATM    7  C   UNL     1      39.236 -11.593   2.474  1.00  0.00     0.203 C 
HETATM    8  C   UNL     1      39.144 -13.076   2.852  1.00  0.00     0.262 C 
HETATM    9  C   UNL     1      40.842 -10.792   6.406  1.00  0.00     0.020 A 
HETATM   10  C   UNL     1      41.181  -9.427   6.500  1.00  0.00    -0.032 A 
HETATM   11  C   UNL     1      40.697  -8.547   5.522  1.00  0.00     0.011 A 
HETATM   12  C   UNL     1      39.860  -9.014   4.505  1.00  0.00     0.038 A 
ENDROOT
BRANCH  10  13
HETATM   13  C   UNL     1      42.043  -8.933   7.640  1.00  0.00     0.273 C 
BRANCH  13  14
HETATM   14  N   UNL     1      41.821  -9.621   8.978  1.00  0.00    -0.067 N 
HETATM   15  H   UNL     1      41.675 -10.618   8.774  1.00  0.00     0.280 HD
HETATM   16  C   UNL     1      43.010  -9.527   9.908  1.00  0.00     0.238 C 
HETATM   17  C   UNL     1      42.708 -10.273  11.195  1.00  0.00     0.071 C 
HETATM   18  C   UNL     1      41.494  -9.674  11.931  1.00  0.00     0.089 C 
HETATM   19  C   UNL     1      40.299  -9.784  10.960  1.00  0.00     0.071 C 
HETATM   20  C   UNL     1      40.550  -9.104   9.622  1.00  0.00     0.238 C 
BRANCH  18  21
HETATM   21  O   UNL     1      41.206 -10.555  13.017  1.00  0.00    -0.385 OA
HETATM   22  H   UNL     1      41.799 -11.331  12.989  1.00  0.00     0.211 HD
ENDBRANCH  18  21
BRANCH  18  23
HETATM   23  C   UNL     1      41.779  -8.289  12.499  1.00  0.00    -0.006 A 
HETATM   24  C   UNL     1      40.989  -7.174  12.231  1.00  0.00     0.126 A 
HETATM   25  N   UNL     1      41.258  -5.920  12.655  1.00  0.00    -0.272 NA
HETATM   26  C   UNL     1      42.323  -5.754  13.465  1.00  0.00     0.116 A 
HETATM   27  C   UNL     1      43.141  -6.795  13.854  1.00  0.00     0.020 A 
HETATM   28  C   UNL     1      42.861  -8.070  13.369  1.00  0.00     0.013 A 
ENDBRANCH  18  23
ENDBRANCH  13  14
ENDBRANCH  10  13
BRANCH   1  29
HETATM   29  C   UNL     1      41.498 -13.463   3.698  1.00  0.00     0.273 C 
BRANCH  29  30
HETATM   30  C   UNL     1      42.158 -14.819   3.717  1.00  0.00    -0.033 A 
HETATM   31  C   UNL     1      41.965 -15.744   2.681  1.00  0.00     0.010 A 
HETATM   32  C   UNL     1      42.570 -17.004   2.739  1.00  0.00     0.018 A 
HETATM   33  C   UNL     1      43.392 -17.354   3.817  1.00  0.00     0.039 A 
HETATM   34  C   UNL     1      43.617 -16.420   4.834  1.00  0.00     0.018 A 
HETATM   35  C   UNL     1      43.008 -15.164   4.782  1.00  0.00     0.010 A 
BRANCH  33  36
HETATM   36  C   UNL     1      43.992 -18.718   3.836  1.00  0.00     0.292 C 
HETATM   37  O   UNL     1      44.253 -19.312   4.867  1.00  0.00    -0.259 OA
BRANCH  36  38
HETATM   38  O   UNL     1      44.227 -19.153   2.573  1.00  0.00    -0.323 OA
HETATM   39  C   UNL     1      43.668 -20.440   2.293  1.00  0.00     0.213 C 
ENDBRANCH  36  38
ENDBRANCH  33  36
ENDBRANCH  29  30
ENDBRANCH   1  29
TORSDOF 8
ENDMDL
MODEL 7
REMARK VINA RESULT:      -8.4      1.288      1.895
REMARK  8 active torsions:
REMARK  status: ('A' for Active; 'I' for Inactive)
REMARK    1  A    between atoms: O_2  and  C_3 
REMARK    2  A    between atoms: C_3  and  C_4 
REMARK    3  A    between atoms: C_7  and  C_8 
REMARK    4  A    between atoms: C_8  and  N_9 
REMARK    5  A    between atoms: C_18  and  C_19 
REMARK    6  A    between atoms: C_19  and  N_20 
REMARK    7  A    between atoms: C_24  and  O_25 
REMARK    8  A    between atoms: C_24  and  C_26 
ROOT
HETATM    1  N   UNL     1      40.457 -13.591   2.873  1.00  0.00    -0.061 N 
HETATM    2  H   UNL     1      40.033 -14.520   2.976  1.00  0.00     0.280 HD
HETATM    3  C   UNL     1      39.579 -12.682   3.705  1.00  0.00     0.276 C 
HETATM    4  C   UNL     1      40.079 -11.275   3.878  1.00  0.00     0.002 A 
HETATM    5  C   UNL     1      40.263 -10.448   2.770  1.00  0.00     0.076 A 
HETATM    6  O   UNL     1      39.936 -10.871   1.512  1.00  0.00    -0.349 OA
HETATM    7  C   UNL     1      40.834 -11.871   1.020  1.00  0.00     0.203 C 
HETATM    8  C   UNL     1      40.365 -13.285   1.384  1.00  0.00     0.262 C 
HETATM    9  C   UNL     1      40.310 -10.741   5.159  1.00  0.00     0.020 A 
HETATM   10  C   UNL     1      40.735  -9.407   5.334  1.00  0.00    -0.032 A 
HETATM   11  C   UNL     1      40.938  -8.615   4.197  1.00  0.00     0.011 A 
HETATM   12  C   UNL     1      40.679  -9.128   2.923  1.00  0.00     0.038 A 
ENDROOT
BRANCH  10  13
HETATM   13  C   UNL     1      40.956  -8.855   6.724  1.00  0.00     0.273 C 
BRANCH  13  14
HETATM   14  N   UNL     1      42.393  -8.876   7.219  1.00  0.00    -0.067 N 
HETATM   15  H   UNL     1      42.989  -8.715   6.396  1.00  0.00     0.280 HD
HETATM   16  C   UNL     1      42.704  -7.779   8.213  1.00  0.00     0.238 C 
HETATM   17  C   UNL     1      44.165  -7.858   8.615  1.00  0.00     0.071 C 
HETATM   18  C   UNL     1      44.501  -9.204   9.287  1.00  0.00     0.089 C 
HETATM   19  C   UNL     1      44.175 -10.301   8.252  1.00  0.00     0.071 C 
HETATM   20  C   UNL     1      42.736 -10.250   7.759  1.00  0.00     0.238 C 
BRANCH  18  21
HETATM   21  O   UNL     1      45.918  -9.227   9.459  1.00  0.00    -0.385 OA
HETATM   22  H   UNL     1      46.147  -9.074  10.396  1.00  0.00     0.211 HD
ENDBRANCH  18  21
BRANCH  18  23
HETATM   23  C   UNL     1      43.849  -9.352  10.658  1.00  0.00    -0.006 A 
HETATM   24  C   UNL     1      43.562 -10.584  11.240  1.00  0.00     0.126 A 
HETATM   25  N   UNL     1      42.916 -10.748  12.415  1.00  0.00    -0.272 NA
HETATM   26  C   UNL     1      42.604  -9.637  13.112  1.00  0.00     0.116 A 
HETATM   27  C   UNL     1      42.898  -8.363  12.669  1.00  0.00     0.020 A 
HETATM   28  C   UNL     1      43.529  -8.224  11.434  1.00  0.00     0.013 A 
ENDBRANCH  18  23
ENDBRANCH  13  14
ENDBRANCH  10  13
BRANCH   1  29
HETATM   29  C   UNL     1      41.885 -13.765   3.350  1.00  0.00     0.273 C 
BRANCH  29  30
HETATM   30  C   UNL     1      42.400 -15.182   3.347  1.00  0.00    -0.033 A 
HETATM   31  C   UNL     1      42.516 -15.924   4.531  1.00  0.00     0.010 A 
HETATM   32  C   UNL     1      43.022 -17.228   4.501  1.00  0.00     0.018 A 
HETATM   33  C   UNL     1      43.401 -17.820   3.289  1.00  0.00     0.039 A 
HETATM   34  C   UNL     1      43.252 -17.096   2.101  1.00  0.00     0.018 A 
HETATM   35  C   UNL     1      42.754 -15.791   2.131  1.00  0.00     0.010 A 
BRANCH  33  36
HETATM   36  C   UNL     1      43.954 -19.202   3.321  1.00  0.00     0.292 C 
HETATM   37  O   UNL     1      43.805 -19.995   2.408  1.00  0.00    -0.259 OA
BRANCH  36  38
HETATM   38  O   UNL     1      44.587 -19.436   4.497  1.00  0.00    -0.323 OA
HETATM   39  C   UNL     1      44.213 -20.670   5.118  1.00  0.00     0.213 C 
ENDBRANCH  36  38
ENDBRANCH  33  36
ENDBRANCH  29  30
ENDBRANCH   1  29
TORSDOF 8
ENDMDL
MODEL 8
REMARK VINA RESULT:      -8.4      2.737      8.823
REMARK  8 active torsions:
REMARK  status: ('A' for Active; 'I' for Inactive)
REMARK    1  A    between atoms: O_2  and  C_3 
REMARK    2  A    between atoms: C_3  and  C_4 
REMARK    3  A    between atoms: C_7  and  C_8 
REMARK    4  A    between atoms: C_8  and  N_9 
REMARK    5  A    between atoms: C_18  and  C_19 
REMARK    6  A    between atoms: C_19  and  N_20 
REMARK    7  A    between atoms: C_24  and  O_25 
REMARK    8  A    between atoms: C_24  and  C_26 
ROOT
HETATM    1  N   UNL     1      41.342  -7.728   8.132  1.00  0.00    -0.061 N 
HETATM    2  H   UNL     1      40.342  -7.556   8.287  1.00  0.00     0.280 HD
HETATM    3  C   UNL     1      41.559  -9.145   8.616  1.00  0.00     0.276 C 
HETATM    4  C   UNL     1      42.917  -9.727   8.340  1.00  0.00     0.002 A 
HETATM    5  C   UNL     1      44.062  -9.136   8.873  1.00  0.00     0.076 A 
HETATM    6  O   UNL     1      43.975  -8.057   9.708  1.00  0.00    -0.349 OA
HETATM    7  C   UNL     1      43.577  -6.865   9.021  1.00  0.00     0.203 C 
HETATM    8  C   UNL     1      42.053  -6.701   9.004  1.00  0.00     0.262 C 
HETATM    9  C   UNL     1      43.060 -10.912   7.594  1.00  0.00     0.020 A 
HETATM   10  C   UNL     1      44.325 -11.490   7.368  1.00  0.00    -0.032 A 
HETATM   11  C   UNL     1      45.457 -10.853   7.894  1.00  0.00     0.011 A 
HETATM   12  C   UNL     1      45.321  -9.694   8.663  1.00  0.00     0.038 A 
ENDROOT
BRANCH  10  13
HETATM   13  C   UNL     1      44.446 -12.775   6.580  1.00  0.00     0.273 C 
BRANCH  13  14
HETATM   14  N   UNL     1      43.140 -13.504   6.307  1.00  0.00    -0.067 N 
HETATM   15  H   UNL     1      42.389 -12.914   6.691  1.00  0.00     0.280 HD
HETATM   16  C   UNL     1      42.849 -13.689   4.834  1.00  0.00     0.238 C 
HETATM   17  C   UNL     1      41.512 -14.387   4.665  1.00  0.00     0.071 C 
HETATM   18  C   UNL     1      41.510 -15.783   5.318  1.00  0.00     0.089 C 
HETATM   19  C   UNL     1      41.807 -15.563   6.816  1.00  0.00     0.071 C 
HETATM   20  C   UNL     1      43.111 -14.817   7.064  1.00  0.00     0.238 C 
BRANCH  18  21
HETATM   21  O   UNL     1      40.166 -16.260   5.245  1.00  0.00    -0.385 OA
HETATM   22  H   UNL     1      39.893 -16.360   4.312  1.00  0.00     0.211 HD
ENDBRANCH  18  21
BRANCH  18  23
HETATM   23  C   UNL     1      42.410 -16.772   4.587  1.00  0.00    -0.006 A 
HETATM   24  C   UNL     1      43.300 -17.624   5.238  1.00  0.00     0.126 A 
HETATM   25  N   UNL     1      44.164 -18.454   4.616  1.00  0.00    -0.272 NA
HETATM   26  C   UNL     1      44.101 -18.523   3.271  1.00  0.00     0.116 A 
HETATM   27  C   UNL     1      43.215 -17.777   2.521  1.00  0.00     0.020 A 
HETATM   28  C   UNL     1      42.362 -16.900   3.187  1.00  0.00     0.013 A 
ENDBRANCH  18  23
ENDBRANCH  13  14
ENDBRANCH  10  13
BRANCH   1  29
HETATM   29  C   UNL     1      41.551  -7.486   6.651  1.00  0.00     0.273 C 
BRANCH  29  30
HETATM   30  C   UNL     1      40.840  -8.448   5.732  1.00  0.00    -0.033 A 
HETATM   31  C   UNL     1      41.541  -9.235   4.808  1.00  0.00     0.010 A 
HETATM   32  C   UNL     1      40.851 -10.099   3.950  1.00  0.00     0.018 A 
HETATM   33  C   UNL     1      39.456 -10.208   4.015  1.00  0.00     0.039 A 
HETATM   34  C   UNL     1      38.756  -9.452   4.961  1.00  0.00     0.018 A 
HETATM   35  C   UNL     1      39.443  -8.583   5.813  1.00  0.00     0.010 A 
BRANCH  33  36
HETATM   36  C   UNL     1      38.774 -11.127   3.062  1.00  0.00     0.292 C 
HETATM   37  O   UNL     1      39.010 -12.322   3.011  1.00  0.00    -0.259 OA
BRANCH  36  38
HETATM   38  O   UNL     1      37.915 -10.441   2.269  1.00  0.00    -0.323 OA
HETATM   39  C   UNL     1      37.365 -11.220   1.202  1.00  0.00     0.213 C 
ENDBRANCH  36  38
ENDBRANCH  33  36
ENDBRANCH  29  30
ENDBRANCH   1  29
TORSDOF 8
ENDMDL
MODEL 9
REMARK VINA RESULT:      -8.3      3.130      5.908
REMARK  8 active torsions:
REMARK  status: ('A' for Active; 'I' for Inactive)
REMARK    1  A    between atoms: O_2  and  C_3 
REMARK    2  A    between atoms: C_3  and  C_4 
REMARK    3  A    between atoms: C_7  and  C_8 
REMARK    4  A    between atoms: C_8  and  N_9 
REMARK    5  A    between atoms: C_18  and  C_19 
REMARK    6  A    between atoms: C_19  and  N_20 
REMARK    7  A    between atoms: C_24  and  O_25 
REMARK    8  A    between atoms: C_24  and  C_26 
ROOT
HETATM    1  N   UNL     1      43.402 -11.890   6.385  1.00  0.00    -0.061 N 
HETATM    2  H   UNL     1      42.669 -12.047   5.684  1.00  0.00     0.280 HD
HETATM    3  C   UNL     1      42.918 -10.693   7.174  1.00  0.00     0.276 C 
HETATM    4  C   UNL     1      43.724 -10.349   8.395  1.00  0.00     0.002 A 
HETATM    5  C   UNL     1      45.071 -10.005   8.279  1.00  0.00     0.076 A 
HETATM    6  O   UNL     1      45.672  -9.910   7.056  1.00  0.00    -0.349 OA
HETATM    7  C   UNL     1      45.859 -11.188   6.437  1.00  0.00     0.203 C 
HETATM    8  C   UNL     1      44.654 -11.583   5.574  1.00  0.00     0.262 C 
HETATM    9  C   UNL     1      43.128 -10.305   9.669  1.00  0.00     0.020 A 
HETATM   10  C   UNL     1      43.865  -9.938  10.814  1.00  0.00    -0.032 A 
HETATM   11  C   UNL     1      45.224  -9.628  10.664  1.00  0.00     0.011 A 
HETATM   12  C   UNL     1      45.815  -9.638   9.398  1.00  0.00     0.038 A 
ENDROOT
BRANCH  10  13
HETATM   13  C   UNL     1      43.192  -9.879  12.166  1.00  0.00     0.273 C 
BRANCH  13  14
HETATM   14  N   UNL     1      41.885  -9.104  12.217  1.00  0.00    -0.067 N 
HETATM   15  H   UNL     1      41.822  -8.697  13.160  1.00  0.00     0.280 HD
HETATM   16  C   UNL     1      41.826  -7.958  11.233  1.00  0.00     0.238 C 
HETATM   17  C   UNL     1      40.505  -7.225  11.388  1.00  0.00     0.071 C 
HETATM   18  C   UNL     1      39.304  -8.146  11.101  1.00  0.00     0.089 C 
HETATM   19  C   UNL     1      39.390  -9.303  12.118  1.00  0.00     0.071 C 
HETATM   20  C   UNL     1      40.714 -10.053  12.060  1.00  0.00     0.238 C 
BRANCH  18  21
HETATM   21  O   UNL     1      38.135  -7.402  11.444  1.00  0.00    -0.385 OA
HETATM   22  H   UNL     1      37.335  -7.864  11.126  1.00  0.00     0.211 HD
ENDBRANCH  18  21
BRANCH  18  23
HETATM   23  C   UNL     1      39.207  -8.541   9.632  1.00  0.00    -0.006 A 
HETATM   24  C   UNL     1      39.030  -9.854   9.202  1.00  0.00     0.126 A 
HETATM   25  N   UNL     1      39.019 -10.246   7.910  1.00  0.00    -0.272 NA
HETATM   26  C   UNL     1      39.100  -9.284   6.969  1.00  0.00     0.116 A 
HETATM   27  C   UNL     1      39.211  -7.943   7.273  1.00  0.00     0.020 A 
HETATM   28  C   UNL     1      39.260  -7.572   8.615  1.00  0.00     0.013 A 
ENDBRANCH  18  23
ENDBRANCH  13  14
ENDBRANCH  10  13
BRANCH   1  29
HETATM   29  C   UNL     1      43.498 -13.199   7.142  1.00  0.00     0.273 C 
BRANCH  29  30
HETATM   30  C   UNL     1      43.580 -14.437   6.285  1.00  0.00    -0.033 A 
HETATM   31  C   UNL     1      42.936 -14.514   5.042  1.00  0.00     0.010 A 
HETATM   32  C   UNL     1      43.009 -15.686   4.281  1.00  0.00     0.018 A 
HETATM   33  C   UNL     1      43.741 -16.790   4.737  1.00  0.00     0.039 A 
HETATM   34  C   UNL     1      44.415 -16.704   5.960  1.00  0.00     0.018 A 
HETATM   35  C   UNL     1      44.337 -15.537   6.724  1.00  0.00     0.010 A 
BRANCH  33  36
HETATM   36  C   UNL     1      43.764 -18.019   3.895  1.00  0.00     0.292 C 
HETATM   37  O   UNL     1      43.115 -18.132   2.870  1.00  0.00    -0.259 OA
BRANCH  36  38
HETATM   38  O   UNL     1      44.559 -18.965   4.454  1.00  0.00    -0.323 OA
HETATM   39  C   UNL     1      44.055 -20.297   4.316  1.00  0.00     0.213 C 
ENDBRANCH  36  38
ENDBRANCH  33  36
ENDBRANCH  29  30
ENDBRANCH   1  29
TORSDOF 8
ENDMDL
MODEL 10
REMARK VINA RESULT:      -8.2      2.442      8.245
REMARK  8 active torsions:
REMARK  status: ('A' for Active; 'I' for Inactive)
REMARK    1  A    between atoms: O_2  and  C_3 
REMARK    2  A    between atoms: C_3  and  C_4 
REMARK    3  A    between atoms: C_7  and  C_8 
REMARK    4  A    between atoms: C_8  and  N_9 
REMARK    5  A    between atoms: C_18  and  C_19 
REMARK    6  A    between atoms: C_19  and  N_20 
REMARK    7  A    between atoms: C_24  and  O_25 
REMARK    8  A    between atoms: C_24  and  C_26 
ROOT
HETATM    1  N   UNL     1      44.457 -12.608   6.445  1.00  0.00    -0.061 N 
HETATM    2  H   UNL     1      45.371 -13.048   6.288  1.00  0.00     0.280 HD
HETATM    3  C   UNL     1      44.122 -11.951   5.124  1.00  0.00     0.276 C 
HETATM    4  C   UNL     1      42.738 -11.376   5.015  1.00  0.00     0.002 A 
HETATM    5  C   UNL     1      42.324 -10.360   5.876  1.00  0.00     0.076 A 
HETATM    6  O   UNL     1      43.181  -9.820   6.793  1.00  0.00    -0.349 OA
HETATM    7  C   UNL     1      43.476 -10.722   7.864  1.00  0.00     0.203 C 
HETATM    8  C   UNL     1      44.700 -11.593   7.554  1.00  0.00     0.262 C 
HETATM    9  C   UNL     1      41.853 -11.802   4.006  1.00  0.00     0.020 A 
HETATM   10  C   UNL     1      40.570 -11.236   3.867  1.00  0.00    -0.032 A 
HETATM   11  C   UNL     1      40.176 -10.238   4.769  1.00  0.00     0.011 A 
HETATM   12  C   UNL     1      41.060  -9.787   5.753  1.00  0.00     0.038 A 
ENDROOT
BRANCH  10  13
HETATM   13  C   UNL     1      39.649 -11.700   2.761  1.00  0.00     0.273 C 
BRANCH  13  14
HETATM   14  N   UNL     1      40.331 -12.115   1.467  1.00  0.00    -0.067 N 
HETATM   15  H   UNL     1      41.310 -12.323   1.706  1.00  0.00     0.280 HD
HETATM   16  C   UNL     1      39.748 -13.368   0.854  1.00  0.00     0.238 C 
HETATM   17  C   UNL     1      40.519 -13.722  -0.405  1.00  0.00     0.071 C 
HETATM   18  C   UNL     1      40.431 -12.603  -1.462  1.00  0.00     0.089 C 
HETATM   19  C   UNL     1      41.032 -11.341  -0.809  1.00  0.00     0.071 C 
HETATM   20  C   UNL     1      40.344 -10.955   0.493  1.00  0.00     0.238 C 
BRANCH  18  21
HETATM   21  O   UNL     1      41.324 -12.971  -2.513  1.00  0.00    -0.385 OA
HETATM   22  H   UNL     1      40.824 -13.334  -3.269  1.00  0.00     0.211 HD
ENDBRANCH  18  21
BRANCH  18  23
HETATM   23  C   UNL     1      39.032 -12.461  -2.049  1.00  0.00    -0.006 A 
HETATM   24  C   UNL     1      38.397 -11.234  -2.227  1.00  0.00     0.126 A 
HETATM   25  N   UNL     1      37.131 -11.080  -2.671  1.00  0.00    -0.272 NA
HETATM   26  C   UNL     1      36.465 -12.190  -3.047  1.00  0.00     0.116 A 
HETATM   27  C   UNL     1      37.014 -13.455  -2.979  1.00  0.00     0.020 A 
HETATM   28  C   UNL     1      38.308 -13.587  -2.480  1.00  0.00     0.013 A 
ENDBRANCH  18  23
ENDBRANCH  13  14
ENDBRANCH  10  13
BRANCH   1  29
HETATM   29  C   UNL     1      43.552 -13.745   6.877  1.00  0.00     0.273 C 
BRANCH  29  30
HETATM   30  C   UNL     1      43.636 -14.993   6.036  1.00  0.00    -0.033 A 
HETATM   31  C   UNL     1      42.856 -15.156   4.882  1.00  0.00     0.010 A 
HETATM   32  C   UNL     1      42.936 -16.337   4.137  1.00  0.00     0.018 A 
HETATM   33  C   UNL     1      43.808 -17.364   4.516  1.00  0.00     0.039 A 
HETATM   34  C   UNL     1      44.616 -17.191   5.646  1.00  0.00     0.018 A 
HETATM   35  C   UNL     1      44.531 -16.015   6.396  1.00  0.00     0.010 A 
BRANCH  33  36
HETATM   36  C   UNL     1      43.835 -18.608   3.697  1.00  0.00     0.292 C 
HETATM   37  O   UNL     1      43.576 -18.622   2.506  1.00  0.00    -0.259 OA
BRANCH  36  38
HETATM   38  O   UNL     1      44.141 -19.680   4.468  1.00  0.00    -0.323 OA
HETATM   39  C   UNL     1      43.949 -20.937   3.811  1.00  0.00     0.213 C 
ENDBRANCH  36  38
ENDBRANCH  33  36
ENDBRANCH  29  30
ENDBRANCH   1  29
TORSDOF 8
ENDMDL
