MODEL 1
REMARK VINA RESULT:     -10.0      0.000      0.000
REMARK  9 active torsions:
REMARK  status: ('A' for Active; 'I' for Inactive)
REMARK    1  A    between atoms: O_2  and  C_3 
REMARK    2  A    between atoms: C_6  and  C_7 
REMARK    3  A    between atoms: C_8  and  C_9 
REMARK    4  A    between atoms: C_9  and  O_10 
REMARK    5  A    between atoms: O_10  and  C_11 
REMARK    6  A    between atoms: C_14  and  C_15 
REMARK    7  A    between atoms: C_17  and  O_18 
REMARK    8  A    between atoms: N_26  and  C_28 
REMARK    9  A    between atoms: C_28  and  C_29 
ROOT
HETATM    1  C   UNL     1      42.746  -9.431   8.315  1.00  0.00     0.243 C 
HETATM    2  N   UNL     1      43.971 -10.210   8.039  1.00  0.00    -0.235 NA
HETATM    3  C   UNL     1      43.882 -11.079   7.103  1.00  0.00     0.173 C 
HETATM    4  C   UNL     1      42.683 -11.397   6.367  1.00  0.00     0.057 A 
HETATM    5  C   UNL     1      41.516 -10.828   6.813  1.00  0.00     0.087 A 
HETATM    6  S   UNL     1      40.155 -11.303   5.925  1.00  0.00    -0.074 SA
HETATM    7  C   UNL     1      41.104 -12.294   4.922  1.00  0.00     0.018 A 
HETATM    8  C   UNL     1      42.453 -12.251   5.239  1.00  0.00    -0.024 A 
HETATM    9  C   UNL     1      43.459 -13.069   4.484  1.00  0.00     0.068 C 
HETATM   10  C   UNL     1      42.862 -13.692   3.203  1.00  0.00     0.240 C 
HETATM   11  N   UNL     1      41.451 -14.231   3.419  1.00  0.00    -0.063 N 
HETATM   12  H   UNL     1      41.103 -14.566   2.515  1.00  0.00     0.280 HD
HETATM   13  C   UNL     1      40.510 -13.103   3.826  1.00  0.00     0.282 C 
HETATM   14  N   UNL     1      41.486 -10.004   7.871  1.00  0.00    -0.357 N 
HETATM   15  H   UNL     1      40.652  -9.475   8.110  1.00  0.00     0.162 HD
ENDROOT
BRANCH   1  16
HETATM   16  C   UNL     1      42.586  -9.114   9.794  1.00  0.00    -0.014 A 
HETATM   17  C   UNL     1      41.333  -9.289  10.413  1.00  0.00     0.014 A 
HETATM   18  C   UNL     1      41.187  -9.141  11.794  1.00  0.00     0.038 A 
HETATM   19  C   UNL     1      42.293  -8.804  12.567  1.00  0.00     0.079 A 
HETATM   20  C   UNL     1      43.540  -8.604  11.972  1.00  0.00     0.038 A 
HETATM   21  C   UNL     1      43.686  -8.763  10.593  1.00  0.00     0.014 A 
BRANCH  19  22
HETATM   22  O   UNL     1      42.289  -8.765  13.981  1.00  0.00    -0.276 OA
BRANCH  22  23
HETATM   23  C   UNL     1      42.036  -7.632  14.743  1.00  0.00     0.288 C 
HETATM   24  O   UNL     1      42.207  -6.467  14.421  1.00  0.00    -0.260 OA
BRANCH  23  25
HETATM   25  C   UNL     1      41.415  -8.011  16.033  1.00  0.00     0.083 C 
HETATM   26  C   UNL     1      41.683  -7.409  17.202  1.00  0.00     0.017 C 
BRANCH  26  27
HETATM   27  C   UNL     1      41.134  -7.866  18.480  1.00  0.00    -0.036 A 
HETATM   28  C   UNL     1      39.755  -8.037  18.657  1.00  0.00     0.014 A 
HETATM   29  C   UNL     1      39.247  -8.561  19.852  1.00  0.00     0.037 A 
HETATM   30  C   UNL     1      40.115  -8.926  20.880  1.00  0.00     0.068 A 
HETATM   31  C   UNL     1      41.489  -8.742  20.711  1.00  0.00     0.037 A 
HETATM   32  C   UNL     1      42.000  -8.225  19.516  1.00  0.00     0.014 A 
BRANCH  30  33
HETATM   33  O   UNL     1      39.753  -9.466  22.083  1.00  0.00    -0.356 OA
HETATM   34  C   UNL     1      39.386  -8.550  23.109  1.00  0.00     0.210 C 
ENDBRANCH  30  33
ENDBRANCH  26  27
ENDBRANCH  23  25
ENDBRANCH  22  23
ENDBRANCH  19  22
ENDBRANCH   1  16
BRANCH   3  35
HETATM   35  O   UNL     1      44.983 -11.778   6.777  1.00  0.00    -0.344 OA
HETATM   36  H   UNL     1      45.744 -11.207   6.990  1.00  0.00     0.219 HD
ENDBRANCH   3  35
BRANCH  11  37
HETATM   37  C   UNL     1      41.418 -15.428   4.344  1.00  0.00     0.273 C 
BRANCH  37  38
HETATM   38  C   UNL     1      42.296 -16.566   3.899  1.00  0.00    -0.033 A 
HETATM   39  C   UNL     1      42.121 -17.167   2.643  1.00  0.00     0.009 A 
HETATM   40  C   UNL     1      42.925 -18.243   2.260  1.00  0.00     0.001 A 
HETATM   41  C   UNL     1      43.909 -18.723   3.122  1.00  0.00     0.000 A 
HETATM   42  C   UNL     1      44.097 -18.129   4.367  1.00  0.00     0.001 A 
HETATM   43  C   UNL     1      43.296 -17.056   4.756  1.00  0.00     0.009 A 
ENDBRANCH  37  38
ENDBRANCH  11  37
TORSDOF 9
ENDMDL
MODEL 2
REMARK VINA RESULT:     -10.0      2.116      3.057
REMARK  9 active torsions:
REMARK  status: ('A' for Active; 'I' for Inactive)
REMARK    1  A    between atoms: O_2  and  C_3 
REMARK    2  A    between atoms: C_6  and  C_7 
REMARK    3  A    between atoms: C_8  and  C_9 
REMARK    4  A    between atoms: C_9  and  O_10 
REMARK    5  A    between atoms: O_10  and  C_11 
REMARK    6  A    between atoms: C_14  and  C_15 
REMARK    7  A    between atoms: C_17  and  O_18 
REMARK    8  A    between atoms: N_26  and  C_28 
REMARK    9  A    between atoms: C_28  and  C_29 
ROOT
HETATM    1  C   UNL     1      41.845 -10.310   6.258  1.00  0.00     0.243 C 
HETATM    2  N   UNL     1      42.906 -10.214   5.235  1.00  0.00    -0.235 NA
HETATM    3  C   UNL     1      43.038 -11.233   4.470  1.00  0.00     0.173 C 
HETATM    4  C   UNL     1      42.296 -12.464   4.581  1.00  0.00     0.057 A 
HETATM    5  C   UNL     1      41.494 -12.605   5.686  1.00  0.00     0.087 A 
HETATM    6  S   UNL     1      40.708 -14.103   5.759  1.00  0.00    -0.074 SA
HETATM    7  C   UNL     1      41.435 -14.602   4.306  1.00  0.00     0.018 A 
HETATM    8  C   UNL     1      42.254 -13.632   3.750  1.00  0.00    -0.024 A 
HETATM    9  C   UNL     1      43.005 -13.880   2.474  1.00  0.00     0.068 C 
HETATM   10  C   UNL     1      42.535 -15.169   1.763  1.00  0.00     0.240 C 
HETATM   11  N   UNL     1      42.288 -16.317   2.737  1.00  0.00    -0.063 N 
HETATM   12  H   UNL     1      41.921 -17.109   2.200  1.00  0.00     0.280 HD
HETATM   13  C   UNL     1      41.187 -15.947   3.724  1.00  0.00     0.282 C 
HETATM   14  N   UNL     1      41.389 -11.644   6.615  1.00  0.00    -0.357 N 
HETATM   15  H   UNL     1      40.691 -11.690   7.352  1.00  0.00     0.162 HD
ENDROOT
BRANCH   1  16
HETATM   16  C   UNL     1      42.232  -9.617   7.557  1.00  0.00    -0.014 A 
HETATM   17  C   UNL     1      41.266  -8.882   8.270  1.00  0.00     0.014 A 
HETATM   18  C   UNL     1      41.551  -8.353   9.531  1.00  0.00     0.038 A 
HETATM   19  C   UNL     1      42.812  -8.546  10.084  1.00  0.00     0.079 A 
HETATM   20  C   UNL     1      43.793  -9.253   9.385  1.00  0.00     0.038 A 
HETATM   21  C   UNL     1      43.501  -9.790   8.130  1.00  0.00     0.014 A 
BRANCH  19  22
HETATM   22  O   UNL     1      43.163  -8.177  11.403  1.00  0.00    -0.276 OA
BRANCH  22  23
HETATM   23  C   UNL     1      42.896  -8.933  12.536  1.00  0.00     0.288 C 
HETATM   24  O   UNL     1      42.925 -10.149  12.643  1.00  0.00    -0.260 OA
BRANCH  23  25
HETATM   25  C   UNL     1      42.644  -8.046  13.696  1.00  0.00     0.083 C 
HETATM   26  C   UNL     1      41.860  -8.372  14.735  1.00  0.00     0.017 C 
BRANCH  26  27
HETATM   27  C   UNL     1      41.545  -7.440  15.820  1.00  0.00    -0.036 A 
HETATM   28  C   UNL     1      41.705  -6.058  15.659  1.00  0.00     0.014 A 
HETATM   29  C   UNL     1      41.315  -5.171  16.669  1.00  0.00     0.037 A 
HETATM   30  C   UNL     1      40.755  -5.658  17.850  1.00  0.00     0.068 A 
HETATM   31  C   UNL     1      40.610  -7.036  18.018  1.00  0.00     0.037 A 
HETATM   32  C   UNL     1      40.991  -7.924  17.008  1.00  0.00     0.014 A 
BRANCH  30  33
HETATM   33  O   UNL     1      40.317  -4.901  18.901  1.00  0.00    -0.356 OA
HETATM   34  C   UNL     1      40.665  -5.356  20.204  1.00  0.00     0.210 C 
ENDBRANCH  30  33
ENDBRANCH  26  27
ENDBRANCH  23  25
ENDBRANCH  22  23
ENDBRANCH  19  22
ENDBRANCH   1  16
BRANCH   3  35
HETATM   35  O   UNL     1      43.955 -11.176   3.488  1.00  0.00    -0.344 OA
HETATM   36  H   UNL     1      44.060 -10.233   3.265  1.00  0.00     0.219 HD
ENDBRANCH   3  35
BRANCH  11  37
HETATM   37  C   UNL     1      43.561 -16.814   3.388  1.00  0.00     0.273 C 
BRANCH  37  38
HETATM   38  C   UNL     1      43.657 -18.313   3.470  1.00  0.00    -0.033 A 
HETATM   39  C   UNL     1      44.073 -18.948   4.650  1.00  0.00     0.009 A 
HETATM   40  C   UNL     1      44.187 -20.339   4.698  1.00  0.00     0.001 A 
HETATM   41  C   UNL     1      43.885 -21.105   3.575  1.00  0.00     0.000 A 
HETATM   42  C   UNL     1      43.464 -20.487   2.401  1.00  0.00     0.001 A 
HETATM   43  C   UNL     1      43.350 -19.098   2.346  1.00  0.00     0.009 A 
ENDBRANCH  37  38
ENDBRANCH  11  37
TORSDOF 9
ENDMDL
MODEL 3
REMARK VINA RESULT:      -9.8      4.027     13.429
REMARK  9 active torsions:
REMARK  status: ('A' for Active; 'I' for Inactive)
REMARK    1  A    between atoms: O_2  and  C_3 
REMARK    2  A    between atoms: C_6  and  C_7 
REMARK    3  A    between atoms: C_8  and  C_9 
REMARK    4  A    between atoms: C_9  and  O_10 
REMARK    5  A    between atoms: O_10  and  C_11 
REMARK    6  A    between atoms: C_14  and  C_15 
REMARK    7  A    between atoms: C_17  and  O_18 
REMARK    8  A    between atoms: N_26  and  C_28 
REMARK    9  A    between atoms: C_28  and  C_29 
ROOT
HETATM    1  C   UNL     1      44.455  -9.622   8.690  1.00  0.00     0.243 C 
HETATM    2  N   UNL     1      44.125  -8.187   8.562  1.00  0.00    -0.235 NA
HETATM    3  C   UNL     1      43.571  -7.648   9.583  1.00  0.00     0.173 C 
HETATM    4  C   UNL     1      43.187  -8.339  10.790  1.00  0.00     0.057 A 
HETATM    5  C   UNL     1      43.291  -9.707  10.778  1.00  0.00     0.087 A 
HETATM    6  S   UNL     1      42.765 -10.434  12.214  1.00  0.00    -0.074 SA
HETATM    7  C   UNL     1      42.379  -8.922  12.886  1.00  0.00     0.018 A 
HETATM    8  C   UNL     1      42.667  -7.864  12.038  1.00  0.00    -0.024 A 
HETATM    9  C   UNL     1      42.383  -6.444  12.435  1.00  0.00     0.068 C 
HETATM   10  C   UNL     1      42.027  -6.318  13.933  1.00  0.00     0.240 C 
HETATM   11  N   UNL     1      41.113  -7.440  14.413  1.00  0.00    -0.063 N 
HETATM   12  H   UNL     1      40.977  -7.323  15.422  1.00  0.00     0.280 HD
HETATM   13  C   UNL     1      41.799  -8.791  14.249  1.00  0.00     0.282 C 
HETATM   14  N   UNL     1      43.738 -10.377   9.704  1.00  0.00    -0.357 N 
HETATM   15  H   UNL     1      43.947 -11.370   9.747  1.00  0.00     0.162 HD
ENDROOT
BRANCH   1  16
HETATM   16  C   UNL     1      44.281 -10.373   7.379  1.00  0.00    -0.014 A 
HETATM   17  C   UNL     1      43.036 -10.346   6.721  1.00  0.00     0.014 A 
HETATM   18  C   UNL     1      42.882 -10.907   5.451  1.00  0.00     0.038 A 
HETATM   19  C   UNL     1      43.972 -11.512   4.834  1.00  0.00     0.079 A 
HETATM   20  C   UNL     1      45.210 -11.569   5.477  1.00  0.00     0.038 A 
HETATM   21  C   UNL     1      45.364 -10.998   6.742  1.00  0.00     0.014 A 
BRANCH  19  22
HETATM   22  O   UNL     1      43.965 -11.985   3.501  1.00  0.00    -0.276 OA
BRANCH  22  23
HETATM   23  C   UNL     1      42.844 -12.456   2.832  1.00  0.00     0.288 C 
HETATM   24  O   UNL     1      41.960 -11.797   2.307  1.00  0.00    -0.260 OA
BRANCH  23  25
HETATM   25  C   UNL     1      42.884 -13.934   2.743  1.00  0.00     0.083 C 
HETATM   26  C   UNL     1      43.128 -14.744   3.785  1.00  0.00     0.017 C 
BRANCH  26  27
HETATM   27  C   UNL     1      43.263 -16.196   3.652  1.00  0.00    -0.036 A 
HETATM   28  C   UNL     1      42.917 -16.851   2.463  1.00  0.00     0.014 A 
HETATM   29  C   UNL     1      43.135 -18.226   2.316  1.00  0.00     0.037 A 
HETATM   30  C   UNL     1      43.708 -18.959   3.354  1.00  0.00     0.068 A 
HETATM   31  C   UNL     1      44.039 -18.310   4.546  1.00  0.00     0.037 A 
HETATM   32  C   UNL     1      43.829 -16.936   4.694  1.00  0.00     0.014 A 
BRANCH  30  33
HETATM   33  O   UNL     1      43.992 -20.297   3.331  1.00  0.00    -0.356 OA
HETATM   34  C   UNL     1      43.952 -20.979   4.579  1.00  0.00     0.210 C 
ENDBRANCH  30  33
ENDBRANCH  26  27
ENDBRANCH  23  25
ENDBRANCH  22  23
ENDBRANCH  19  22
ENDBRANCH   1  16
BRANCH   3  35
HETATM   35  O   UNL     1      43.296  -6.333   9.537  1.00  0.00    -0.344 OA
HETATM   36  H   UNL     1      42.491  -6.203  10.071  1.00  0.00     0.219 HD
ENDBRANCH   3  35
BRANCH  11  37
HETATM   37  C   UNL     1      39.731  -7.370  13.800  1.00  0.00     0.273 C 
BRANCH  37  38
HETATM   38  C   UNL     1      38.908  -6.207  14.283  1.00  0.00    -0.033 A 
HETATM   39  C   UNL     1      38.961  -5.791  15.623  1.00  0.00     0.009 A 
HETATM   40  C   UNL     1      38.166  -4.730  16.061  1.00  0.00     0.001 A 
HETATM   41  C   UNL     1      37.318  -4.075  15.169  1.00  0.00     0.000 A 
HETATM   42  C   UNL     1      37.263  -4.475  13.837  1.00  0.00     0.001 A 
HETATM   43  C   UNL     1      38.053  -5.535  13.394  1.00  0.00     0.009 A 
ENDBRANCH  37  38
ENDBRANCH  11  37
TORSDOF 9
ENDMDL
MODEL 4
REMARK VINA RESULT:      -9.5      2.234      3.416
REMARK  9 active torsions:
REMARK  status: ('A' for Active; 'I' for Inactive)
REMARK    1  A    between atoms: O_2  and  C_3 
REMARK    2  A    between atoms: C_6  and  C_7 
REMARK    3  A    between atoms: C_8  and  C_9 
REMARK    4  A    between atoms: C_9  and  O_10 
REMARK    5  A    between atoms: O_10  and  C_11 
REMARK    6  A    between atoms: C_14  and  C_15 
REMARK    7  A    between atoms: C_17  and  O_18 
REMARK    8  A    between atoms: N_26  and  C_28 
REMARK    9  A    between atoms: C_28  and  C_29 
ROOT
HETATM    1  C   UNL     1      41.414 -10.463   6.079  1.00  0.00     0.243 C 
HETATM    2  N   UNL     1      42.298 -10.252   4.914  1.00  0.00    -0.235 NA
HETATM    3  C   UNL     1      42.425 -11.249   4.121  1.00  0.00     0.173 C 
HETATM    4  C   UNL     1      41.843 -12.554   4.316  1.00  0.00     0.057 A 
HETATM    5  C   UNL     1      41.231 -12.782   5.524  1.00  0.00     0.087 A 
HETATM    6  S   UNL     1      40.629 -14.356   5.685  1.00  0.00    -0.074 SA
HETATM    7  C   UNL     1      41.184 -14.772   4.134  1.00  0.00     0.018 A 
HETATM    8  C   UNL     1      41.805 -13.718   3.481  1.00  0.00    -0.024 A 
HETATM    9  C   UNL     1      42.383 -13.883   2.106  1.00  0.00     0.068 C 
HETATM   10  C   UNL     1      41.955 -15.213   1.448  1.00  0.00     0.240 C 
HETATM   11  N   UNL     1      41.977 -16.382   2.428  1.00  0.00    -0.063 N 
HETATM   12  H   UNL     1      41.621 -17.209   1.937  1.00  0.00     0.280 HD
HETATM   13  C   UNL     1      40.999 -16.135   3.570  1.00  0.00     0.282 C 
HETATM   14  N   UNL     1      41.161 -11.839   6.475  1.00  0.00    -0.357 N 
HETATM   15  H   UNL     1      40.587 -11.961   7.304  1.00  0.00     0.162 HD
ENDROOT
BRANCH   1  16
HETATM   16  C   UNL     1      41.911  -9.734   7.319  1.00  0.00    -0.014 A 
HETATM   17  C   UNL     1      43.295  -9.605   7.543  1.00  0.00     0.014 A 
HETATM   18  C   UNL     1      43.783  -8.825   8.594  1.00  0.00     0.038 A 
HETATM   19  C   UNL     1      42.887  -8.177   9.438  1.00  0.00     0.079 A 
HETATM   20  C   UNL     1      41.510  -8.309   9.247  1.00  0.00     0.038 A 
HETATM   21  C   UNL     1      41.026  -9.080   8.189  1.00  0.00     0.014 A 
BRANCH  19  22
HETATM   22  O   UNL     1      43.269  -7.256  10.441  1.00  0.00    -0.276 OA
BRANCH  22  23
HETATM   23  C   UNL     1      42.526  -6.149  10.827  1.00  0.00     0.288 C 
HETATM   24  O   UNL     1      42.348  -5.118  10.198  1.00  0.00    -0.260 OA
BRANCH  23  25
HETATM   25  C   UNL     1      41.859  -6.405  12.125  1.00  0.00     0.083 C 
HETATM   26  C   UNL     1      42.192  -5.797  13.274  1.00  0.00     0.017 C 
BRANCH  26  27
HETATM   27  C   UNL     1      41.588  -6.141  14.563  1.00  0.00    -0.036 A 
HETATM   28  C   UNL     1      40.320  -5.663  14.919  1.00  0.00     0.014 A 
HETATM   29  C   UNL     1      39.713  -6.071  16.113  1.00  0.00     0.037 A 
HETATM   30  C   UNL     1      40.366  -6.966  16.959  1.00  0.00     0.068 A 
HETATM   31  C   UNL     1      41.636  -7.430  16.613  1.00  0.00     0.037 A 
HETATM   32  C   UNL     1      42.242  -7.030  15.418  1.00  0.00     0.014 A 
BRANCH  30  33
HETATM   33  O   UNL     1      39.877  -7.457  18.139  1.00  0.00    -0.356 OA
HETATM   34  C   UNL     1      40.469  -6.956  19.333  1.00  0.00     0.210 C 
ENDBRANCH  30  33
ENDBRANCH  26  27
ENDBRANCH  23  25
ENDBRANCH  22  23
ENDBRANCH  19  22
ENDBRANCH   1  16
BRANCH   3  35
HETATM   35  O   UNL     1      43.178 -11.093   3.017  1.00  0.00    -0.344 OA
HETATM   36  H   UNL     1      42.700 -10.462   2.447  1.00  0.00     0.219 HD
ENDBRANCH   3  35
BRANCH  11  37
HETATM   37  C   UNL     1      43.377 -16.740   2.879  1.00  0.00     0.273 C 
BRANCH  37  38
HETATM   38  C   UNL     1      43.574 -18.207   3.146  1.00  0.00    -0.033 A 
HETATM   39  C   UNL     1      43.312 -19.165   2.155  1.00  0.00     0.009 A 
HETATM   40  C   UNL     1      43.470 -20.525   2.431  1.00  0.00     0.001 A 
HETATM   41  C   UNL     1      43.894 -20.938   3.693  1.00  0.00     0.000 A 
HETATM   42  C   UNL     1      44.164 -19.996   4.682  1.00  0.00     0.001 A 
HETATM   43  C   UNL     1      44.005 -18.637   4.412  1.00  0.00     0.009 A 
ENDBRANCH  37  38
ENDBRANCH  11  37
TORSDOF 9
ENDMDL
MODEL 5
REMARK VINA RESULT:      -9.3     10.658     16.903
REMARK  9 active torsions:
REMARK  status: ('A' for Active; 'I' for Inactive)
REMARK    1  A    between atoms: O_2  and  C_3 
REMARK    2  A    between atoms: C_6  and  C_7 
REMARK    3  A    between atoms: C_8  and  C_9 
REMARK    4  A    between atoms: C_9  and  O_10 
REMARK    5  A    between atoms: O_10  and  C_11 
REMARK    6  A    between atoms: C_14  and  C_15 
REMARK    7  A    between atoms: C_17  and  O_18 
REMARK    8  A    between atoms: N_26  and  C_28 
REMARK    9  A    between atoms: C_28  and  C_29 
ROOT
HETATM    1  C   UNL     1      40.712 -10.667  -0.603  1.00  0.00     0.243 C 
HETATM    2  N   UNL     1      40.486 -11.967  -1.266  1.00  0.00    -0.235 NA
HETATM    3  C   UNL     1      40.599 -13.002  -0.521  1.00  0.00     0.173 C 
HETATM    4  C   UNL     1      40.995 -12.996   0.866  1.00  0.00     0.057 A 
HETATM    5  C   UNL     1      41.428 -11.798   1.379  1.00  0.00     0.087 A 
HETATM    6  S   UNL     1      41.925 -11.900   2.995  1.00  0.00    -0.074 SA
HETATM    7  C   UNL     1      41.576 -13.562   3.040  1.00  0.00     0.018 A 
HETATM    8  C   UNL     1      41.062 -14.041   1.845  1.00  0.00    -0.024 A 
HETATM    9  C   UNL     1      40.705 -15.488   1.671  1.00  0.00     0.068 C 
HETATM   10  C   UNL     1      40.711 -16.256   3.012  1.00  0.00     0.240 C 
HETATM   11  N   UNL     1      41.884 -15.862   3.904  1.00  0.00    -0.063 N 
HETATM   12  H   UNL     1      41.782 -16.363   4.793  1.00  0.00     0.280 HD
HETATM   13  C   UNL     1      41.808 -14.382   4.259  1.00  0.00     0.282 C 
HETATM   14  N   UNL     1      41.470 -10.681   0.638  1.00  0.00    -0.357 N 
HETATM   15  H   UNL     1      41.653  -9.773   1.054  1.00  0.00     0.162 HD
ENDROOT
BRANCH   1  16
HETATM   16  C   UNL     1      41.393  -9.662  -1.520  1.00  0.00    -0.014 A 
HETATM   17  C   UNL     1      40.901  -9.465  -2.825  1.00  0.00     0.014 A 
HETATM   18  C   UNL     1      41.414  -8.453  -3.641  1.00  0.00     0.038 A 
HETATM   19  C   UNL     1      42.433  -7.639  -3.161  1.00  0.00     0.079 A 
HETATM   20  C   UNL     1      42.952  -7.831  -1.879  1.00  0.00     0.038 A 
HETATM   21  C   UNL     1      42.430  -8.835  -1.061  1.00  0.00     0.014 A 
BRANCH  19  22
HETATM   22  O   UNL     1      42.928  -6.504  -3.845  1.00  0.00    -0.276 OA
BRANCH  22  23
HETATM   23  C   UNL     1      42.147  -5.604  -4.558  1.00  0.00     0.288 C 
HETATM   24  O   UNL     1      41.208  -4.944  -4.142  1.00  0.00    -0.260 OA
BRANCH  23  25
HETATM   25  C   UNL     1      42.665  -5.456  -5.938  1.00  0.00     0.083 C 
HETATM   26  C   UNL     1      43.598  -6.254  -6.480  1.00  0.00     0.017 C 
BRANCH  26  27
HETATM   27  C   UNL     1      44.167  -6.027  -7.810  1.00  0.00    -0.036 A 
HETATM   28  C   UNL     1      44.970  -4.910  -8.074  1.00  0.00     0.014 A 
HETATM   29  C   UNL     1      45.582  -4.750  -9.323  1.00  0.00     0.037 A 
HETATM   30  C   UNL     1      45.403  -5.710 -10.318  1.00  0.00     0.068 A 
HETATM   31  C   UNL     1      44.590  -6.816 -10.061  1.00  0.00     0.037 A 
HETATM   32  C   UNL     1      43.983  -6.982  -8.813  1.00  0.00     0.014 A 
BRANCH  30  33
HETATM   33  O   UNL     1      45.959  -5.684 -11.568  1.00  0.00    -0.356 OA
HETATM   34  C   UNL     1      46.572  -6.886 -12.019  1.00  0.00     0.210 C 
ENDBRANCH  30  33
ENDBRANCH  26  27
ENDBRANCH  23  25
ENDBRANCH  22  23
ENDBRANCH  19  22
ENDBRANCH   1  16
BRANCH   3  35
HETATM   35  O   UNL     1      40.353 -14.208  -1.064  1.00  0.00    -0.344 OA
HETATM   36  H   UNL     1      41.071 -14.372  -1.702  1.00  0.00     0.219 HD
ENDBRANCH   3  35
BRANCH  11  37
HETATM   37  C   UNL     1      43.219 -16.295   3.338  1.00  0.00     0.273 C 
BRANCH  37  38
HETATM   38  C   UNL     1      43.443 -17.782   3.374  1.00  0.00    -0.033 A 
HETATM   39  C   UNL     1      43.938 -18.411   4.527  1.00  0.00     0.009 A 
HETATM   40  C   UNL     1      44.170 -19.789   4.532  1.00  0.00     0.001 A 
HETATM   41  C   UNL     1      43.907 -20.547   3.393  1.00  0.00     0.000 A 
HETATM   42  C   UNL     1      43.409 -19.935   2.247  1.00  0.00     0.001 A 
HETATM   43  C   UNL     1      43.177 -18.559   2.235  1.00  0.00     0.009 A 
ENDBRANCH  37  38
ENDBRANCH  11  37
TORSDOF 9
ENDMDL
MODEL 6
REMARK VINA RESULT:      -9.1     10.333     13.440
REMARK  9 active torsions:
REMARK  status: ('A' for Active; 'I' for Inactive)
REMARK    1  A    between atoms: O_2  and  C_3 
REMARK    2  A    between atoms: C_6  and  C_7 
REMARK    3  A    between atoms: C_8  and  C_9 
REMARK    4  A    between atoms: C_9  and  O_10 
REMARK    5  A    between atoms: O_10  and  C_11 
REMARK    6  A    between atoms: C_14  and  C_15 
REMARK    7  A    between atoms: C_17  and  O_18 
REMARK    8  A    between atoms: N_26  and  C_28 
REMARK    9  A    between atoms: C_28  and  C_29 
ROOT
HETATM    1  C   UNL     1      39.406 -10.919  -0.915  1.00  0.00     0.243 C 
HETATM    2  N   UNL     1      38.997 -12.279  -1.323  1.00  0.00    -0.235 NA
HETATM    3  C   UNL     1      39.329 -13.225  -0.527  1.00  0.00     0.173 C 
HETATM    4  C   UNL     1      40.119 -13.073   0.670  1.00  0.00     0.057 A 
HETATM    5  C   UNL     1      40.680 -11.839   0.887  1.00  0.00     0.087 A 
HETATM    6  S   UNL     1      41.635 -11.771   2.284  1.00  0.00    -0.074 SA
HETATM    7  C   UNL     1      41.320 -13.405   2.628  1.00  0.00     0.018 A 
HETATM    8  C   UNL     1      40.476 -14.000   1.704  1.00  0.00    -0.024 A 
HETATM    9  C   UNL     1      40.088 -15.446   1.816  1.00  0.00     0.068 C 
HETATM   10  C   UNL     1      40.493 -16.054   3.177  1.00  0.00     0.240 C 
HETATM   11  N   UNL     1      41.877 -15.600   3.631  1.00  0.00    -0.063 N 
HETATM   12  H   UNL     1      42.045 -15.991   4.563  1.00  0.00     0.280 HD
HETATM   13  C   UNL     1      41.906 -14.087   3.813  1.00  0.00     0.282 C 
HETATM   14  N   UNL     1      40.498 -10.816   0.039  1.00  0.00    -0.357 N 
HETATM   15  H   UNL     1      40.794  -9.873   0.272  1.00  0.00     0.162 HD
ENDROOT
BRANCH   1  16
HETATM   16  C   UNL     1      39.781 -10.049  -2.106  1.00  0.00    -0.014 A 
HETATM   17  C   UNL     1      39.061  -8.866  -2.358  1.00  0.00     0.014 A 
HETATM   18  C   UNL     1      39.467  -7.976  -3.356  1.00  0.00     0.038 A 
HETATM   19  C   UNL     1      40.592  -8.270  -4.118  1.00  0.00     0.079 A 
HETATM   20  C   UNL     1      41.308  -9.449  -3.900  1.00  0.00     0.038 A 
HETATM   21  C   UNL     1      40.907 -10.331  -2.895  1.00  0.00     0.014 A 
BRANCH  19  22
HETATM   22  O   UNL     1      41.169  -7.381  -5.054  1.00  0.00    -0.276 OA
BRANCH  22  23
HETATM   23  C   UNL     1      42.407  -6.770  -4.909  1.00  0.00     0.288 C 
HETATM   24  O   UNL     1      43.300  -6.696  -5.739  1.00  0.00    -0.260 OA
BRANCH  23  25
HETATM   25  C   UNL     1      42.498  -6.101  -3.591  1.00  0.00     0.083 C 
HETATM   26  C   UNL     1      43.251  -6.546  -2.572  1.00  0.00     0.017 C 
BRANCH  26  27
HETATM   27  C   UNL     1      43.246  -5.925  -1.246  1.00  0.00    -0.036 A 
HETATM   28  C   UNL     1      44.340  -5.178  -0.791  1.00  0.00     0.014 A 
HETATM   29  C   UNL     1      44.289  -4.513   0.440  1.00  0.00     0.037 A 
HETATM   30  C   UNL     1      43.139  -4.583   1.225  1.00  0.00     0.068 A 
HETATM   31  C   UNL     1      42.054  -5.341   0.780  1.00  0.00     0.037 A 
HETATM   32  C   UNL     1      42.099  -6.000  -0.452  1.00  0.00     0.014 A 
BRANCH  30  33
HETATM   33  O   UNL     1      42.952  -3.967   2.432  1.00  0.00    -0.356 OA
HETATM   34  C   UNL     1      44.095  -3.358   3.021  1.00  0.00     0.210 C 
ENDBRANCH  30  33
ENDBRANCH  26  27
ENDBRANCH  23  25
ENDBRANCH  22  23
ENDBRANCH  19  22
ENDBRANCH   1  16
BRANCH   3  35
HETATM   35  O   UNL     1      38.936 -14.476  -0.825  1.00  0.00    -0.344 OA
HETATM   36  H   UNL     1      39.627 -14.849  -1.403  1.00  0.00     0.219 HD
ENDBRANCH   3  35
BRANCH  11  37
HETATM   37  C   UNL     1      42.986 -16.138   2.751  1.00  0.00     0.273 C 
BRANCH  37  38
HETATM   38  C   UNL     1      43.318 -17.583   3.006  1.00  0.00    -0.033 A 
HETATM   39  C   UNL     1      43.986 -17.977   4.175  1.00  0.00     0.009 A 
HETATM   40  C   UNL     1      44.314 -19.319   4.379  1.00  0.00     0.001 A 
HETATM   41  C   UNL     1      43.976 -20.275   3.424  1.00  0.00     0.000 A 
HETATM   42  C   UNL     1      43.307 -19.897   2.264  1.00  0.00     0.001 A 
HETATM   43  C   UNL     1      42.978 -18.558   2.053  1.00  0.00     0.009 A 
ENDBRANCH  37  38
ENDBRANCH  11  37
TORSDOF 9
ENDMDL
MODEL 7
REMARK VINA RESULT:      -9.1      4.266     14.293
REMARK  9 active torsions:
REMARK  status: ('A' for Active; 'I' for Inactive)
REMARK    1  A    between atoms: O_2  and  C_3 
REMARK    2  A    between atoms: C_6  and  C_7 
REMARK    3  A    between atoms: C_8  and  C_9 
REMARK    4  A    between atoms: C_9  and  O_10 
REMARK    5  A    between atoms: O_10  and  C_11 
REMARK    6  A    between atoms: C_14  and  C_15 
REMARK    7  A    between atoms: C_17  and  O_18 
REMARK    8  A    between atoms: N_26  and  C_28 
REMARK    9  A    between atoms: C_28  and  C_29 
ROOT
HETATM    1  C   UNL     1      43.996 -10.056   8.511  1.00  0.00     0.243 C 
HETATM    2  N   UNL     1      43.559  -8.666   8.263  1.00  0.00    -0.235 NA
HETATM    3  C   UNL     1      43.131  -8.024   9.285  1.00  0.00     0.173 C 
HETATM    4  C   UNL     1      42.978  -8.568  10.612  1.00  0.00     0.057 A 
HETATM    5  C   UNL     1      43.166  -9.921  10.750  1.00  0.00     0.087 A 
HETATM    6  S   UNL     1      42.910 -10.477  12.329  1.00  0.00    -0.074 SA
HETATM    7  C   UNL     1      42.534  -8.908  12.864  1.00  0.00     0.018 A 
HETATM    8  C   UNL     1      42.622  -7.958  11.859  1.00  0.00    -0.024 A 
HETATM    9  C   UNL     1      42.312  -6.513  12.121  1.00  0.00     0.068 C 
HETATM   10  C   UNL     1      42.178  -6.208  13.630  1.00  0.00     0.240 C 
HETATM   11  N   UNL     1      41.419  -7.298  14.380  1.00  0.00    -0.063 N 
HETATM   12  H   UNL     1      41.430  -7.057  15.376  1.00  0.00     0.280 HD
HETATM   13  C   UNL     1      42.158  -8.627  14.275  1.00  0.00     0.282 C 
HETATM   14  N   UNL     1      43.488 -10.704   9.710  1.00  0.00    -0.357 N 
HETATM   15  H   UNL     1      43.764 -11.673   9.839  1.00  0.00     0.162 HD
ENDROOT
BRANCH   1  16
HETATM   16  C   UNL     1      43.674 -10.978   7.345  1.00  0.00    -0.014 A 
HETATM   17  C   UNL     1      44.296 -12.238   7.261  1.00  0.00     0.014 A 
HETATM   18  C   UNL     1      43.919 -13.162   6.283  1.00  0.00     0.038 A 
HETATM   19  C   UNL     1      42.923 -12.826   5.372  1.00  0.00     0.079 A 
HETATM   20  C   UNL     1      42.308 -11.574   5.423  1.00  0.00     0.038 A 
HETATM   21  C   UNL     1      42.679 -10.657   6.409  1.00  0.00     0.014 A 
BRANCH  19  22
HETATM   22  O   UNL     1      42.370 -13.729   4.435  1.00  0.00    -0.276 OA
BRANCH  22  23
HETATM   23  C   UNL     1      41.047 -14.148   4.422  1.00  0.00     0.288 C 
HETATM   24  O   UNL     1      40.357 -14.462   5.379  1.00  0.00    -0.260 OA
BRANCH  23  25
HETATM   25  C   UNL     1      40.503 -14.086   3.045  1.00  0.00     0.083 C 
HETATM   26  C   UNL     1      41.261 -14.025   1.939  1.00  0.00     0.017 C 
BRANCH  26  27
HETATM   27  C   UNL     1      40.701 -13.862   0.596  1.00  0.00    -0.036 A 
HETATM   28  C   UNL     1      41.008 -12.741  -0.186  1.00  0.00     0.014 A 
HETATM   29  C   UNL     1      40.540 -12.639  -1.502  1.00  0.00     0.037 A 
HETATM   30  C   UNL     1      39.766 -13.660  -2.051  1.00  0.00     0.068 A 
HETATM   31  C   UNL     1      39.446 -14.771  -1.266  1.00  0.00     0.037 A 
HETATM   32  C   UNL     1      39.917 -14.879   0.045  1.00  0.00     0.014 A 
BRANCH  30  33
HETATM   33  O   UNL     1      39.266 -13.694  -3.323  1.00  0.00    -0.356 OA
HETATM   34  C   UNL     1      38.205 -14.610  -3.569  1.00  0.00     0.210 C 
ENDBRANCH  30  33
ENDBRANCH  26  27
ENDBRANCH  23  25
ENDBRANCH  22  23
ENDBRANCH  19  22
ENDBRANCH   1  16
BRANCH   3  35
HETATM   35  O   UNL     1      42.770  -6.739   9.124  1.00  0.00    -0.344 OA
HETATM   36  H   UNL     1      43.277  -6.406   8.360  1.00  0.00     0.219 HD
ENDBRANCH   3  35
BRANCH  11  37
HETATM   37  C   UNL     1      39.960  -7.369  13.987  1.00  0.00     0.273 C 
BRANCH  37  38
HETATM   38  C   UNL     1      39.126  -6.244  14.535  1.00  0.00    -0.033 A 
HETATM   39  C   UNL     1      38.216  -5.553  13.720  1.00  0.00     0.009 A 
HETATM   40  C   UNL     1      37.473  -4.490  14.238  1.00  0.00     0.001 A 
HETATM   41  C   UNL     1      37.629  -4.111  15.569  1.00  0.00     0.000 A 
HETATM   42  C   UNL     1      38.522  -4.793  16.390  1.00  0.00     0.001 A 
HETATM   43  C   UNL     1      39.269  -5.854  15.878  1.00  0.00     0.009 A 
ENDBRANCH  37  38
ENDBRANCH  11  37
TORSDOF 9
ENDMDL
MODEL 8
REMARK VINA RESULT:      -9.0     10.355     13.235
REMARK  9 active torsions:
REMARK  status: ('A' for Active; 'I' for Inactive)
REMARK    1  A    between atoms: O_2  and  C_3 
REMARK    2  A    between atoms: C_6  and  C_7 
REMARK    3  A    between atoms: C_8  and  C_9 
REMARK    4  A    between atoms: C_9  and  O_10 
REMARK    5  A    between atoms: O_10  and  C_11 
REMARK    6  A    between atoms: C_14  and  C_15 
REMARK    7  A    between atoms: C_17  and  O_18 
REMARK    8  A    between atoms: N_26  and  C_28 
REMARK    9  A    between atoms: C_28  and  C_29 
ROOT
HETATM    1  C   UNL     1      40.269 -10.996  -0.226  1.00  0.00     0.243 C 
HETATM    2  N   UNL     1      39.849 -12.306  -0.764  1.00  0.00    -0.235 NA
HETATM    3  C   UNL     1      40.080 -13.318  -0.015  1.00  0.00     0.173 C 
HETATM    4  C   UNL     1      40.770 -13.283   1.251  1.00  0.00     0.057 A 
HETATM    5  C   UNL     1      41.354 -12.091   1.603  1.00  0.00     0.087 A 
HETATM    6  S   UNL     1      42.188 -12.160   3.075  1.00  0.00    -0.074 SA
HETATM    7  C   UNL     1      41.789 -13.800   3.271  1.00  0.00     0.018 A 
HETATM    8  C   UNL     1      41.006 -14.293   2.239  1.00  0.00    -0.024 A 
HETATM    9  C   UNL     1      40.561 -15.726   2.214  1.00  0.00     0.068 C 
HETATM   10  C   UNL     1      40.828 -16.445   3.555  1.00  0.00     0.240 C 
HETATM   11  N   UNL     1      42.184 -16.080   4.152  1.00  0.00    -0.063 N 
HETATM   12  H   UNL     1      42.258 -16.542   5.064  1.00  0.00     0.280 HD
HETATM   13  C   UNL     1      42.249 -14.586   4.446  1.00  0.00     0.282 C 
HETATM   14  N   UNL     1      41.279 -11.004   0.819  1.00  0.00    -0.357 N 
HETATM   15  H   UNL     1      41.586 -10.092   1.145  1.00  0.00     0.162 HD
ENDROOT
BRANCH   1  16
HETATM   16  C   UNL     1      40.773 -10.060  -1.314  1.00  0.00    -0.014 A 
HETATM   17  C   UNL     1      39.919  -9.700  -2.374  1.00  0.00     0.014 A 
HETATM   18  C   UNL     1      40.302  -8.737  -3.311  1.00  0.00     0.038 A 
HETATM   19  C   UNL     1      41.550  -8.134  -3.200  1.00  0.00     0.079 A 
HETATM   20  C   UNL     1      42.422  -8.492  -2.170  1.00  0.00     0.038 A 
HETATM   21  C   UNL     1      42.032  -9.447  -1.229  1.00  0.00     0.014 A 
BRANCH  19  22
HETATM   22  O   UNL     1      41.983  -7.055  -4.006  1.00  0.00    -0.276 OA
BRANCH  22  23
HETATM   23  C   UNL     1      41.805  -5.714  -3.697  1.00  0.00     0.288 C 
HETATM   24  O   UNL     1      40.926  -4.968  -4.099  1.00  0.00    -0.260 OA
BRANCH  23  25
HETATM   25  C   UNL     1      42.808  -5.281  -2.696  1.00  0.00     0.083 C 
HETATM   26  C   UNL     1      42.499  -4.753  -1.501  1.00  0.00     0.017 C 
BRANCH  26  27
HETATM   27  C   UNL     1      43.507  -4.240  -0.571  1.00  0.00    -0.036 A 
HETATM   28  C   UNL     1      43.552  -4.672   0.761  1.00  0.00     0.014 A 
HETATM   29  C   UNL     1      44.575  -4.244   1.616  1.00  0.00     0.037 A 
HETATM   30  C   UNL     1      45.567  -3.385   1.146  1.00  0.00     0.068 A 
HETATM   31  C   UNL     1      45.514  -2.941  -0.177  1.00  0.00     0.037 A 
HETATM   32  C   UNL     1      44.499  -3.372  -1.036  1.00  0.00     0.014 A 
BRANCH  30  33
HETATM   33  O   UNL     1      46.627  -2.911   1.868  1.00  0.00    -0.356 OA
HETATM   34  C   UNL     1      47.237  -1.715   1.397  1.00  0.00     0.210 C 
ENDBRANCH  30  33
ENDBRANCH  26  27
ENDBRANCH  23  25
ENDBRANCH  22  23
ENDBRANCH  19  22
ENDBRANCH   1  16
BRANCH   3  35
HETATM   35  O   UNL     1      39.671 -14.528  -0.435  1.00  0.00    -0.344 OA
HETATM   36  H   UNL     1      38.816 -14.388  -0.882  1.00  0.00     0.219 HD
ENDBRANCH   3  35
BRANCH  11  37
HETATM   37  C   UNL     1      43.343 -16.599   3.330  1.00  0.00     0.273 C 
BRANCH  37  38
HETATM   38  C   UNL     1      43.491 -18.096   3.362  1.00  0.00    -0.033 A 
HETATM   39  C   UNL     1      43.996 -18.749   4.497  1.00  0.00     0.009 A 
HETATM   40  C   UNL     1      44.156 -20.136   4.497  1.00  0.00     0.001 A 
HETATM   41  C   UNL     1      43.810 -20.881   3.372  1.00  0.00     0.000 A 
HETATM   42  C   UNL     1      43.301 -20.245   2.243  1.00  0.00     0.001 A 
HETATM   43  C   UNL     1      43.141 -18.859   2.236  1.00  0.00     0.009 A 
ENDBRANCH  37  38
ENDBRANCH  11  37
TORSDOF 9
ENDMDL
MODEL 9
REMARK VINA RESULT:      -8.9      8.024     12.214
REMARK  9 active torsions:
REMARK  status: ('A' for Active; 'I' for Inactive)
REMARK    1  A    between atoms: O_2  and  C_3 
REMARK    2  A    between atoms: C_6  and  C_7 
REMARK    3  A    between atoms: C_8  and  C_9 
REMARK    4  A    between atoms: C_9  and  O_10 
REMARK    5  A    between atoms: O_10  and  C_11 
REMARK    6  A    between atoms: C_14  and  C_15 
REMARK    7  A    between atoms: C_17  and  O_18 
REMARK    8  A    between atoms: N_26  and  C_28 
REMARK    9  A    between atoms: C_28  and  C_29 
ROOT
HETATM    1  C   UNL     1      40.602 -13.806   0.770  1.00  0.00     0.243 C 
HETATM    2  N   UNL     1      40.739 -12.635   1.660  1.00  0.00    -0.235 NA
HETATM    3  C   UNL     1      40.761 -11.493   1.082  1.00  0.00     0.173 C 
HETATM    4  C   UNL     1      40.738 -11.275  -0.344  1.00  0.00     0.057 A 
HETATM    5  C   UNL     1      40.853 -12.388  -1.140  1.00  0.00     0.087 A 
HETATM    6  S   UNL     1      40.874 -12.031  -2.795  1.00  0.00    -0.074 SA
HETATM    7  C   UNL     1      40.735 -10.367  -2.479  1.00  0.00     0.018 A 
HETATM    8  C   UNL     1      40.649 -10.078  -1.127  1.00  0.00    -0.024 A 
HETATM    9  C   UNL     1      40.539  -8.664  -0.635  1.00  0.00     0.068 C 
HETATM   10  C   UNL     1      40.255  -7.668  -1.781  1.00  0.00     0.240 C 
HETATM   11  N   UNL     1      41.064  -7.977  -3.037  1.00  0.00    -0.063 N 
HETATM   12  H   UNL     1      40.774  -7.318  -3.766  1.00  0.00     0.280 HD
HETATM   13  C   UNL     1      40.707  -9.359  -3.572  1.00  0.00     0.282 C 
HETATM   14  N   UNL     1      40.968 -13.622  -0.625  1.00  0.00    -0.357 N 
HETATM   15  H   UNL     1      40.909 -14.450  -1.210  1.00  0.00     0.162 HD
ENDROOT
BRANCH   1  16
HETATM   16  C   UNL     1      41.388 -15.008   1.273  1.00  0.00    -0.014 A 
HETATM   17  C   UNL     1      42.795 -14.987   1.234  1.00  0.00     0.014 A 
HETATM   18  C   UNL     1      43.546 -16.012   1.815  1.00  0.00     0.038 A 
HETATM   19  C   UNL     1      42.892 -17.074   2.430  1.00  0.00     0.079 A 
HETATM   20  C   UNL     1      41.498 -17.126   2.462  1.00  0.00     0.038 A 
HETATM   21  C   UNL     1      40.750 -16.095   1.890  1.00  0.00     0.014 A 
BRANCH  19  22
HETATM   22  O   UNL     1      43.548 -18.088   3.166  1.00  0.00    -0.276 OA
BRANCH  22  23
HETATM   23  C   UNL     1      43.866 -18.010   4.515  1.00  0.00     0.288 C 
HETATM   24  O   UNL     1      44.164 -18.929   5.262  1.00  0.00    -0.260 OA
BRANCH  23  25
HETATM   25  C   UNL     1      43.891 -16.596   4.955  1.00  0.00     0.083 C 
HETATM   26  C   UNL     1      42.854 -15.970   5.533  1.00  0.00     0.017 C 
BRANCH  26  27
HETATM   27  C   UNL     1      42.869 -14.544   5.868  1.00  0.00    -0.036 A 
HETATM   28  C   UNL     1      43.758 -14.032   6.822  1.00  0.00     0.014 A 
HETATM   29  C   UNL     1      43.826 -12.656   7.068  1.00  0.00     0.037 A 
HETATM   30  C   UNL     1      43.011 -11.777   6.357  1.00  0.00     0.068 A 
HETATM   31  C   UNL     1      42.113 -12.287   5.417  1.00  0.00     0.037 A 
HETATM   32  C   UNL     1      42.047 -13.661   5.164  1.00  0.00     0.014 A 
BRANCH  30  33
HETATM   33  O   UNL     1      42.993 -10.415   6.486  1.00  0.00    -0.356 OA
HETATM   34  C   UNL     1      42.027  -9.713   5.713  1.00  0.00     0.210 C 
ENDBRANCH  30  33
ENDBRANCH  26  27
ENDBRANCH  23  25
ENDBRANCH  22  23
ENDBRANCH  19  22
ENDBRANCH   1  16
BRANCH   3  35
HETATM   35  O   UNL     1      40.832 -10.391   1.850  1.00  0.00    -0.344 OA
HETATM   36  H   UNL     1      41.692 -10.432   2.308  1.00  0.00     0.219 HD
ENDBRANCH   3  35
BRANCH  11  37
HETATM   37  C   UNL     1      42.548  -7.753  -2.845  1.00  0.00     0.273 C 
BRANCH  37  38
HETATM   38  C   UNL     1      42.897  -6.377  -2.348  1.00  0.00    -0.033 A 
HETATM   39  C   UNL     1      43.930  -6.184  -1.418  1.00  0.00     0.009 A 
HETATM   40  C   UNL     1      44.219  -4.902  -0.944  1.00  0.00     0.001 A 
HETATM   41  C   UNL     1      43.486  -3.807  -1.396  1.00  0.00     0.000 A 
HETATM   42  C   UNL     1      42.465  -3.985  -2.324  1.00  0.00     0.001 A 
HETATM   43  C   UNL     1      42.170  -5.263  -2.799  1.00  0.00     0.009 A 
ENDBRANCH  37  38
ENDBRANCH  11  37
TORSDOF 9
ENDMDL
MODEL 10
REMARK VINA RESULT:      -8.8     19.248     22.131
REMARK  9 active torsions:
REMARK  status: ('A' for Active; 'I' for Inactive)
REMARK    1  A    between atoms: O_2  and  C_3 
REMARK    2  A    between atoms: C_6  and  C_7 
REMARK    3  A    between atoms: C_8  and  C_9 
REMARK    4  A    between atoms: C_9  and  O_10 
REMARK    5  A    between atoms: O_10  and  C_11 
REMARK    6  A    between atoms: C_14  and  C_15 
REMARK    7  A    between atoms: C_17  and  O_18 
REMARK    8  A    between atoms: N_26  and  C_28 
REMARK    9  A    between atoms: C_28  and  C_29 
ROOT
HETATM    1  C   UNL     1      41.343 -31.661   1.414  1.00  0.00     0.243 C 
HETATM    2  N   UNL     1      41.527 -30.220   1.688  1.00  0.00    -0.235 NA
HETATM    3  C   UNL     1      42.507 -29.658   1.085  1.00  0.00     0.173 C 
HETATM    4  C   UNL     1      43.464 -30.327   0.238  1.00  0.00     0.057 A 
HETATM    5  C   UNL     1      43.403 -31.698   0.200  1.00  0.00     0.087 A 
HETATM    6  S   UNL     1      44.599 -32.397  -0.773  1.00  0.00    -0.074 SA
HETATM    7  C   UNL     1      45.233 -30.869  -1.162  1.00  0.00     0.018 A 
HETATM    8  C   UNL     1      44.530 -29.827  -0.579  1.00  0.00    -0.024 A 
HETATM    9  C   UNL     1      44.940 -28.398  -0.782  1.00  0.00     0.068 C 
HETATM   10  C   UNL     1      45.999 -28.247  -1.897  1.00  0.00     0.240 C 
HETATM   11  N   UNL     1      47.059 -29.343  -1.847  1.00  0.00    -0.063 N 
HETATM   12  H   UNL     1      47.682 -29.213  -2.650  1.00  0.00     0.280 HD
HETATM   13  C   UNL     1      46.418 -30.711  -2.047  1.00  0.00     0.282 C 
HETATM   14  N   UNL     1      42.493 -32.389   0.903  1.00  0.00    -0.357 N 
HETATM   15  H   UNL     1      42.358 -33.386   0.764  1.00  0.00     0.162 HD
ENDROOT
BRANCH   1  16
HETATM   16  C   UNL     1      40.851 -32.421   2.637  1.00  0.00    -0.014 A 
HETATM   17  C   UNL     1      41.773 -32.836   3.617  1.00  0.00     0.014 A 
HETATM   18  C   UNL     1      41.340 -33.411   4.814  1.00  0.00     0.038 A 
HETATM   19  C   UNL     1      39.978 -33.587   5.035  1.00  0.00     0.079 A 
HETATM   20  C   UNL     1      39.047 -33.204   4.068  1.00  0.00     0.038 A 
HETATM   21  C   UNL     1      39.483 -32.619   2.877  1.00  0.00     0.014 A 
BRANCH  19  22
HETATM   22  O   UNL     1      39.425 -34.028   6.259  1.00  0.00    -0.276 OA
BRANCH  22  23
HETATM   23  C   UNL     1      38.684 -33.237   7.126  1.00  0.00     0.288 C 
HETATM   24  O   UNL     1      37.468 -33.142   7.190  1.00  0.00    -0.260 OA
BRANCH  23  25
HETATM   25  C   UNL     1      39.579 -32.544   8.082  1.00  0.00     0.083 C 
HETATM   26  C   UNL     1      40.271 -33.166   9.050  1.00  0.00     0.017 C 
BRANCH  26  27
HETATM   27  C   UNL     1      41.070 -32.449  10.045  1.00  0.00    -0.036 A 
HETATM   28  C   UNL     1      41.097 -32.858  11.385  1.00  0.00     0.014 A 
HETATM   29  C   UNL     1      41.934 -32.222  12.309  1.00  0.00     0.037 A 
HETATM   30  C   UNL     1      42.759 -31.174  11.901  1.00  0.00     0.068 A 
HETATM   31  C   UNL     1      42.721 -30.755  10.569  1.00  0.00     0.037 A 
HETATM   32  C   UNL     1      41.891 -31.393   9.642  1.00  0.00     0.014 A 
BRANCH  30  33
HETATM   33  O   UNL     1      43.634 -30.485  12.694  1.00  0.00    -0.356 OA
HETATM   34  C   UNL     1      43.412 -29.085  12.824  1.00  0.00     0.210 C 
ENDBRANCH  30  33
ENDBRANCH  26  27
ENDBRANCH  23  25
ENDBRANCH  22  23
ENDBRANCH  19  22
ENDBRANCH   1  16
BRANCH   3  35
HETATM   35  O   UNL     1      42.687 -28.337   1.259  1.00  0.00    -0.344 OA
HETATM   36  H   UNL     1      43.264 -28.042   0.530  1.00  0.00     0.219 HD
ENDBRANCH   3  35
BRANCH  11  37
HETATM   37  C   UNL     1      47.940 -29.247  -0.620  1.00  0.00     0.273 C 
BRANCH  37  38
HETATM   38  C   UNL     1      49.270 -29.934  -0.770  1.00  0.00    -0.033 A 
HETATM   39  C   UNL     1      49.914 -30.001  -2.015  1.00  0.00     0.009 A 
HETATM   40  C   UNL     1      51.133 -30.671  -2.142  1.00  0.00     0.001 A 
HETATM   41  C   UNL     1      51.719 -31.273  -1.031  1.00  0.00     0.000 A 
HETATM   42  C   UNL     1      51.094 -31.207   0.211  1.00  0.00     0.001 A 
HETATM   43  C   UNL     1      49.875 -30.542   0.343  1.00  0.00     0.009 A 
ENDBRANCH  37  38
ENDBRANCH  11  37
TORSDOF 9
ENDMDL
