MODEL 1
REMARK VINA RESULT:     -10.3      0.000      0.000
REMARK  11 active torsions:
REMARK  status: ('A' for Active; 'I' for Inactive)
REMARK    1  A    between atoms: C_2  and  C_3 
REMARK    2  A    between atoms: C_3  and  C_4 
REMARK       I    between atoms: C_4  and  N_6 
REMARK    3  A    between atoms: N_6  and  C_7 
REMARK    4  A    between atoms: C_11  and  C_13 
REMARK    5  A    between atoms: C_15  and  N_16 
REMARK    6  A    between atoms: N_16  and  C_17 
REMARK    7  A    between atoms: C_29  and  O_30 
REMARK    8  A    between atoms: O_30  and  C_31 
REMARK    9  A    between atoms: C_31  and  C_32 
REMARK   10  A    between atoms: C_32  and  N_33 
REMARK   11  A    between atoms: C_41  and  O_42 
ROOT
HETATM    1  C   UNL     1      43.669 -11.830   5.602  1.00  0.00     0.162 A 
HETATM    2  N   UNL     1      43.262 -13.097   5.763  1.00  0.00    -0.215 NA
HETATM    3  C   UNL     1      42.483 -13.634   4.815  1.00  0.00     0.122 A 
HETATM    4  C   UNL     1      42.100 -12.912   3.677  1.00  0.00     0.036 A 
HETATM    5  C   UNL     1      41.256 -13.415   2.655  1.00  0.00     0.057 A 
HETATM    6  C   UNL     1      40.913 -12.627   1.557  1.00  0.00     0.103 A 
HETATM    7  C   UNL     1      41.478 -11.355   1.446  1.00  0.00     0.103 A 
HETATM    8  C   UNL     1      42.294 -10.856   2.467  1.00  0.00     0.072 A 
HETATM    9  C   UNL     1      42.616 -11.614   3.584  1.00  0.00     0.075 A 
HETATM   10  N   UNL     1      43.394 -11.075   4.527  1.00  0.00    -0.228 NA
ENDROOT
BRANCH   1  11
HETATM   11  C   UNL     1      44.391 -11.215   6.728  1.00  0.00     0.014 A 
HETATM   12  C   UNL     1      45.776 -10.989   6.694  1.00  0.00     0.015 A 
HETATM   13  C   UNL     1      46.433 -10.405   7.779  1.00  0.00     0.003 A 
HETATM   14  C   UNL     1      45.713 -10.017   8.911  1.00  0.00     0.029 A 
HETATM   15  C   UNL     1      44.329 -10.200   8.965  1.00  0.00     0.035 A 
HETATM   16  C   UNL     1      43.689 -10.809   7.884  1.00  0.00     0.044 A 
BRANCH  15  17
HETATM   17  N   UNL     1      43.651  -9.767  10.126  1.00  0.00    -0.327 N 
HETATM   18  C   UNL     1      43.578 -10.429  11.343  1.00  0.00     0.222 C 
HETATM   19  O   UNL     1      44.014 -11.548  11.590  1.00  0.00    -0.273 OA
HETATM   20  H   UNL     1      43.109  -8.917  10.037  1.00  0.00     0.169 HD
BRANCH  18  21
HETATM   21  C   UNL     1      42.848  -9.603  12.391  1.00  0.00     0.103 C 
BRANCH  21  22
HETATM   22  C   UNL     1      43.266  -8.133  12.353  1.00  0.00     0.005 C 
HETATM   23  C   UNL     1      43.197  -7.492  13.727  1.00  0.00     0.005 C 
ENDBRANCH  21  22
ENDBRANCH  18  21
ENDBRANCH  15  17
ENDBRANCH   1  11
BRANCH   3  24
HETATM   24  N   UNL     1      41.964 -14.943   5.022  1.00  0.00    -0.243 NA
HETATM   25  H   UNL     1      41.590 -14.973   5.967  1.00  0.00     0.135 HD
BRANCH  24  26
HETATM   26  C   UNL     1      42.624 -16.160   4.708  1.00  0.00     0.015 A 
HETATM   27  C   UNL     1      43.351 -16.824   5.711  1.00  0.00     0.026 A 
HETATM   28  C   UNL     1      43.967 -18.064   5.489  1.00  0.00     0.034 A 
HETATM   29  C   UNL     1      43.801 -18.636   4.228  1.00  0.00     0.061 A 
HETATM   30  N   UNL     1      44.259 -19.809   3.686  1.00  0.00    -0.278 N 
HETATM   31  C   UNL     1      43.059 -18.034   3.220  1.00  0.00     0.013 A 
HETATM   32  H   UNL     1      44.847 -20.506   4.128  1.00  0.00     0.189 HD
HETATM   33  N   UNL     1      43.853 -20.028   2.423  1.00  0.00    -0.186 NA
HETATM   34  C   UNL     1      43.131 -18.940   2.138  1.00  0.00     0.152 A 
HETATM   35  C   UNL     1      42.452 -16.789   3.463  1.00  0.00     0.039 A 
ENDBRANCH  24  26
ENDBRANCH   3  24
BRANCH   7  36
HETATM   36  O   UNL     1      41.215 -10.486   0.417  1.00  0.00    -0.353 OA
HETATM   37  C   UNL     1      40.187  -9.547   0.727  1.00  0.00     0.210 C 
ENDBRANCH   7  36
BRANCH   6  38
HETATM   38  O   UNL     1      40.065 -13.048   0.569  1.00  0.00    -0.347 OA
BRANCH  38  39
HETATM   39  C   UNL     1      40.588 -14.060  -0.300  1.00  0.00     0.206 C 
BRANCH  39  40
HETATM   40  C   UNL     1      39.418 -14.572  -1.155  1.00  0.00     0.299 C 
BRANCH  40  41
HETATM   41  N   UNL     1      39.496 -14.214  -2.586  1.00  0.00     0.093 N 
HETATM   42  C   UNL     1      39.980 -12.839  -2.825  1.00  0.00     0.300 C 
HETATM   43  C   UNL     1      38.971 -11.721  -2.487  1.00  0.00     0.264 C 
HETATM   44  N   UNL     1      37.655 -11.969  -3.207  1.00  0.00    -0.072 N 
HETATM   45  H   UNL     1      37.859 -11.927  -4.215  1.00  0.00     0.279 HD
HETATM   46  C   UNL     1      36.642 -10.905  -2.909  1.00  0.00     0.269 C 
HETATM   47  C   UNL     1      37.119 -13.365  -2.931  1.00  0.00     0.264 C 
HETATM   48  C   UNL     1      38.196 -14.420  -3.261  1.00  0.00     0.300 C 
ENDBRANCH  40  41
ENDBRANCH  39  40
ENDBRANCH  38  39
ENDBRANCH   6  38
TORSDOF 11
ENDMDL
MODEL 2
REMARK VINA RESULT:      -9.5      2.503      9.548
REMARK  11 active torsions:
REMARK  status: ('A' for Active; 'I' for Inactive)
REMARK    1  A    between atoms: C_2  and  C_3 
REMARK    2  A    between atoms: C_3  and  C_4 
REMARK       I    between atoms: C_4  and  N_6 
REMARK    3  A    between atoms: N_6  and  C_7 
REMARK    4  A    between atoms: C_11  and  C_13 
REMARK    5  A    between atoms: C_15  and  N_16 
REMARK    6  A    between atoms: N_16  and  C_17 
REMARK    7  A    between atoms: C_29  and  O_30 
REMARK    8  A    between atoms: O_30  and  C_31 
REMARK    9  A    between atoms: C_31  and  C_32 
REMARK   10  A    between atoms: C_32  and  N_33 
REMARK   11  A    between atoms: C_41  and  O_42 
ROOT
HETATM    1  C   UNL     1      40.458 -14.479   0.756  1.00  0.00     0.162 A 
HETATM    2  N   UNL     1      41.530 -15.276   0.872  1.00  0.00    -0.215 NA
HETATM    3  C   UNL     1      42.093 -15.405   2.079  1.00  0.00     0.122 A 
HETATM    4  C   UNL     1      41.587 -14.740   3.205  1.00  0.00     0.036 A 
HETATM    5  C   UNL     1      42.154 -14.815   4.502  1.00  0.00     0.057 A 
HETATM    6  C   UNL     1      41.595 -14.113   5.569  1.00  0.00     0.103 A 
HETATM    7  C   UNL     1      40.418 -13.394   5.352  1.00  0.00     0.103 A 
HETATM    8  C   UNL     1      39.874 -13.308   4.067  1.00  0.00     0.072 A 
HETATM    9  C   UNL     1      40.438 -13.970   2.985  1.00  0.00     0.075 A 
HETATM   10  N   UNL     1      39.873 -13.840   1.782  1.00  0.00    -0.228 NA
ENDROOT
BRANCH   1  11
HETATM   11  C   UNL     1      39.956 -14.232  -0.605  1.00  0.00     0.014 A 
HETATM   12  C   UNL     1      39.272 -15.213  -1.339  1.00  0.00     0.015 A 
HETATM   13  C   UNL     1      38.808 -14.950  -2.629  1.00  0.00     0.003 A 
HETATM   14  C   UNL     1      39.004 -13.691  -3.203  1.00  0.00     0.029 A 
HETATM   15  C   UNL     1      39.654 -12.682  -2.488  1.00  0.00     0.035 A 
HETATM   16  C   UNL     1      40.135 -12.968  -1.209  1.00  0.00     0.044 A 
BRANCH  15  17
HETATM   17  N   UNL     1      39.802 -11.423  -3.111  1.00  0.00    -0.327 N 
HETATM   18  C   UNL     1      38.874 -10.391  -3.133  1.00  0.00     0.222 C 
HETATM   19  O   UNL     1      37.730 -10.431  -2.693  1.00  0.00    -0.273 OA
HETATM   20  H   UNL     1      40.647 -11.288  -3.651  1.00  0.00     0.169 HD
BRANCH  18  21
HETATM   21  C   UNL     1      39.431  -9.149  -3.811  1.00  0.00     0.103 C 
BRANCH  21  22
HETATM   22  C   UNL     1      40.926  -9.276  -4.099  1.00  0.00     0.005 C 
HETATM   23  C   UNL     1      41.705  -8.085  -3.569  1.00  0.00     0.005 C 
ENDBRANCH  21  22
ENDBRANCH  18  21
ENDBRANCH  15  17
ENDBRANCH   1  11
BRANCH   3  24
HETATM   24  N   UNL     1      43.289 -16.168   2.195  1.00  0.00    -0.243 NA
HETATM   25  H   UNL     1      43.810 -16.044   1.331  1.00  0.00     0.135 HD
BRANCH  24  26
HETATM   26  C   UNL     1      43.379 -17.512   2.644  1.00  0.00     0.015 A 
HETATM   27  C   UNL     1      43.233 -18.556   1.716  1.00  0.00     0.026 A 
HETATM   28  C   UNL     1      43.381 -19.902   2.078  1.00  0.00     0.034 A 
HETATM   29  C   UNL     1      43.715 -20.167   3.406  1.00  0.00     0.061 A 
HETATM   30  N   UNL     1      43.927 -21.342   4.081  1.00  0.00    -0.278 N 
HETATM   31  C   UNL     1      43.907 -19.165   4.348  1.00  0.00     0.013 A 
HETATM   32  H   UNL     1      43.862 -22.285   3.716  1.00  0.00     0.189 HD
HETATM   33  N   UNL     1      44.267 -21.180   5.372  1.00  0.00    -0.186 NA
HETATM   34  C   UNL     1      44.242 -19.855   5.534  1.00  0.00     0.152 A 
HETATM   35  C   UNL     1      43.750 -17.821   3.964  1.00  0.00     0.039 A 
ENDBRANCH  24  26
ENDBRANCH   3  24
BRANCH   7  36
HETATM   36  O   UNL     1      39.777 -12.663   6.320  1.00  0.00    -0.353 OA
HETATM   37  C   UNL     1      39.156 -11.484   5.809  1.00  0.00     0.210 C 
ENDBRANCH   7  36
BRANCH   6  38
HETATM   38  O   UNL     1      42.132 -14.114   6.828  1.00  0.00    -0.347 OA
BRANCH  38  39
HETATM   39  C   UNL     1      43.544 -13.886   6.894  1.00  0.00     0.206 C 
BRANCH  39  40
HETATM   40  C   UNL     1      43.751 -12.521   7.573  1.00  0.00     0.299 C 
BRANCH  40  41
HETATM   41  N   UNL     1      44.111 -11.423   6.653  1.00  0.00     0.093 N 
HETATM   42  C   UNL     1      45.330 -10.691   7.055  1.00  0.00     0.300 C 
HETATM   43  C   UNL     1      45.163  -9.762   8.275  1.00  0.00     0.264 C 
HETATM   44  N   UNL     1      44.003  -8.806   8.050  1.00  0.00    -0.072 N 
HETATM   45  H   UNL     1      44.250  -8.228   7.235  1.00  0.00     0.279 HD
HETATM   46  C   UNL     1      43.803  -7.880   9.212  1.00  0.00     0.269 C 
HETATM   47  C   UNL     1      42.727  -9.549   7.684  1.00  0.00     0.264 C 
HETATM   48  C   UNL     1      42.985 -10.480   6.480  1.00  0.00     0.300 C 
ENDBRANCH  40  41
ENDBRANCH  39  40
ENDBRANCH  38  39
ENDBRANCH   6  38
TORSDOF 11
ENDMDL
MODEL 3
REMARK VINA RESULT:      -9.3      2.093      5.395
REMARK  11 active torsions:
REMARK  status: ('A' for Active; 'I' for Inactive)
REMARK    1  A    between atoms: C_2  and  C_3 
REMARK    2  A    between atoms: C_3  and  C_4 
REMARK       I    between atoms: C_4  and  N_6 
REMARK    3  A    between atoms: N_6  and  C_7 
REMARK    4  A    between atoms: C_11  and  C_13 
REMARK    5  A    between atoms: C_15  and  N_16 
REMARK    6  A    between atoms: N_16  and  C_17 
REMARK    7  A    between atoms: C_29  and  O_30 
REMARK    8  A    between atoms: O_30  and  C_31 
REMARK    9  A    between atoms: C_31  and  C_32 
REMARK   10  A    between atoms: C_32  and  N_33 
REMARK   11  A    between atoms: C_41  and  O_42 
ROOT
HETATM    1  C   UNL     1      43.664 -11.676   5.593  1.00  0.00     0.162 A 
HETATM    2  N   UNL     1      43.326 -10.828   4.612  1.00  0.00    -0.215 NA
HETATM    3  C   UNL     1      42.794 -11.337   3.494  1.00  0.00     0.122 A 
HETATM    4  C   UNL     1      42.583 -12.714   3.337  1.00  0.00     0.036 A 
HETATM    5  C   UNL     1      42.050 -13.315   2.168  1.00  0.00     0.057 A 
HETATM    6  C   UNL     1      41.880 -14.696   2.088  1.00  0.00     0.103 A 
HETATM    7  C   UNL     1      42.175 -15.472   3.211  1.00  0.00     0.103 A 
HETATM    8  C   UNL     1      42.717 -14.876   4.354  1.00  0.00     0.072 A 
HETATM    9  C   UNL     1      42.928 -13.507   4.438  1.00  0.00     0.075 A 
HETATM   10  N   UNL     1      43.457 -13.002   5.556  1.00  0.00    -0.228 NA
ENDROOT
BRANCH   1  11
HETATM   11  C   UNL     1      44.388 -11.110   6.743  1.00  0.00     0.014 A 
HETATM   12  C   UNL     1      45.776 -10.904   6.725  1.00  0.00     0.015 A 
HETATM   13  C   UNL     1      46.436 -10.366   7.832  1.00  0.00     0.003 A 
HETATM   14  C   UNL     1      45.714 -10.006   8.972  1.00  0.00     0.029 A 
HETATM   15  C   UNL     1      44.328 -10.170   9.013  1.00  0.00     0.035 A 
HETATM   16  C   UNL     1      43.686 -10.732   7.909  1.00  0.00     0.044 A 
BRANCH  15  17
HETATM   17  N   UNL     1      43.650  -9.766  10.184  1.00  0.00    -0.327 N 
HETATM   18  C   UNL     1      43.556 -10.470  11.376  1.00  0.00     0.222 C 
HETATM   19  O   UNL     1      43.970 -11.605  11.586  1.00  0.00    -0.273 OA
HETATM   20  H   UNL     1      43.124  -8.904  10.122  1.00  0.00     0.169 HD
BRANCH  18  21
HETATM   21  C   UNL     1      42.834  -9.668  12.448  1.00  0.00     0.103 C 
BRANCH  21  22
HETATM   22  C   UNL     1      43.193  -8.184  12.392  1.00  0.00     0.005 C 
HETATM   23  C   UNL     1      43.149  -7.541  13.766  1.00  0.00     0.005 C 
ENDBRANCH  21  22
ENDBRANCH  18  21
ENDBRANCH  15  17
ENDBRANCH   1  11
BRANCH   3  24
HETATM   24  N   UNL     1      42.523 -10.458   2.408  1.00  0.00    -0.243 NA
HETATM   25  H   UNL     1      43.163  -9.672   2.489  1.00  0.00     0.135 HD
BRANCH  24  26
HETATM   26  C   UNL     1      41.239 -10.015   1.995  1.00  0.00     0.015 A 
HETATM   27  C   UNL     1      40.158 -10.127   2.885  1.00  0.00     0.026 A 
HETATM   28  C   UNL     1      38.879  -9.645   2.569  1.00  0.00     0.034 A 
HETATM   29  C   UNL     1      38.728  -9.013   1.335  1.00  0.00     0.061 A 
HETATM   30  N   UNL     1      37.641  -8.443   0.724  1.00  0.00    -0.278 N 
HETATM   31  C   UNL     1      39.778  -8.846   0.441  1.00  0.00     0.013 A 
HETATM   32  H   UNL     1      36.693  -8.388   1.076  1.00  0.00     0.189 HD
HETATM   33  N   UNL     1      37.907  -7.899  -0.476  1.00  0.00    -0.186 NA
HETATM   34  C   UNL     1      39.207  -8.156  -0.651  1.00  0.00     0.152 A 
HETATM   35  C   UNL     1      41.051  -9.340   0.776  1.00  0.00     0.039 A 
ENDBRANCH  24  26
ENDBRANCH   3  24
BRANCH   7  36
HETATM   36  O   UNL     1      42.052 -16.837   3.253  1.00  0.00    -0.353 OA
HETATM   37  C   UNL     1      43.276 -17.517   2.983  1.00  0.00     0.210 C 
ENDBRANCH   7  36
BRANCH   6  38
HETATM   38  O   UNL     1      41.416 -15.329   0.967  1.00  0.00    -0.347 OA
BRANCH  38  39
HETATM   39  C   UNL     1      39.994 -15.319   0.800  1.00  0.00     0.206 C 
BRANCH  39  40
HETATM   40  C   UNL     1      39.710 -14.904  -0.654  1.00  0.00     0.299 C 
BRANCH  40  41
HETATM   41  N   UNL     1      40.263 -13.590  -1.039  1.00  0.00     0.093 N 
HETATM   42  C   UNL     1      39.642 -12.456  -0.325  1.00  0.00     0.300 C 
HETATM   43  C   UNL     1      38.208 -12.106  -0.773  1.00  0.00     0.264 C 
HETATM   44  N   UNL     1      38.167 -11.892  -2.278  1.00  0.00    -0.072 N 
HETATM   45  H   UNL     1      38.773 -11.085  -2.476  1.00  0.00     0.279 HD
HETATM   46  C   UNL     1      36.789 -11.548  -2.760  1.00  0.00     0.269 C 
HETATM   47  C   UNL     1      38.758 -13.074  -3.029  1.00  0.00     0.264 C 
HETATM   48  C   UNL     1      40.176 -13.381  -2.500  1.00  0.00     0.300 C 
ENDBRANCH  40  41
ENDBRANCH  39  40
ENDBRANCH  38  39
ENDBRANCH   6  38
TORSDOF 11
ENDMDL
MODEL 4
REMARK VINA RESULT:      -9.3      2.238     10.044
REMARK  11 active torsions:
REMARK  status: ('A' for Active; 'I' for Inactive)
REMARK    1  A    between atoms: C_2  and  C_3 
REMARK    2  A    between atoms: C_3  and  C_4 
REMARK       I    between atoms: C_4  and  N_6 
REMARK    3  A    between atoms: N_6  and  C_7 
REMARK    4  A    between atoms: C_11  and  C_13 
REMARK    5  A    between atoms: C_15  and  N_16 
REMARK    6  A    between atoms: N_16  and  C_17 
REMARK    7  A    between atoms: C_29  and  O_30 
REMARK    8  A    between atoms: O_30  and  C_31 
REMARK    9  A    between atoms: C_31  and  C_32 
REMARK   10  A    between atoms: C_32  and  N_33 
REMARK   11  A    between atoms: C_41  and  O_42 
ROOT
HETATM    1  C   UNL     1      40.227 -13.736   0.960  1.00  0.00     0.162 A 
HETATM    2  N   UNL     1      41.347 -14.466   1.051  1.00  0.00    -0.215 NA
HETATM    3  C   UNL     1      42.097 -14.334   2.152  1.00  0.00     0.122 A 
HETATM    4  C   UNL     1      41.735 -13.468   3.193  1.00  0.00     0.036 A 
HETATM    5  C   UNL     1      42.501 -13.265   4.369  1.00  0.00     0.057 A 
HETATM    6  C   UNL     1      42.076 -12.376   5.355  1.00  0.00     0.103 A 
HETATM    7  C   UNL     1      40.841 -11.744   5.197  1.00  0.00     0.103 A 
HETATM    8  C   UNL     1      40.099 -11.934   4.027  1.00  0.00     0.072 A 
HETATM    9  C   UNL     1      40.525 -12.787   3.018  1.00  0.00     0.075 A 
HETATM   10  N   UNL     1      39.773 -12.917   1.922  1.00  0.00    -0.228 NA
ENDROOT
BRANCH   1  11
HETATM   11  C   UNL     1      39.505 -13.781  -0.323  1.00  0.00     0.014 A 
HETATM   12  C   UNL     1      39.564 -14.895  -1.175  1.00  0.00     0.015 A 
HETATM   13  C   UNL     1      38.870 -14.908  -2.386  1.00  0.00     0.003 A 
HETATM   14  C   UNL     1      38.087 -13.814  -2.759  1.00  0.00     0.029 A 
HETATM   15  C   UNL     1      37.981 -12.701  -1.920  1.00  0.00     0.035 A 
HETATM   16  C   UNL     1      38.702 -12.691  -0.725  1.00  0.00     0.044 A 
BRANCH  15  17
HETATM   17  N   UNL     1      37.156 -11.635  -2.340  1.00  0.00    -0.327 N 
HETATM   18  C   UNL     1      37.528 -10.555  -3.127  1.00  0.00     0.222 C 
HETATM   19  O   UNL     1      38.661 -10.294  -3.518  1.00  0.00    -0.273 OA
HETATM   20  H   UNL     1      36.214 -11.627  -1.971  1.00  0.00     0.169 HD
BRANCH  18  21
HETATM   21  C   UNL     1      36.340  -9.664  -3.458  1.00  0.00     0.103 C 
BRANCH  21  22
HETATM   22  C   UNL     1      35.155  -9.923  -2.529  1.00  0.00     0.005 C 
HETATM   23  C   UNL     1      33.897 -10.272  -3.304  1.00  0.00     0.005 C 
ENDBRANCH  21  22
ENDBRANCH  18  21
ENDBRANCH  15  17
ENDBRANCH   1  11
BRANCH   3  24
HETATM   24  N   UNL     1      43.338 -15.029   2.217  1.00  0.00    -0.243 NA
HETATM   25  H   UNL     1      43.787 -14.928   1.311  1.00  0.00     0.135 HD
BRANCH  24  26
HETATM   26  C   UNL     1      43.533 -16.339   2.728  1.00  0.00     0.015 A 
HETATM   27  C   UNL     1      43.730 -16.513   4.108  1.00  0.00     0.026 A 
HETATM   28  C   UNL     1      43.858 -17.783   4.689  1.00  0.00     0.034 A 
HETATM   29  C   UNL     1      43.747 -18.882   3.837  1.00  0.00     0.061 A 
HETATM   30  N   UNL     1      43.823 -20.232   4.067  1.00  0.00    -0.278 N 
HETATM   31  C   UNL     1      43.513 -18.758   2.473  1.00  0.00     0.013 A 
HETATM   32  H   UNL     1      43.998 -20.699   4.949  1.00  0.00     0.189 HD
HETATM   33  N   UNL     1      43.631 -20.988   2.972  1.00  0.00    -0.186 NA
HETATM   34  C   UNL     1      43.453 -20.088   2.002  1.00  0.00     0.152 A 
HETATM   35  C   UNL     1      43.391 -17.474   1.911  1.00  0.00     0.039 A 
ENDBRANCH  24  26
ENDBRANCH   3  24
BRANCH   7  36
HETATM   36  O   UNL     1      40.318 -10.848   6.095  1.00  0.00    -0.353 OA
HETATM   37  C   UNL     1      38.938 -11.079   6.374  1.00  0.00     0.210 C 
ENDBRANCH   7  36
BRANCH   6  38
HETATM   38  O   UNL     1      42.801 -12.108   6.484  1.00  0.00    -0.347 OA
BRANCH  38  39
HETATM   39  C   UNL     1      44.068 -11.476   6.266  1.00  0.00     0.206 C 
BRANCH  39  40
HETATM   40  C   UNL     1      44.633 -11.104   7.647  1.00  0.00     0.299 C 
BRANCH  40  41
HETATM   41  N   UNL     1      44.816  -9.655   7.870  1.00  0.00     0.093 N 
HETATM   42  C   UNL     1      45.743  -9.341   8.976  1.00  0.00     0.300 C 
HETATM   43  C   UNL     1      45.187  -9.600  10.391  1.00  0.00     0.264 C 
HETATM   44  N   UNL     1      43.859  -8.881  10.572  1.00  0.00    -0.072 N 
HETATM   45  H   UNL     1      44.054  -7.875  10.480  1.00  0.00     0.279 HD
HETATM   46  C   UNL     1      43.279  -9.103  11.936  1.00  0.00     0.269 C 
HETATM   47  C   UNL     1      42.876  -9.234   9.466  1.00  0.00     0.264 C 
HETATM   48  C   UNL     1      43.518  -8.980   8.086  1.00  0.00     0.300 C 
ENDBRANCH  40  41
ENDBRANCH  39  40
ENDBRANCH  38  39
ENDBRANCH   6  38
TORSDOF 11
ENDMDL
MODEL 5
REMARK VINA RESULT:      -8.9      1.871      2.495
REMARK  11 active torsions:
REMARK  status: ('A' for Active; 'I' for Inactive)
REMARK    1  A    between atoms: C_2  and  C_3 
REMARK    2  A    between atoms: C_3  and  C_4 
REMARK       I    between atoms: C_4  and  N_6 
REMARK    3  A    between atoms: N_6  and  C_7 
REMARK    4  A    between atoms: C_11  and  C_13 
REMARK    5  A    between atoms: C_15  and  N_16 
REMARK    6  A    between atoms: N_16  and  C_17 
REMARK    7  A    between atoms: C_29  and  O_30 
REMARK    8  A    between atoms: O_30  and  C_31 
REMARK    9  A    between atoms: C_31  and  C_32 
REMARK   10  A    between atoms: C_32  and  N_33 
REMARK   11  A    between atoms: C_41  and  O_42 
ROOT
HETATM    1  C   UNL     1      43.035 -11.474   4.837  1.00  0.00     0.162 A 
HETATM    2  N   UNL     1      43.365 -12.576   4.149  1.00  0.00    -0.215 NA
HETATM    3  C   UNL     1      42.564 -12.959   3.148  1.00  0.00     0.122 A 
HETATM    4  C   UNL     1      41.411 -12.238   2.808  1.00  0.00     0.036 A 
HETATM    5  C   UNL     1      40.510 -12.608   1.778  1.00  0.00     0.057 A 
HETATM    6  C   UNL     1      39.377 -11.841   1.508  1.00  0.00     0.103 A 
HETATM    7  C   UNL     1      39.187 -10.657   2.223  1.00  0.00     0.103 A 
HETATM    8  C   UNL     1      40.069 -10.307   3.251  1.00  0.00     0.072 A 
HETATM    9  C   UNL     1      41.181 -11.078   3.557  1.00  0.00     0.075 A 
HETATM   10  N   UNL     1      41.980 -10.692   4.556  1.00  0.00    -0.228 NA
ENDROOT
BRANCH   1  11
HETATM   11  C   UNL     1      43.843 -11.163   6.027  1.00  0.00     0.014 A 
HETATM   12  C   UNL     1      45.241 -11.283   6.033  1.00  0.00     0.015 A 
HETATM   13  C   UNL     1      45.981 -10.983   7.179  1.00  0.00     0.003 A 
HETATM   14  C   UNL     1      45.336 -10.539   8.335  1.00  0.00     0.029 A 
HETATM   15  C   UNL     1      43.948 -10.380   8.354  1.00  0.00     0.035 A 
HETATM   16  C   UNL     1      43.219 -10.709   7.210  1.00  0.00     0.044 A 
BRANCH  15  17
HETATM   17  N   UNL     1      43.354  -9.906   9.545  1.00  0.00    -0.327 N 
HETATM   18  C   UNL     1      43.431 -10.487  10.802  1.00  0.00     0.222 C 
HETATM   19  O   UNL     1      43.953 -11.562  11.077  1.00  0.00    -0.273 OA
HETATM   20  H   UNL     1      42.757  -9.094   9.454  1.00  0.00     0.169 HD
BRANCH  18  21
HETATM   21  C   UNL     1      42.752  -9.631  11.860  1.00  0.00     0.103 C 
BRANCH  21  22
HETATM   22  C   UNL     1      43.554  -8.370  12.177  1.00  0.00     0.005 C 
HETATM   23  C   UNL     1      43.080  -7.708  13.458  1.00  0.00     0.005 C 
ENDBRANCH  21  22
ENDBRANCH  18  21
ENDBRANCH  15  17
ENDBRANCH   1  11
BRANCH   3  24
HETATM   24  N   UNL     1      42.851 -14.181   2.477  1.00  0.00    -0.243 NA
HETATM   25  H   UNL     1      42.130 -14.314   1.772  1.00  0.00     0.135 HD
BRANCH  24  26
HETATM   26  C   UNL     1      43.176 -15.416   3.097  1.00  0.00     0.015 A 
HETATM   27  C   UNL     1      43.214 -15.489   4.499  1.00  0.00     0.026 A 
HETATM   28  C   UNL     1      43.459 -16.692   5.177  1.00  0.00     0.034 A 
HETATM   29  C   UNL     1      43.632 -17.835   4.396  1.00  0.00     0.061 A 
HETATM   30  N   UNL     1      43.884 -19.141   4.726  1.00  0.00    -0.278 N 
HETATM   31  C   UNL     1      43.563 -17.816   3.009  1.00  0.00     0.013 A 
HETATM   32  H   UNL     1      44.010 -19.531   5.652  1.00  0.00     0.189 HD
HETATM   33  N   UNL     1      43.956 -19.971   3.671  1.00  0.00    -0.186 NA
HETATM   34  C   UNL     1      43.772 -19.159   2.626  1.00  0.00     0.152 A 
HETATM   35  C   UNL     1      43.321 -16.598   2.349  1.00  0.00     0.039 A 
ENDBRANCH  24  26
ENDBRANCH   3  24
BRANCH   7  36
HETATM   36  O   UNL     1      38.113  -9.821   2.051  1.00  0.00    -0.353 OA
HETATM   37  C   UNL     1      38.493  -8.479   1.751  1.00  0.00     0.210 C 
ENDBRANCH   7  36
BRANCH   6  38
HETATM   38  O   UNL     1      38.452 -12.181   0.558  1.00  0.00    -0.347 OA
BRANCH  38  39
HETATM   39  C   UNL     1      38.976 -12.410  -0.755  1.00  0.00     0.206 C 
BRANCH  39  40
HETATM   40  C   UNL     1      39.070 -11.041  -1.451  1.00  0.00     0.299 C 
BRANCH  40  41
HETATM   41  N   UNL     1      40.367 -10.770  -2.105  1.00  0.00     0.093 N 
HETATM   42  C   UNL     1      41.440 -10.405  -1.158  1.00  0.00     0.300 C 
HETATM   43  C   UNL     1      41.326  -8.992  -0.550  1.00  0.00     0.264 C 
HETATM   44  N   UNL     1      41.198  -7.955  -1.656  1.00  0.00    -0.072 N 
HETATM   45  H   UNL     1      42.067  -8.002  -2.205  1.00  0.00     0.279 HD
HETATM   46  C   UNL     1      41.085  -6.563  -1.112  1.00  0.00     0.269 C 
HETATM   47  C   UNL     1      40.063  -8.292  -2.611  1.00  0.00     0.264 C 
HETATM   48  C   UNL     1      40.232  -9.729  -3.147  1.00  0.00     0.300 C 
ENDBRANCH  40  41
ENDBRANCH  39  40
ENDBRANCH  38  39
ENDBRANCH   6  38
TORSDOF 11
ENDMDL
MODEL 6
REMARK VINA RESULT:      -8.6      2.295     10.123
REMARK  11 active torsions:
REMARK  status: ('A' for Active; 'I' for Inactive)
REMARK    1  A    between atoms: C_2  and  C_3 
REMARK    2  A    between atoms: C_3  and  C_4 
REMARK       I    between atoms: C_4  and  N_6 
REMARK    3  A    between atoms: N_6  and  C_7 
REMARK    4  A    between atoms: C_11  and  C_13 
REMARK    5  A    between atoms: C_15  and  N_16 
REMARK    6  A    between atoms: N_16  and  C_17 
REMARK    7  A    between atoms: C_29  and  O_30 
REMARK    8  A    between atoms: O_30  and  C_31 
REMARK    9  A    between atoms: C_31  and  C_32 
REMARK   10  A    between atoms: C_32  and  N_33 
REMARK   11  A    between atoms: C_41  and  O_42 
ROOT
HETATM    1  C   UNL     1      40.629 -10.936   4.613  1.00  0.00     0.162 A 
HETATM    2  N   UNL     1      41.246 -12.083   4.927  1.00  0.00    -0.215 NA
HETATM    3  C   UNL     1      42.195 -12.051   5.870  1.00  0.00     0.122 A 
HETATM    4  C   UNL     1      42.542 -10.864   6.529  1.00  0.00     0.036 A 
HETATM    5  C   UNL     1      43.556 -10.761   7.515  1.00  0.00     0.057 A 
HETATM    6  C   UNL     1      43.848  -9.537   8.116  1.00  0.00     0.103 A 
HETATM    7  C   UNL     1      43.071  -8.426   7.782  1.00  0.00     0.103 A 
HETATM    8  C   UNL     1      42.085  -8.530   6.794  1.00  0.00     0.072 A 
HETATM    9  C   UNL     1      41.806  -9.732   6.159  1.00  0.00     0.075 A 
HETATM   10  N   UNL     1      40.858  -9.760   5.219  1.00  0.00    -0.228 NA
ENDROOT
BRANCH   1  11
HETATM   11  C   UNL     1      39.705 -10.969   3.467  1.00  0.00     0.014 A 
HETATM   12  C   UNL     1      38.785  -9.937   3.219  1.00  0.00     0.015 A 
HETATM   13  C   UNL     1      37.920  -9.997   2.125  1.00  0.00     0.003 A 
HETATM   14  C   UNL     1      37.972 -11.082   1.247  1.00  0.00     0.029 A 
HETATM   15  C   UNL     1      38.895 -12.111   1.448  1.00  0.00     0.035 A 
HETATM   16  C   UNL     1      39.736 -12.050   2.560  1.00  0.00     0.044 A 
BRANCH  15  17
HETATM   17  N   UNL     1      38.916 -13.170   0.514  1.00  0.00    -0.327 N 
HETATM   18  C   UNL     1      39.709 -13.263  -0.621  1.00  0.00     0.222 C 
HETATM   19  O   UNL     1      40.462 -12.399  -1.056  1.00  0.00    -0.273 OA
HETATM   20  H   UNL     1      38.234 -13.904   0.655  1.00  0.00     0.169 HD
BRANCH  18  21
HETATM   21  C   UNL     1      39.530 -14.599  -1.324  1.00  0.00     0.103 C 
BRANCH  21  22
HETATM   22  C   UNL     1      39.030 -14.428  -2.759  1.00  0.00     0.005 C 
HETATM   23  C   UNL     1      37.733 -13.641  -2.813  1.00  0.00     0.005 C 
ENDBRANCH  21  22
ENDBRANCH  18  21
ENDBRANCH  15  17
ENDBRANCH   1  11
BRANCH   3  24
HETATM   24  N   UNL     1      42.926 -13.242   6.142  1.00  0.00    -0.243 NA
HETATM   25  H   UNL     1      43.846 -12.963   6.472  1.00  0.00     0.135 HD
BRANCH  24  26
HETATM   26  C   UNL     1      43.024 -14.372   5.287  1.00  0.00     0.015 A 
HETATM   27  C   UNL     1      42.927 -14.190   3.898  1.00  0.00     0.026 A 
HETATM   28  C   UNL     1      43.086 -15.251   2.994  1.00  0.00     0.034 A 
HETATM   29  C   UNL     1      43.381 -16.503   3.534  1.00  0.00     0.061 A 
HETATM   30  N   UNL     1      43.591 -17.726   2.950  1.00  0.00    -0.278 N 
HETATM   31  C   UNL     1      43.524 -16.721   4.898  1.00  0.00     0.013 A 
HETATM   32  H   UNL     1      43.554 -17.955   1.964  1.00  0.00     0.189 HD
HETATM   33  N   UNL     1      43.884 -18.708   3.821  1.00  0.00    -0.186 NA
HETATM   34  C   UNL     1      43.831 -18.095   5.007  1.00  0.00     0.152 A 
HETATM   35  C   UNL     1      43.357 -15.644   5.787  1.00  0.00     0.039 A 
ENDBRANCH  24  26
ENDBRANCH   3  24
BRANCH   7  36
HETATM   36  O   UNL     1      43.262  -7.172   8.302  1.00  0.00    -0.353 OA
HETATM   37  C   UNL     1      42.145  -6.308   8.103  1.00  0.00     0.210 C 
ENDBRANCH   7  36
BRANCH   6  38
HETATM   38  O   UNL     1      44.847  -9.375   9.037  1.00  0.00    -0.347 OA
BRANCH  38  39
HETATM   39  C   UNL     1      44.712 -10.153  10.232  1.00  0.00     0.206 C 
BRANCH  39  40
HETATM   40  C   UNL     1      43.791  -9.368  11.182  1.00  0.00     0.299 C 
BRANCH  40  41
HETATM   41  N   UNL     1      42.491 -10.015  11.455  1.00  0.00     0.093 N 
HETATM   42  C   UNL     1      41.343  -9.312  10.847  1.00  0.00     0.300 C 
HETATM   43  C   UNL     1      40.951  -7.985  11.529  1.00  0.00     0.264 C 
HETATM   44  N   UNL     1      40.729  -8.208  13.017  1.00  0.00    -0.072 N 
HETATM   45  H   UNL     1      39.939  -8.861  13.102  1.00  0.00     0.279 HD
HETATM   46  C   UNL     1      40.344  -6.943  13.724  1.00  0.00     0.269 C 
HETATM   47  C   UNL     1      41.925  -8.886  13.667  1.00  0.00     0.264 C 
HETATM   48  C   UNL     1      42.274 -10.184  12.908  1.00  0.00     0.300 C 
ENDBRANCH  40  41
ENDBRANCH  39  40
ENDBRANCH  38  39
ENDBRANCH   6  38
TORSDOF 11
ENDMDL
MODEL 7
REMARK VINA RESULT:      -8.6      1.683      2.316
REMARK  11 active torsions:
REMARK  status: ('A' for Active; 'I' for Inactive)
REMARK    1  A    between atoms: C_2  and  C_3 
REMARK    2  A    between atoms: C_3  and  C_4 
REMARK       I    between atoms: C_4  and  N_6 
REMARK    3  A    between atoms: N_6  and  C_7 
REMARK    4  A    between atoms: C_11  and  C_13 
REMARK    5  A    between atoms: C_15  and  N_16 
REMARK    6  A    between atoms: N_16  and  C_17 
REMARK    7  A    between atoms: C_29  and  O_30 
REMARK    8  A    between atoms: O_30  and  C_31 
REMARK    9  A    between atoms: C_31  and  C_32 
REMARK   10  A    between atoms: C_32  and  N_33 
REMARK   11  A    between atoms: C_41  and  O_42 
ROOT
HETATM    1  C   UNL     1      42.922 -10.873   6.603  1.00  0.00     0.162 A 
HETATM    2  N   UNL     1      42.540 -12.155   6.524  1.00  0.00    -0.215 NA
HETATM    3  C   UNL     1      41.659 -12.493   5.574  1.00  0.00     0.122 A 
HETATM    4  C   UNL     1      41.145 -11.550   4.674  1.00  0.00     0.036 A 
HETATM    5  C   UNL     1      40.191 -11.841   3.666  1.00  0.00     0.057 A 
HETATM    6  C   UNL     1      39.721 -10.842   2.815  1.00  0.00     0.103 A 
HETATM    7  C   UNL     1      40.266  -9.560   2.926  1.00  0.00     0.103 A 
HETATM    8  C   UNL     1      41.193  -9.275   3.934  1.00  0.00     0.072 A 
HETATM    9  C   UNL     1      41.644 -10.249   4.813  1.00  0.00     0.075 A 
HETATM   10  N   UNL     1      42.523  -9.909   5.758  1.00  0.00    -0.228 NA
ENDROOT
BRANCH   1  11
HETATM   11  C   UNL     1      43.767 -10.499   7.749  1.00  0.00     0.014 A 
HETATM   12  C   UNL     1      45.156 -10.699   7.750  1.00  0.00     0.015 A 
HETATM   13  C   UNL     1      45.931 -10.335   8.854  1.00  0.00     0.003 A 
HETATM   14  C   UNL     1      45.332  -9.747   9.970  1.00  0.00     0.029 A 
HETATM   15  C   UNL     1      43.956  -9.507   9.989  1.00  0.00     0.035 A 
HETATM   16  C   UNL     1      43.191  -9.899   8.890  1.00  0.00     0.044 A 
BRANCH  15  17
HETATM   17  N   UNL     1      43.410  -8.888  11.136  1.00  0.00    -0.327 N 
HETATM   18  C   UNL     1      43.057  -9.506  12.326  1.00  0.00     0.222 C 
HETATM   19  O   UNL     1      43.073 -10.711  12.554  1.00  0.00    -0.273 OA
HETATM   20  H   UNL     1      43.195  -7.903  11.052  1.00  0.00     0.169 HD
BRANCH  18  21
HETATM   21  C   UNL     1      42.602  -8.498  13.370  1.00  0.00     0.103 C 
BRANCH  21  22
HETATM   22  C   UNL     1      41.206  -8.820  13.905  1.00  0.00     0.005 C 
HETATM   23  C   UNL     1      40.126  -8.072  13.144  1.00  0.00     0.005 C 
ENDBRANCH  21  22
ENDBRANCH  18  21
ENDBRANCH  15  17
ENDBRANCH   1  11
BRANCH   3  24
HETATM   24  N   UNL     1      41.171 -13.830   5.544  1.00  0.00    -0.243 NA
HETATM   25  H   UNL     1      40.751 -14.019   6.450  1.00  0.00     0.135 HD
BRANCH  24  26
HETATM   26  C   UNL     1      41.884 -14.967   5.078  1.00  0.00     0.015 A 
HETATM   27  C   UNL     1      42.411 -14.958   3.776  1.00  0.00     0.026 A 
HETATM   28  C   UNL     1      43.185 -16.016   3.277  1.00  0.00     0.034 A 
HETATM   29  C   UNL     1      43.442 -17.076   4.147  1.00  0.00     0.061 A 
HETATM   30  N   UNL     1      44.143 -18.243   3.986  1.00  0.00    -0.278 N 
HETATM   31  C   UNL     1      42.973 -17.109   5.454  1.00  0.00     0.013 A 
HETATM   32  H   UNL     1      44.618 -18.570   3.153  1.00  0.00     0.189 HD
HETATM   33  N   UNL     1      44.189 -19.013   5.088  1.00  0.00    -0.186 NA
HETATM   34  C   UNL     1      43.467 -18.324   5.976  1.00  0.00     0.152 A 
HETATM   35  C   UNL     1      42.196 -16.039   5.932  1.00  0.00     0.039 A 
ENDBRANCH  24  26
ENDBRANCH   3  24
BRANCH   7  36
HETATM   36  O   UNL     1      39.884  -8.496   2.149  1.00  0.00    -0.353 OA
HETATM   37  C   UNL     1      40.702  -8.327   0.993  1.00  0.00     0.210 C 
ENDBRANCH   7  36
BRANCH   6  38
HETATM   38  O   UNL     1      38.767 -11.060   1.860  1.00  0.00    -0.347 OA
BRANCH  38  39
HETATM   39  C   UNL     1      38.831 -12.333   1.206  1.00  0.00     0.206 C 
BRANCH  39  40
HETATM   40  C   UNL     1      39.858 -12.206   0.068  1.00  0.00     0.299 C 
BRANCH  40  41
HETATM   41  N   UNL     1      39.379 -11.464  -1.116  1.00  0.00     0.093 N 
HETATM   42  C   UNL     1      37.949 -11.685  -1.412  1.00  0.00     0.300 C 
HETATM   43  C   UNL     1      37.608 -13.069  -2.005  1.00  0.00     0.264 C 
HETATM   44  N   UNL     1      38.467 -13.338  -3.230  1.00  0.00    -0.072 N 
HETATM   45  H   UNL     1      38.223 -12.619  -3.925  1.00  0.00     0.279 HD
HETATM   46  C   UNL     1      38.170 -14.674  -3.843  1.00  0.00     0.269 C 
HETATM   47  C   UNL     1      39.947 -13.162  -2.927  1.00  0.00     0.264 C 
HETATM   48  C   UNL     1      40.199 -11.771  -2.308  1.00  0.00     0.300 C 
ENDBRANCH  40  41
ENDBRANCH  39  40
ENDBRANCH  38  39
ENDBRANCH   6  38
TORSDOF 11
ENDMDL
MODEL 8
REMARK VINA RESULT:      -8.5      3.356     11.005
REMARK  11 active torsions:
REMARK  status: ('A' for Active; 'I' for Inactive)
REMARK    1  A    between atoms: C_2  and  C_3 
REMARK    2  A    between atoms: C_3  and  C_4 
REMARK       I    between atoms: C_4  and  N_6 
REMARK    3  A    between atoms: N_6  and  C_7 
REMARK    4  A    between atoms: C_11  and  C_13 
REMARK    5  A    between atoms: C_15  and  N_16 
REMARK    6  A    between atoms: N_16  and  C_17 
REMARK    7  A    between atoms: C_29  and  O_30 
REMARK    8  A    between atoms: O_30  and  C_31 
REMARK    9  A    between atoms: C_31  and  C_32 
REMARK   10  A    between atoms: C_32  and  N_33 
REMARK   11  A    between atoms: C_41  and  O_42 
ROOT
HETATM    1  C   UNL     1      43.131 -12.699   4.498  1.00  0.00     0.162 A 
HETATM    2  N   UNL     1      42.624 -11.606   3.910  1.00  0.00    -0.215 NA
HETATM    3  C   UNL     1      42.485 -10.499   4.649  1.00  0.00     0.122 A 
HETATM    4  C   UNL     1      42.860 -10.460   5.999  1.00  0.00     0.036 A 
HETATM    5  C   UNL     1      42.713  -9.328   6.840  1.00  0.00     0.057 A 
HETATM    6  C   UNL     1      43.101  -9.374   8.177  1.00  0.00     0.103 A 
HETATM    7  C   UNL     1      43.710 -10.536   8.656  1.00  0.00     0.103 A 
HETATM    8  C   UNL     1      43.836 -11.656   7.827  1.00  0.00     0.072 A 
HETATM    9  C   UNL     1      43.421 -11.640   6.503  1.00  0.00     0.075 A 
HETATM   10  N   UNL     1      43.562 -12.746   5.768  1.00  0.00    -0.228 NA
ENDROOT
BRANCH   1  11
HETATM   11  C   UNL     1      43.127 -13.942   3.710  1.00  0.00     0.014 A 
HETATM   12  C   UNL     1      43.212 -13.939   2.309  1.00  0.00     0.015 A 
HETATM   13  C   UNL     1      43.204 -15.135   1.588  1.00  0.00     0.003 A 
HETATM   14  C   UNL     1      43.130 -16.358   2.258  1.00  0.00     0.029 A 
HETATM   15  C   UNL     1      43.075 -16.398   3.653  1.00  0.00     0.035 A 
HETATM   16  C   UNL     1      43.057 -15.194   4.359  1.00  0.00     0.044 A 
BRANCH  15  17
HETATM   17  N   UNL     1      43.024 -17.665   4.276  1.00  0.00    -0.327 N 
HETATM   18  C   UNL     1      44.030 -18.269   5.016  1.00  0.00     0.222 C 
HETATM   19  O   UNL     1      45.169 -17.844   5.181  1.00  0.00    -0.273 OA
HETATM   20  H   UNL     1      42.191 -18.214   4.106  1.00  0.00     0.169 HD
BRANCH  18  21
HETATM   21  C   UNL     1      43.572 -19.588   5.618  1.00  0.00     0.103 C 
BRANCH  21  22
HETATM   22  C   UNL     1      44.298 -20.782   5.000  1.00  0.00     0.005 C 
HETATM   23  C   UNL     1      43.874 -21.015   3.560  1.00  0.00     0.005 C 
ENDBRANCH  21  22
ENDBRANCH  18  21
ENDBRANCH  15  17
ENDBRANCH   1  11
BRANCH   3  24
HETATM   24  N   UNL     1      41.857  -9.364   4.063  1.00  0.00    -0.243 NA
HETATM   25  H   UNL     1      42.030  -8.573   4.678  1.00  0.00     0.135 HD
BRANCH  24  26
HETATM   26  C   UNL     1      40.535  -9.317   3.548  1.00  0.00     0.015 A 
HETATM   27  C   UNL     1      39.456  -9.204   4.440  1.00  0.00     0.026 A 
HETATM   28  C   UNL     1      38.131  -9.081   3.997  1.00  0.00     0.034 A 
HETATM   29  C   UNL     1      37.927  -9.041   2.617  1.00  0.00     0.061 A 
HETATM   30  N   UNL     1      36.787  -8.933   1.863  1.00  0.00    -0.278 N 
HETATM   31  C   UNL     1      38.967  -9.110   1.699  1.00  0.00     0.013 A 
HETATM   32  H   UNL     1      35.831  -8.872   2.192  1.00  0.00     0.189 HD
HETATM   33  N   UNL     1      37.007  -8.899   0.536  1.00  0.00    -0.186 NA
HETATM   34  C   UNL     1      38.334  -9.018   0.440  1.00  0.00     0.152 A 
HETATM   35  C   UNL     1      40.288  -9.237   2.166  1.00  0.00     0.039 A 
ENDBRANCH  24  26
ENDBRANCH   3  24
BRANCH   7  36
HETATM   36  O   UNL     1      44.132 -10.704   9.950  1.00  0.00    -0.353 OA
HETATM   37  C   UNL     1      45.426 -10.154  10.191  1.00  0.00     0.210 C 
ENDBRANCH   7  36
BRANCH   6  38
HETATM   38  O   UNL     1      42.936  -8.326   9.042  1.00  0.00    -0.347 OA
BRANCH  38  39
HETATM   39  C   UNL     1      41.591  -8.096   9.478  1.00  0.00     0.206 C 
BRANCH  39  40
HETATM   40  C   UNL     1      41.644  -7.842  10.994  1.00  0.00     0.299 C 
BRANCH  40  41
HETATM   41  N   UNL     1      42.389  -8.859  11.765  1.00  0.00     0.093 N 
HETATM   42  C   UNL     1      41.518  -9.798  12.500  1.00  0.00     0.300 C 
HETATM   43  C   UNL     1      40.821  -9.207  13.744  1.00  0.00     0.264 C 
HETATM   44  N   UNL     1      41.849  -8.577  14.670  1.00  0.00    -0.072 N 
HETATM   45  H   UNL     1      42.472  -9.336  14.978  1.00  0.00     0.279 HD
HETATM   46  C   UNL     1      41.218  -7.989  15.896  1.00  0.00     0.269 C 
HETATM   47  C   UNL     1      42.723  -7.571  13.936  1.00  0.00     0.264 C 
HETATM   48  C   UNL     1      43.354  -8.228  12.690  1.00  0.00     0.300 C 
ENDBRANCH  40  41
ENDBRANCH  39  40
ENDBRANCH  38  39
ENDBRANCH   6  38
TORSDOF 11
ENDMDL
MODEL 9
REMARK VINA RESULT:      -8.4      4.936      8.869
REMARK  11 active torsions:
REMARK  status: ('A' for Active; 'I' for Inactive)
REMARK    1  A    between atoms: C_2  and  C_3 
REMARK    2  A    between atoms: C_3  and  C_4 
REMARK       I    between atoms: C_4  and  N_6 
REMARK    3  A    between atoms: N_6  and  C_7 
REMARK    4  A    between atoms: C_11  and  C_13 
REMARK    5  A    between atoms: C_15  and  N_16 
REMARK    6  A    between atoms: N_16  and  C_17 
REMARK    7  A    between atoms: C_29  and  O_30 
REMARK    8  A    between atoms: O_30  and  C_31 
REMARK    9  A    between atoms: C_31  and  C_32 
REMARK   10  A    between atoms: C_32  and  N_33 
REMARK   11  A    between atoms: C_41  and  O_42 
ROOT
HETATM    1  C   UNL     1      40.000 -12.516   4.749  1.00  0.00     0.162 A 
HETATM    2  N   UNL     1      39.613 -12.407   3.471  1.00  0.00    -0.215 NA
HETATM    3  C   UNL     1      39.060 -11.254   3.076  1.00  0.00     0.122 A 
HETATM    4  C   UNL     1      38.889 -10.176   3.956  1.00  0.00     0.036 A 
HETATM    5  C   UNL     1      38.287  -8.941   3.605  1.00  0.00     0.057 A 
HETATM    6  C   UNL     1      38.145  -7.922   4.544  1.00  0.00     0.103 A 
HETATM    7  C   UNL     1      38.677  -8.111   5.822  1.00  0.00     0.103 A 
HETATM    8  C   UNL     1      39.253  -9.338   6.168  1.00  0.00     0.072 A 
HETATM    9  C   UNL     1      39.369 -10.377   5.256  1.00  0.00     0.075 A 
HETATM   10  N   UNL     1      39.922 -11.526   5.653  1.00  0.00    -0.228 NA
ENDROOT
BRANCH   1  11
HETATM   11  C   UNL     1      40.458 -13.842   5.195  1.00  0.00     0.014 A 
HETATM   12  C   UNL     1      40.073 -14.390   6.429  1.00  0.00     0.015 A 
HETATM   13  C   UNL     1      40.526 -15.649   6.826  1.00  0.00     0.003 A 
HETATM   14  C   UNL     1      41.357 -16.394   5.986  1.00  0.00     0.029 A 
HETATM   15  C   UNL     1      41.735 -15.891   4.739  1.00  0.00     0.035 A 
HETATM   16  C   UNL     1      41.297 -14.619   4.367  1.00  0.00     0.044 A 
BRANCH  15  17
HETATM   17  N   UNL     1      42.559 -16.699   3.924  1.00  0.00    -0.327 N 
HETATM   18  C   UNL     1      42.331 -17.052   2.602  1.00  0.00     0.222 C 
HETATM   19  O   UNL     1      41.329 -16.797   1.942  1.00  0.00    -0.273 OA
HETATM   20  H   UNL     1      43.363 -17.116   4.375  1.00  0.00     0.169 HD
BRANCH  18  21
HETATM   21  C   UNL     1      43.492 -17.846   2.023  1.00  0.00     0.103 C 
BRANCH  21  22
HETATM   22  C   UNL     1      43.742 -19.140   2.798  1.00  0.00     0.005 C 
HETATM   23  C   UNL     1      43.402 -20.366   1.971  1.00  0.00     0.005 C 
ENDBRANCH  21  22
ENDBRANCH  18  21
ENDBRANCH  15  17
ENDBRANCH   1  11
BRANCH   3  24
HETATM   24  N   UNL     1      38.555 -11.160   1.748  1.00  0.00    -0.243 NA
HETATM   25  H   UNL     1      37.664 -11.649   1.730  1.00  0.00     0.135 HD
BRANCH  24  26
HETATM   26  C   UNL     1      39.287 -11.413   0.558  1.00  0.00     0.015 A 
HETATM   27  C   UNL     1      40.386 -10.597   0.244  1.00  0.00     0.026 A 
HETATM   28  C   UNL     1      41.196 -10.833  -0.876  1.00  0.00     0.034 A 
HETATM   29  C   UNL     1      40.883 -11.946  -1.658  1.00  0.00     0.061 A 
HETATM   30  N   UNL     1      41.452 -12.454  -2.797  1.00  0.00    -0.278 N 
HETATM   31  C   UNL     1      39.830 -12.802  -1.364  1.00  0.00     0.013 A 
HETATM   32  H   UNL     1      42.241 -12.082  -3.313  1.00  0.00     0.189 HD
HETATM   33  N   UNL     1      40.872 -13.581  -3.246  1.00  0.00    -0.186 NA
HETATM   34  C   UNL     1      39.878 -13.784  -2.377  1.00  0.00     0.152 A 
HETATM   35  C   UNL     1      39.029 -12.544  -0.237  1.00  0.00     0.039 A 
ENDBRANCH  24  26
ENDBRANCH   3  24
BRANCH   7  36
HETATM   36  O   UNL     1      38.598  -7.185   6.830  1.00  0.00    -0.353 OA
HETATM   37  C   UNL     1      39.156  -7.649   8.059  1.00  0.00     0.210 C 
ENDBRANCH   7  36
BRANCH   6  38
HETATM   38  O   UNL     1      37.529  -6.731   4.269  1.00  0.00    -0.347 OA
BRANCH  38  39
HETATM   39  C   UNL     1      36.184  -6.833   3.786  1.00  0.00     0.206 C 
BRANCH  39  40
HETATM   40  C   UNL     1      35.296  -7.193   4.989  1.00  0.00     0.299 C 
BRANCH  40  41
HETATM   41  N   UNL     1      34.010  -6.468   5.046  1.00  0.00     0.093 N 
HETATM   42  C   UNL     1      33.059  -7.031   6.026  1.00  0.00     0.300 C 
HETATM   43  C   UNL     1      32.412  -8.371   5.617  1.00  0.00     0.264 C 
HETATM   44  N   UNL     1      31.770  -8.244   4.244  1.00  0.00    -0.072 N 
HETATM   45  H   UNL     1      31.026  -7.539   4.331  1.00  0.00     0.279 HD
HETATM   46  C   UNL     1      31.126  -9.525   3.804  1.00  0.00     0.269 C 
HETATM   47  C   UNL     1      32.753  -7.713   3.213  1.00  0.00     0.264 C 
HETATM   48  C   UNL     1      33.380  -6.393   3.710  1.00  0.00     0.300 C 
ENDBRANCH  40  41
ENDBRANCH  39  40
ENDBRANCH  38  39
ENDBRANCH   6  38
TORSDOF 11
ENDMDL
MODEL 10
REMARK VINA RESULT:      -8.4      2.571      9.916
REMARK  11 active torsions:
REMARK  status: ('A' for Active; 'I' for Inactive)
REMARK    1  A    between atoms: C_2  and  C_3 
REMARK    2  A    between atoms: C_3  and  C_4 
REMARK       I    between atoms: C_4  and  N_6 
REMARK    3  A    between atoms: N_6  and  C_7 
REMARK    4  A    between atoms: C_11  and  C_13 
REMARK    5  A    between atoms: C_15  and  N_16 
REMARK    6  A    between atoms: N_16  and  C_17 
REMARK    7  A    between atoms: C_29  and  O_30 
REMARK    8  A    between atoms: O_30  and  C_31 
REMARK    9  A    between atoms: C_31  and  C_32 
REMARK   10  A    between atoms: C_32  and  N_33 
REMARK   11  A    between atoms: C_41  and  O_42 
ROOT
HETATM    1  C   UNL     1      40.139 -13.356   0.839  1.00  0.00     0.162 A 
HETATM    2  N   UNL     1      41.243 -14.049   1.150  1.00  0.00    -0.215 NA
HETATM    3  C   UNL     1      41.820 -13.816   2.335  1.00  0.00     0.122 A 
HETATM    4  C   UNL     1      41.296 -12.884   3.242  1.00  0.00     0.036 A 
HETATM    5  C   UNL     1      41.876 -12.574   4.498  1.00  0.00     0.057 A 
HETATM    6  C   UNL     1      41.298 -11.625   5.339  1.00  0.00     0.103 A 
HETATM    7  C   UNL     1      40.091 -11.037   4.952  1.00  0.00     0.103 A 
HETATM    8  C   UNL     1      39.534 -11.333   3.704  1.00  0.00     0.072 A 
HETATM    9  C   UNL     1      40.116 -12.248   2.839  1.00  0.00     0.075 A 
HETATM   10  N   UNL     1      39.537 -12.478   1.657  1.00  0.00    -0.228 NA
ENDROOT
BRANCH   1  11
HETATM   11  C   UNL     1      39.616 -13.515  -0.529  1.00  0.00     0.014 A 
HETATM   12  C   UNL     1      39.466 -14.775  -1.129  1.00  0.00     0.015 A 
HETATM   13  C   UNL     1      38.968 -14.895  -2.428  1.00  0.00     0.003 A 
HETATM   14  C   UNL     1      38.594 -13.755  -3.145  1.00  0.00     0.029 A 
HETATM   15  C   UNL     1      38.702 -12.489  -2.566  1.00  0.00     0.035 A 
HETATM   16  C   UNL     1      39.226 -12.383  -1.276  1.00  0.00     0.044 A 
BRANCH  15  17
HETATM   17  N   UNL     1      38.287 -11.376  -3.330  1.00  0.00    -0.327 N 
HETATM   18  C   UNL     1      37.229 -10.523  -3.050  1.00  0.00     0.222 C 
HETATM   19  O   UNL     1      36.417 -10.643  -2.139  1.00  0.00    -0.273 OA
HETATM   20  H   UNL     1      38.772 -11.229  -4.206  1.00  0.00     0.169 HD
BRANCH  18  21
HETATM   21  C   UNL     1      37.153  -9.376  -4.046  1.00  0.00     0.103 C 
BRANCH  21  22
HETATM   22  C   UNL     1      37.372  -8.020  -3.375  1.00  0.00     0.005 C 
HETATM   23  C   UNL     1      38.703  -7.960  -2.648  1.00  0.00     0.005 C 
ENDBRANCH  21  22
ENDBRANCH  18  21
ENDBRANCH  15  17
ENDBRANCH   1  11
BRANCH   3  24
HETATM   24  N   UNL     1      43.047 -14.473   2.636  1.00  0.00    -0.243 NA
HETATM   25  H   UNL     1      43.713 -14.211   1.914  1.00  0.00     0.135 HD
BRANCH  24  26
HETATM   26  C   UNL     1      43.196 -15.842   2.981  1.00  0.00     0.015 A 
HETATM   27  C   UNL     1      43.336 -16.794   1.958  1.00  0.00     0.026 A 
HETATM   28  C   UNL     1      43.558 -18.152   2.229  1.00  0.00     0.034 A 
HETATM   29  C   UNL     1      43.668 -18.520   3.570  1.00  0.00     0.061 A 
HETATM   30  N   UNL     1      43.877 -19.734   4.173  1.00  0.00    -0.278 N 
HETATM   31  C   UNL     1      43.574 -17.607   4.612  1.00  0.00     0.013 A 
HETATM   32  H   UNL     1      43.982 -20.637   3.726  1.00  0.00     0.189 HD
HETATM   33  N   UNL     1      43.953 -19.675   5.514  1.00  0.00    -0.186 NA
HETATM   34  C   UNL     1      43.757 -18.381   5.779  1.00  0.00     0.152 A 
HETATM   35  C   UNL     1      43.348 -16.250   4.318  1.00  0.00     0.039 A 
ENDBRANCH  24  26
ENDBRANCH   3  24
BRANCH   7  36
HETATM   36  O   UNL     1      39.428 -10.090   5.691  1.00  0.00    -0.353 OA
HETATM   37  C   UNL     1      39.650  -8.761   5.223  1.00  0.00     0.210 C 
ENDBRANCH   7  36
BRANCH   6  38
HETATM   38  O   UNL     1      41.844 -11.255   6.538  1.00  0.00    -0.347 OA
BRANCH  38  39
HETATM   39  C   UNL     1      42.986 -10.395   6.454  1.00  0.00     0.206 C 
BRANCH  39  40
HETATM   40  C   UNL     1      42.733  -9.213   7.405  1.00  0.00     0.299 C 
BRANCH  40  41
HETATM   41  N   UNL     1      41.952  -9.548   8.614  1.00  0.00     0.093 N 
HETATM   42  C   UNL     1      40.750  -8.709   8.791  1.00  0.00     0.300 C 
HETATM   43  C   UNL     1      41.025  -7.258   9.238  1.00  0.00     0.264 C 
HETATM   44  N   UNL     1      41.886  -7.250  10.491  1.00  0.00    -0.072 N 
HETATM   45  H   UNL     1      41.338  -7.717  11.227  1.00  0.00     0.279 HD
HETATM   46  C   UNL     1      42.178  -5.858  10.964  1.00  0.00     0.269 C 
HETATM   47  C   UNL     1      43.152  -8.071  10.306  1.00  0.00     0.264 C 
HETATM   48  C   UNL     1      42.795  -9.494   9.827  1.00  0.00     0.300 C 
ENDBRANCH  40  41
ENDBRANCH  39  40
ENDBRANCH  38  39
ENDBRANCH   6  38
TORSDOF 11
ENDMDL
