MODEL 1
REMARK VINA RESULT:      -8.8      0.000      0.000
REMARK  7 active torsions:
REMARK  status: ('A' for Active; 'I' for Inactive)
REMARK    1  A    between atoms: O_2  and  C_3 
REMARK    2  A    between atoms: C_3  and  C_5 
REMARK    3  A    between atoms: C_9  and  N_10 
REMARK       I    between atoms: N_10  and  C_13 
REMARK    4  A    between atoms: C_13  and  C_15 
REMARK    5  A    between atoms: C_15  and  C_16 
REMARK    6  A    between atoms: C_16  and  N_17 
REMARK    7  A    between atoms: N_23  and  C_26 
ROOT
HETATM    1  C   UNL     1      43.179 -18.224   3.273  1.00  0.00     0.142 A 
HETATM    2  N   UNL     1      42.995 -18.544   1.969  1.00  0.00    -0.224 NA
HETATM    3  C   UNL     1      43.197 -19.830   1.592  1.00  0.00     0.237 A 
HETATM    4  N   UNL     1      43.601 -20.860   2.349  1.00  0.00    -0.223 NA
HETATM    5  C   UNL     1      43.769 -20.504   3.628  1.00  0.00     0.144 A 
HETATM    6  N   UNL     1      44.154 -21.346   4.638  1.00  0.00    -0.348 N 
HETATM    7  H   UNL     1      44.356 -22.330   4.511  1.00  0.00     0.167 HD
HETATM    8  C   UNL     1      44.195 -20.652   5.827  1.00  0.00     0.113 A 
HETATM    9  C   UNL     1      43.822 -19.350   5.559  1.00  0.00     0.077 A 
HETATM   10  C   UNL     1      43.695 -18.284   6.503  1.00  0.00     0.102 C 
HETATM   11  N   UNL     1      43.575 -17.325   7.149  1.00  0.00    -0.191 NA
HETATM   12  C   UNL     1      43.576 -19.242   4.162  1.00  0.00     0.078 A 
ENDROOT
BRANCH   1  13
HETATM   13  N   UNL     1      42.943 -16.911   3.706  1.00  0.00    -0.365 N 
HETATM   14  C   UNL     1      43.565 -15.907   2.854  1.00  0.00     0.126 C 
HETATM   15  C   UNL     1      42.546 -15.325   1.888  1.00  0.00     0.041 C 
HETATM   16  C   UNL     1      41.263 -14.852   2.595  1.00  0.00     0.076 C 
HETATM   17  C   UNL     1      40.657 -15.975   3.464  1.00  0.00     0.041 C 
HETATM   18  C   UNL     1      41.654 -16.725   4.345  1.00  0.00     0.126 C 
BRANCH  16  19
HETATM   19  C   UNL     1      41.611 -13.606   3.459  1.00  0.00     0.330 C 
HETATM   20  N   UNL     1      41.245 -13.440   4.835  1.00  0.00     0.018 N 
HETATM   21  H   UNL     1      41.553 -14.261   5.371  1.00  0.00     0.294 HD
HETATM   22  H   UNL     1      40.227 -13.486   4.918  1.00  0.00     0.294 HD
HETATM   23  O   UNL     1      42.274 -12.686   3.003  1.00  0.00    -0.264 OA
BRANCH  20  24
HETATM   24  C   UNL     1      41.691 -12.247   5.547  1.00  0.00     0.142 A 
HETATM   25  C   UNL     1      40.855 -11.131   5.610  1.00  0.00     0.037 A 
HETATM   26  C   UNL     1      41.255 -10.014   6.343  1.00  0.00     0.003 A 
HETATM   27  C   UNL     1      42.482 -10.014   7.012  1.00  0.00     0.018 A 
HETATM   28  C   UNL     1      43.317 -11.137   6.949  1.00  0.00     0.041 A 
HETATM   29  C   UNL     1      42.916 -12.262   6.211  1.00  0.00     0.055 A 
BRANCH  28  30
HETATM   30  C   UNL     1      44.632 -11.197   7.639  1.00  0.00     0.293 C 
HETATM   31  O   UNL     1      45.680 -11.266   7.018  1.00  0.00    -0.259 OA
BRANCH  30  32
HETATM   32  O   UNL     1      44.474 -11.192   8.980  1.00  0.00    -0.323 OA
HETATM   33  C   UNL     1      45.148 -10.121   9.646  1.00  0.00     0.213 C 
ENDBRANCH  30  32
ENDBRANCH  28  30
ENDBRANCH  20  24
ENDBRANCH  16  19
BRANCH  16  34
HETATM   34  C   UNL     1      40.214 -14.341   1.536  1.00  0.00     0.253 C 
BRANCH  34  35
HETATM   35  N   UNL     1      40.698 -14.096   0.105  1.00  0.00    -0.078 N 
HETATM   36  H   UNL     1      41.631 -14.513  -0.026  1.00  0.00     0.279 HD
HETATM   37  C   UNL     1      39.831 -14.626  -1.011  1.00  0.00     0.269 C 
HETATM   38  C   UNL     1      40.942 -12.606  -0.119  1.00  0.00     0.269 C 
ENDBRANCH  34  35
ENDBRANCH  16  34
ENDBRANCH   1  13
TORSDOF 7
ENDMDL
MODEL 2
REMARK VINA RESULT:      -8.4      2.955      7.750
REMARK  7 active torsions:
REMARK  status: ('A' for Active; 'I' for Inactive)
REMARK    1  A    between atoms: O_2  and  C_3 
REMARK    2  A    between atoms: C_3  and  C_5 
REMARK    3  A    between atoms: C_9  and  N_10 
REMARK       I    between atoms: N_10  and  C_13 
REMARK    4  A    between atoms: C_13  and  C_15 
REMARK    5  A    between atoms: C_15  and  C_16 
REMARK    6  A    between atoms: C_16  and  N_17 
REMARK    7  A    between atoms: N_23  and  C_26 
ROOT
HETATM    1  C   UNL     1      41.839  -9.683   5.553  1.00  0.00     0.142 A 
HETATM    2  N   UNL     1      41.111  -8.782   4.849  1.00  0.00    -0.224 NA
HETATM    3  C   UNL     1      40.997  -7.526   5.345  1.00  0.00     0.237 A 
HETATM    4  N   UNL     1      41.492  -7.042   6.493  1.00  0.00    -0.223 NA
HETATM    5  C   UNL     1      42.203  -7.961   7.156  1.00  0.00     0.144 A 
HETATM    6  N   UNL     1      42.848  -7.752   8.348  1.00  0.00    -0.348 N 
HETATM    7  H   UNL     1      42.842  -6.873   8.849  1.00  0.00     0.167 HD
HETATM    8  C   UNL     1      43.505  -8.902   8.724  1.00  0.00     0.113 A 
HETATM    9  C   UNL     1      43.275  -9.850   7.748  1.00  0.00     0.077 A 
HETATM   10  C   UNL     1      43.789 -11.183   7.709  1.00  0.00     0.102 C 
HETATM   11  N   UNL     1      44.112 -12.289   7.560  1.00  0.00    -0.191 NA
HETATM   12  C   UNL     1      42.428  -9.269   6.763  1.00  0.00     0.078 A 
ENDROOT
BRANCH   1  13
HETATM   13  N   UNL     1      42.009 -10.982   5.051  1.00  0.00    -0.365 N 
HETATM   14  C   UNL     1      40.807 -11.798   5.155  1.00  0.00     0.126 C 
HETATM   15  C   UNL     1      40.072 -11.832   3.825  1.00  0.00     0.041 C 
HETATM   16  C   UNL     1      40.993 -12.203   2.648  1.00  0.00     0.076 C 
HETATM   17  C   UNL     1      42.233 -11.286   2.598  1.00  0.00     0.041 C 
HETATM   18  C   UNL     1      42.934 -11.065   3.937  1.00  0.00     0.126 C 
BRANCH  16  19
HETATM   19  C   UNL     1      41.410 -13.695   2.805  1.00  0.00     0.330 C 
HETATM   20  N   UNL     1      42.760 -14.174   2.749  1.00  0.00     0.018 N 
HETATM   21  H   UNL     1      43.340 -13.638   3.408  1.00  0.00     0.294 HD
HETATM   22  H   UNL     1      43.164 -13.927   1.842  1.00  0.00     0.294 HD
HETATM   23  O   UNL     1      40.581 -14.563   3.032  1.00  0.00    -0.264 OA
BRANCH  20  24
HETATM   24  C   UNL     1      43.018 -15.591   2.975  1.00  0.00     0.142 A 
HETATM   25  C   UNL     1      43.099 -16.458   1.884  1.00  0.00     0.037 A 
HETATM   26  C   UNL     1      43.407 -17.802   2.095  1.00  0.00     0.003 A 
HETATM   27  C   UNL     1      43.636 -18.275   3.390  1.00  0.00     0.018 A 
HETATM   28  C   UNL     1      43.557 -17.402   4.482  1.00  0.00     0.041 A 
HETATM   29  C   UNL     1      43.246 -16.049   4.270  1.00  0.00     0.055 A 
BRANCH  28  30
HETATM   30  C   UNL     1      43.791 -17.846   5.881  1.00  0.00     0.293 C 
HETATM   31  O   UNL     1      43.426 -18.941   6.277  1.00  0.00    -0.259 OA
BRANCH  30  32
HETATM   32  O   UNL     1      44.408 -16.882   6.597  1.00  0.00    -0.323 OA
HETATM   33  C   UNL     1      43.789 -16.598   7.855  1.00  0.00     0.213 C 
ENDBRANCH  30  32
ENDBRANCH  28  30
ENDBRANCH  20  24
ENDBRANCH  16  19
BRANCH  16  34
HETATM   34  C   UNL     1      40.196 -12.138   1.291  1.00  0.00     0.253 C 
BRANCH  34  35
HETATM   35  N   UNL     1      40.727 -12.946   0.105  1.00  0.00    -0.078 N 
HETATM   36  H   UNL     1      41.641 -13.358   0.343  1.00  0.00     0.279 HD
HETATM   37  C   UNL     1      39.862 -14.078  -0.394  1.00  0.00     0.269 C 
HETATM   38  C   UNL     1      41.052 -12.016  -1.061  1.00  0.00     0.269 C 
ENDBRANCH  34  35
ENDBRANCH  16  34
ENDBRANCH   1  13
TORSDOF 7
ENDMDL
MODEL 3
REMARK VINA RESULT:      -8.3      2.579      3.015
REMARK  7 active torsions:
REMARK  status: ('A' for Active; 'I' for Inactive)
REMARK    1  A    between atoms: O_2  and  C_3 
REMARK    2  A    between atoms: C_3  and  C_5 
REMARK    3  A    between atoms: C_9  and  N_10 
REMARK       I    between atoms: N_10  and  C_13 
REMARK    4  A    between atoms: C_13  and  C_15 
REMARK    5  A    between atoms: C_15  and  C_16 
REMARK    6  A    between atoms: C_16  and  N_17 
REMARK    7  A    between atoms: N_23  and  C_26 
ROOT
HETATM    1  C   UNL     1      42.687 -17.128   3.478  1.00  0.00     0.142 A 
HETATM    2  N   UNL     1      42.918 -17.691   2.267  1.00  0.00    -0.224 NA
HETATM    3  C   UNL     1      43.522 -18.904   2.231  1.00  0.00     0.237 A 
HETATM    4  N   UNL     1      43.970 -19.635   3.262  1.00  0.00    -0.223 NA
HETATM    5  C   UNL     1      43.721 -19.047   4.437  1.00  0.00     0.144 A 
HETATM    6  N   UNL     1      44.042 -19.567   5.664  1.00  0.00    -0.348 N 
HETATM    7  H   UNL     1      44.509 -20.455   5.800  1.00  0.00     0.167 HD
HETATM    8  C   UNL     1      43.612 -18.711   6.654  1.00  0.00     0.113 A 
HETATM    9  C   UNL     1      43.004 -17.637   6.038  1.00  0.00     0.077 A 
HETATM   10  C   UNL     1      42.384 -16.519   6.678  1.00  0.00     0.102 C 
HETATM   11  N   UNL     1      41.872 -15.548   7.060  1.00  0.00    -0.191 NA
HETATM   12  C   UNL     1      43.093 -17.829   4.630  1.00  0.00     0.078 A 
ENDROOT
BRANCH   1  13
HETATM   13  N   UNL     1      42.031 -15.891   3.555  1.00  0.00    -0.365 N 
HETATM   14  C   UNL     1      42.802 -14.797   2.982  1.00  0.00     0.126 C 
HETATM   15  C   UNL     1      42.322 -14.490   1.573  1.00  0.00     0.041 C 
HETATM   16  C   UNL     1      40.796 -14.301   1.494  1.00  0.00     0.076 C 
HETATM   17  C   UNL     1      40.052 -15.506   2.107  1.00  0.00     0.041 C 
HETATM   18  C   UNL     1      40.586 -15.985   3.456  1.00  0.00     0.126 C 
BRANCH  16  19
HETATM   19  C   UNL     1      40.428 -12.984   2.236  1.00  0.00     0.330 C 
HETATM   20  N   UNL     1      39.227 -12.783   2.992  1.00  0.00     0.018 N 
HETATM   21  H   UNL     1      39.125 -13.541   3.678  1.00  0.00     0.294 HD
HETATM   22  H   UNL     1      38.419 -12.923   2.380  1.00  0.00     0.294 HD
HETATM   23  O   UNL     1      41.190 -12.029   2.245  1.00  0.00    -0.264 OA
BRANCH  20  24
HETATM   24  C   UNL     1      39.035 -11.517   3.691  1.00  0.00     0.142 A 
HETATM   25  C   UNL     1      38.571 -10.405   2.987  1.00  0.00     0.037 A 
HETATM   26  C   UNL     1      38.328  -9.212   3.668  1.00  0.00     0.003 A 
HETATM   27  C   UNL     1      38.544  -9.133   5.046  1.00  0.00     0.018 A 
HETATM   28  C   UNL     1      39.006 -10.252   5.751  1.00  0.00     0.041 A 
HETATM   29  C   UNL     1      39.251 -11.453   5.066  1.00  0.00     0.055 A 
BRANCH  28  30
HETATM   30  C   UNL     1      39.253 -10.229   7.216  1.00  0.00     0.293 C 
HETATM   31  O   UNL     1      38.638 -10.953   7.982  1.00  0.00    -0.259 OA
BRANCH  30  32
HETATM   32  O   UNL     1      40.190  -9.311   7.534  1.00  0.00    -0.323 OA
HETATM   33  C   UNL     1      40.076  -8.792   8.862  1.00  0.00     0.213 C 
ENDBRANCH  30  32
ENDBRANCH  28  30
ENDBRANCH  20  24
ENDBRANCH  16  19
BRANCH  16  34
HETATM   34  C   UNL     1      40.351 -14.073  -0.000  1.00  0.00     0.253 C 
BRANCH  34  35
HETATM   35  N   UNL     1      40.025 -12.645  -0.442  1.00  0.00    -0.078 N 
HETATM   36  H   UNL     1      39.926 -12.035   0.383  1.00  0.00     0.279 HD
HETATM   37  C   UNL     1      41.015 -11.969  -1.359  1.00  0.00     0.269 C 
HETATM   38  C   UNL     1      38.640 -12.598  -1.084  1.00  0.00     0.269 C 
ENDBRANCH  34  35
ENDBRANCH  16  34
ENDBRANCH   1  13
TORSDOF 7
ENDMDL
MODEL 4
REMARK VINA RESULT:      -8.2      2.991      6.606
REMARK  7 active torsions:
REMARK  status: ('A' for Active; 'I' for Inactive)
REMARK    1  A    between atoms: O_2  and  C_3 
REMARK    2  A    between atoms: C_3  and  C_5 
REMARK    3  A    between atoms: C_9  and  N_10 
REMARK       I    between atoms: N_10  and  C_13 
REMARK    4  A    between atoms: C_13  and  C_15 
REMARK    5  A    between atoms: C_15  and  C_16 
REMARK    6  A    between atoms: C_16  and  N_17 
REMARK    7  A    between atoms: N_23  and  C_26 
ROOT
HETATM    1  C   UNL     1      42.562 -15.399   5.228  1.00  0.00     0.142 A 
HETATM    2  N   UNL     1      42.412 -15.058   6.531  1.00  0.00    -0.224 NA
HETATM    3  C   UNL     1      42.807 -15.949   7.473  1.00  0.00     0.237 A 
HETATM    4  N   UNL     1      43.311 -17.178   7.291  1.00  0.00    -0.223 NA
HETATM    5  C   UNL     1      43.444 -17.474   5.993  1.00  0.00     0.144 A 
HETATM    6  N   UNL     1      43.952 -18.648   5.499  1.00  0.00    -0.348 N 
HETATM    7  H   UNL     1      44.274 -19.414   6.076  1.00  0.00     0.167 HD
HETATM    8  C   UNL     1      43.971 -18.599   4.123  1.00  0.00     0.113 A 
HETATM    9  C   UNL     1      43.472 -17.369   3.745  1.00  0.00     0.077 A 
HETATM   10  C   UNL     1      43.337 -16.872   2.412  1.00  0.00     0.102 C 
HETATM   11  N   UNL     1      43.148 -16.352   1.389  1.00  0.00    -0.191 NA
HETATM   12  C   UNL     1      43.110 -16.660   4.925  1.00  0.00     0.078 A 
ENDROOT
BRANCH   1  13
HETATM   13  N   UNL     1      42.198 -14.487   4.226  1.00  0.00    -0.365 N 
HETATM   14  C   UNL     1      40.763 -14.448   3.980  1.00  0.00     0.126 C 
HETATM   15  C   UNL     1      40.133 -13.266   4.699  1.00  0.00     0.041 C 
HETATM   16  C   UNL     1      40.864 -11.941   4.413  1.00  0.00     0.076 C 
HETATM   17  C   UNL     1      42.373 -12.059   4.711  1.00  0.00     0.041 C 
HETATM   18  C   UNL     1      43.049 -13.314   4.162  1.00  0.00     0.126 C 
BRANCH  16  19
HETATM   19  C   UNL     1      40.619 -11.559   2.924  1.00  0.00     0.330 C 
HETATM   20  N   UNL     1      41.652 -11.393   1.945  1.00  0.00     0.018 N 
HETATM   21  H   UNL     1      42.251 -12.228   1.936  1.00  0.00     0.294 HD
HETATM   22  H   UNL     1      42.293 -10.659   2.257  1.00  0.00     0.294 HD
HETATM   23  O   UNL     1      39.487 -11.414   2.487  1.00  0.00    -0.264 OA
BRANCH  20  24
HETATM   24  C   UNL     1      41.279 -11.095   0.567  1.00  0.00     0.142 A 
HETATM   25  C   UNL     1      41.329  -9.777   0.110  1.00  0.00     0.037 A 
HETATM   26  C   UNL     1      41.032  -9.501  -1.225  1.00  0.00     0.003 A 
HETATM   27  C   UNL     1      40.692 -10.537  -2.098  1.00  0.00     0.018 A 
HETATM   28  C   UNL     1      40.645 -11.858  -1.638  1.00  0.00     0.041 A 
HETATM   29  C   UNL     1      40.943 -12.138  -0.294  1.00  0.00     0.055 A 
BRANCH  28  30
HETATM   30  C   UNL     1      40.291 -13.002  -2.518  1.00  0.00     0.293 C 
HETATM   31  O   UNL     1      41.052 -13.407  -3.381  1.00  0.00    -0.259 OA
BRANCH  30  32
HETATM   32  O   UNL     1      39.053 -13.462  -2.237  1.00  0.00    -0.323 OA
HETATM   33  C   UNL     1      38.849 -14.838  -2.573  1.00  0.00     0.213 C 
ENDBRANCH  30  32
ENDBRANCH  28  30
ENDBRANCH  20  24
ENDBRANCH  16  19
BRANCH  16  34
HETATM   34  C   UNL     1      40.220 -10.772   5.251  1.00  0.00     0.253 C 
BRANCH  34  35
HETATM   35  N   UNL     1      40.065  -9.407   4.578  1.00  0.00    -0.078 N 
HETATM   36  H   UNL     1      40.239  -9.492   3.566  1.00  0.00     0.279 HD
HETATM   37  C   UNL     1      38.731  -8.717   4.729  1.00  0.00     0.269 C 
HETATM   38  C   UNL     1      41.170  -8.463   5.047  1.00  0.00     0.269 C 
ENDBRANCH  34  35
ENDBRANCH  16  34
ENDBRANCH   1  13
TORSDOF 7
ENDMDL
MODEL 5
REMARK VINA RESULT:      -8.0      3.079      7.042
REMARK  7 active torsions:
REMARK  status: ('A' for Active; 'I' for Inactive)
REMARK    1  A    between atoms: O_2  and  C_3 
REMARK    2  A    between atoms: C_3  and  C_5 
REMARK    3  A    between atoms: C_9  and  N_10 
REMARK       I    between atoms: N_10  and  C_13 
REMARK    4  A    between atoms: C_13  and  C_15 
REMARK    5  A    between atoms: C_15  and  C_16 
REMARK    6  A    between atoms: C_16  and  N_17 
REMARK    7  A    between atoms: N_23  and  C_26 
ROOT
HETATM    1  C   UNL     1      42.564 -15.315   5.224  1.00  0.00     0.142 A 
HETATM    2  N   UNL     1      42.464 -14.546   6.336  1.00  0.00    -0.224 NA
HETATM    3  C   UNL     1      42.849 -15.082   7.520  1.00  0.00     0.237 A 
HETATM    4  N   UNL     1      43.298 -16.322   7.760  1.00  0.00    -0.223 NA
HETATM    5  C   UNL     1      43.383 -17.047   6.639  1.00  0.00     0.144 A 
HETATM    6  N   UNL     1      43.830 -18.341   6.568  1.00  0.00    -0.348 N 
HETATM    7  H   UNL     1      44.137 -18.880   7.367  1.00  0.00     0.167 HD
HETATM    8  C   UNL     1      43.814 -18.762   5.257  1.00  0.00     0.113 A 
HETATM    9  C   UNL     1      43.354 -17.712   4.489  1.00  0.00     0.077 A 
HETATM   10  C   UNL     1      43.203 -17.691   3.068  1.00  0.00     0.102 C 
HETATM   11  N   UNL     1      43.007 -17.540   1.932  1.00  0.00    -0.191 NA
HETATM   12  C   UNL     1      43.053 -16.628   5.362  1.00  0.00     0.078 A 
ENDROOT
BRANCH   1  13
HETATM   13  N   UNL     1      42.210 -14.782   3.976  1.00  0.00    -0.365 N 
HETATM   14  C   UNL     1      40.788 -14.900   3.686  1.00  0.00     0.126 C 
HETATM   15  C   UNL     1      40.075 -13.590   3.979  1.00  0.00     0.041 C 
HETATM   16  C   UNL     1      40.761 -12.381   3.316  1.00  0.00     0.076 C 
HETATM   17  C   UNL     1      42.258 -12.317   3.684  1.00  0.00     0.041 C 
HETATM   18  C   UNL     1      43.012 -13.642   3.576  1.00  0.00     0.126 C 
BRANCH  16  19
HETATM   19  C   UNL     1      40.571 -12.495   1.775  1.00  0.00     0.330 C 
HETATM   20  N   UNL     1      39.466 -13.147   1.137  1.00  0.00     0.018 N 
HETATM   21  H   UNL     1      38.585 -12.772   1.512  1.00  0.00     0.294 HD
HETATM   22  H   UNL     1      39.438 -14.126   1.434  1.00  0.00     0.294 HD
HETATM   23  O   UNL     1      41.363 -11.981   1.000  1.00  0.00    -0.264 OA
BRANCH  20  24
HETATM   24  C   UNL     1      39.377 -13.127  -0.319  1.00  0.00     0.142 A 
HETATM   25  C   UNL     1      39.694 -14.277  -1.044  1.00  0.00     0.037 A 
HETATM   26  C   UNL     1      39.550 -14.276  -2.431  1.00  0.00     0.003 A 
HETATM   27  C   UNL     1      39.087 -13.133  -3.089  1.00  0.00     0.018 A 
HETATM   28  C   UNL     1      38.766 -11.982  -2.359  1.00  0.00     0.041 A 
HETATM   29  C   UNL     1      38.912 -11.982  -0.962  1.00  0.00     0.055 A 
BRANCH  28  30
HETATM   30  C   UNL     1      38.269 -10.738  -3.001  1.00  0.00     0.293 C 
HETATM   31  O   UNL     1      38.912 -10.157  -3.859  1.00  0.00    -0.259 OA
BRANCH  30  32
HETATM   32  O   UNL     1      37.076 -10.371  -2.484  1.00  0.00    -0.323 OA
HETATM   33  C   UNL     1      35.948 -10.969  -3.130  1.00  0.00     0.213 C 
ENDBRANCH  30  32
ENDBRANCH  28  30
ENDBRANCH  20  24
ENDBRANCH  16  19
BRANCH  16  34
HETATM   34  C   UNL     1      40.029 -11.047   3.725  1.00  0.00     0.253 C 
BRANCH  34  35
HETATM   35  N   UNL     1      39.683 -10.049   2.618  1.00  0.00    -0.078 N 
HETATM   36  H   UNL     1      39.992 -10.414   1.706  1.00  0.00     0.279 HD
HETATM   37  C   UNL     1      38.227  -9.680   2.462  1.00  0.00     0.269 C 
HETATM   38  C   UNL     1      40.505  -8.774   2.786  1.00  0.00     0.269 C 
ENDBRANCH  34  35
ENDBRANCH  16  34
ENDBRANCH   1  13
TORSDOF 7
ENDMDL
MODEL 6
REMARK VINA RESULT:      -7.9      3.281      5.141
REMARK  7 active torsions:
REMARK  status: ('A' for Active; 'I' for Inactive)
REMARK    1  A    between atoms: O_2  and  C_3 
REMARK    2  A    between atoms: C_3  and  C_5 
REMARK    3  A    between atoms: C_9  and  N_10 
REMARK       I    between atoms: N_10  and  C_13 
REMARK    4  A    between atoms: C_13  and  C_15 
REMARK    5  A    between atoms: C_15  and  C_16 
REMARK    6  A    between atoms: C_16  and  N_17 
REMARK    7  A    between atoms: N_23  and  C_26 
ROOT
HETATM    1  C   UNL     1      42.499 -16.795   3.373  1.00  0.00     0.142 A 
HETATM    2  N   UNL     1      42.825 -17.536   2.286  1.00  0.00    -0.224 NA
HETATM    3  C   UNL     1      43.492 -18.699   2.483  1.00  0.00     0.237 A 
HETATM    4  N   UNL     1      43.921 -19.221   3.641  1.00  0.00    -0.223 NA
HETATM    5  C   UNL     1      43.578 -18.461   4.687  1.00  0.00     0.144 A 
HETATM    6  N   UNL     1      43.859 -18.749   5.998  1.00  0.00    -0.348 N 
HETATM    7  H   UNL     1      44.363 -19.572   6.302  1.00  0.00     0.167 HD
HETATM    8  C   UNL     1      43.332 -17.769   6.808  1.00  0.00     0.113 A 
HETATM    9  C   UNL     1      42.703 -16.850   5.993  1.00  0.00     0.077 A 
HETATM   10  C   UNL     1      41.992 -15.681   6.407  1.00  0.00     0.102 C 
HETATM   11  N   UNL     1      41.410 -14.693   6.596  1.00  0.00    -0.191 NA
HETATM   12  C   UNL     1      42.878 -17.268   4.643  1.00  0.00     0.078 A 
ENDROOT
BRANCH   1  13
HETATM   13  N   UNL     1      41.776 -15.603   3.210  1.00  0.00    -0.365 N 
HETATM   14  C   UNL     1      42.461 -14.627   2.375  1.00  0.00     0.126 C 
HETATM   15  C   UNL     1      41.913 -14.662   0.958  1.00  0.00     0.041 C 
HETATM   16  C   UNL     1      40.377 -14.568   0.915  1.00  0.00     0.076 C 
HETATM   17  C   UNL     1      39.726 -15.643   1.811  1.00  0.00     0.041 C 
HETATM   18  C   UNL     1      40.337 -15.786   3.204  1.00  0.00     0.126 C 
BRANCH  16  19
HETATM   19  C   UNL     1      39.961 -13.138   1.369  1.00  0.00     0.330 C 
HETATM   20  N   UNL     1      38.777 -12.833   2.117  1.00  0.00     0.018 N 
HETATM   21  H   UNL     1      38.742 -13.427   2.956  1.00  0.00     0.294 HD
HETATM   22  H   UNL     1      37.959 -13.142   1.588  1.00  0.00     0.294 HD
HETATM   23  O   UNL     1      40.669 -12.170   1.135  1.00  0.00    -0.264 OA
BRANCH  20  24
HETATM   24  C   UNL     1      38.539 -11.456   2.533  1.00  0.00     0.142 A 
HETATM   25  C   UNL     1      39.044 -11.009   3.755  1.00  0.00     0.037 A 
HETATM   26  C   UNL     1      38.869  -9.675   4.124  1.00  0.00     0.003 A 
HETATM   27  C   UNL     1      38.198  -8.793   3.274  1.00  0.00     0.018 A 
HETATM   28  C   UNL     1      37.695  -9.243   2.047  1.00  0.00     0.041 A 
HETATM   29  C   UNL     1      37.870 -10.586   1.675  1.00  0.00     0.055 A 
BRANCH  28  30
HETATM   30  C   UNL     1      36.974  -8.353   1.101  1.00  0.00     0.293 C 
HETATM   31  O   UNL     1      35.973  -7.739   1.433  1.00  0.00    -0.259 OA
BRANCH  30  32
HETATM   32  O   UNL     1      37.560  -8.364  -0.115  1.00  0.00    -0.323 OA
HETATM   33  C   UNL     1      36.639  -8.417  -1.209  1.00  0.00     0.213 C 
ENDBRANCH  30  32
ENDBRANCH  28  30
ENDBRANCH  20  24
ENDBRANCH  16  19
BRANCH  16  34
HETATM   34  C   UNL     1      39.865 -14.696  -0.570  1.00  0.00     0.253 C 
BRANCH  34  35
HETATM   35  N   UNL     1      39.557 -13.408  -1.337  1.00  0.00    -0.078 N 
HETATM   36  H   UNL     1      39.519 -12.611  -0.685  1.00  0.00     0.279 HD
HETATM   37  C   UNL     1      40.516 -13.020  -2.436  1.00  0.00     0.269 C 
HETATM   38  C   UNL     1      38.142 -13.464  -1.908  1.00  0.00     0.269 C 
ENDBRANCH  34  35
ENDBRANCH  16  34
ENDBRANCH   1  13
TORSDOF 7
ENDMDL
MODEL 7
REMARK VINA RESULT:      -7.6      2.996      8.357
REMARK  7 active torsions:
REMARK  status: ('A' for Active; 'I' for Inactive)
REMARK    1  A    between atoms: O_2  and  C_3 
REMARK    2  A    between atoms: C_3  and  C_5 
REMARK    3  A    between atoms: C_9  and  N_10 
REMARK       I    between atoms: N_10  and  C_13 
REMARK    4  A    between atoms: C_13  and  C_15 
REMARK    5  A    between atoms: C_15  and  C_16 
REMARK    6  A    between atoms: C_16  and  N_17 
REMARK    7  A    between atoms: N_23  and  C_26 
ROOT
HETATM    1  C   UNL     1      42.696 -12.164   5.497  1.00  0.00     0.142 A 
HETATM    2  N   UNL     1      43.577 -13.099   5.929  1.00  0.00    -0.224 NA
HETATM    3  C   UNL     1      44.338 -12.808   7.011  1.00  0.00     0.237 A 
HETATM    4  N   UNL     1      44.369 -11.670   7.719  1.00  0.00    -0.223 NA
HETATM    5  C   UNL     1      43.485 -10.775   7.262  1.00  0.00     0.144 A 
HETATM    6  N   UNL     1      43.273  -9.531   7.798  1.00  0.00    -0.348 N 
HETATM    7  H   UNL     1      43.774  -9.164   8.597  1.00  0.00     0.167 HD
HETATM    8  C   UNL     1      42.272  -8.893   7.099  1.00  0.00     0.113 A 
HETATM    9  C   UNL     1      41.843  -9.754   6.110  1.00  0.00     0.077 A 
HETATM   10  C   UNL     1      40.798  -9.520   5.164  1.00  0.00     0.102 C 
HETATM   11  N   UNL     1      39.996  -9.458   4.325  1.00  0.00    -0.191 NA
HETATM   12  C   UNL     1      42.627 -10.940   6.190  1.00  0.00     0.078 A 
ENDROOT
BRANCH   1  13
HETATM   13  N   UNL     1      41.866 -12.445   4.402  1.00  0.00    -0.365 N 
HETATM   14  C   UNL     1      42.598 -12.608   3.154  1.00  0.00     0.126 C 
HETATM   15  C   UNL     1      42.799 -14.082   2.845  1.00  0.00     0.041 C 
HETATM   16  C   UNL     1      41.489 -14.888   2.923  1.00  0.00     0.076 C 
HETATM   17  C   UNL     1      40.782 -14.674   4.277  1.00  0.00     0.041 C 
HETATM   18  C   UNL     1      40.689 -13.222   4.741  1.00  0.00     0.126 C 
BRANCH  16  19
HETATM   19  C   UNL     1      40.575 -14.450   1.742  1.00  0.00     0.330 C 
HETATM   20  N   UNL     1      41.032 -14.199   0.407  1.00  0.00     0.018 N 
HETATM   21  H   UNL     1      41.571 -15.009   0.073  1.00  0.00     0.294 HD
HETATM   22  H   UNL     1      41.734 -13.455   0.428  1.00  0.00     0.294 HD
HETATM   23  O   UNL     1      39.368 -14.330   1.888  1.00  0.00    -0.264 OA
BRANCH  20  24
HETATM   24  C   UNL     1      40.057 -13.855  -0.622  1.00  0.00     0.142 A 
HETATM   25  C   UNL     1      39.542 -14.858  -1.445  1.00  0.00     0.037 A 
HETATM   26  C   UNL     1      38.564 -14.540  -2.387  1.00  0.00     0.003 A 
HETATM   27  C   UNL     1      38.101 -13.226  -2.502  1.00  0.00     0.018 A 
HETATM   28  C   UNL     1      38.617 -12.223  -1.673  1.00  0.00     0.041 A 
HETATM   29  C   UNL     1      39.602 -12.542  -0.725  1.00  0.00     0.055 A 
BRANCH  28  30
HETATM   30  C   UNL     1      38.164 -10.810  -1.749  1.00  0.00     0.293 C 
HETATM   31  O   UNL     1      37.032 -10.481  -1.434  1.00  0.00    -0.259 OA
BRANCH  30  32
HETATM   32  O   UNL     1      39.146 -10.012  -2.222  1.00  0.00    -0.323 OA
HETATM   33  C   UNL     1      39.111  -9.817  -3.639  1.00  0.00     0.213 C 
ENDBRANCH  30  32
ENDBRANCH  28  30
ENDBRANCH  20  24
ENDBRANCH  16  19
BRANCH  16  34
HETATM   34  C   UNL     1      41.775 -16.418   2.678  1.00  0.00     0.253 C 
BRANCH  34  35
HETATM   35  N   UNL     1      43.097 -16.993   3.191  1.00  0.00    -0.078 N 
HETATM   36  H   UNL     1      43.875 -16.368   2.935  1.00  0.00     0.279 HD
HETATM   37  C   UNL     1      43.209 -17.231   4.678  1.00  0.00     0.269 C 
HETATM   38  C   UNL     1      43.426 -18.289   2.454  1.00  0.00     0.269 C 
ENDBRANCH  34  35
ENDBRANCH  16  34
ENDBRANCH   1  13
TORSDOF 7
ENDMDL
MODEL 8
REMARK VINA RESULT:      -7.6      2.855      6.537
REMARK  7 active torsions:
REMARK  status: ('A' for Active; 'I' for Inactive)
REMARK    1  A    between atoms: O_2  and  C_3 
REMARK    2  A    between atoms: C_3  and  C_5 
REMARK    3  A    between atoms: C_9  and  N_10 
REMARK       I    between atoms: N_10  and  C_13 
REMARK    4  A    between atoms: C_13  and  C_15 
REMARK    5  A    between atoms: C_15  and  C_16 
REMARK    6  A    between atoms: C_16  and  N_17 
REMARK    7  A    between atoms: N_23  and  C_26 
ROOT
HETATM    1  C   UNL     1      39.746 -13.239   0.441  1.00  0.00     0.142 A 
HETATM    2  N   UNL     1      40.069 -14.484   0.012  1.00  0.00    -0.224 NA
HETATM    3  C   UNL     1      39.541 -14.912  -1.160  1.00  0.00     0.237 A 
HETATM    4  N   UNL     1      38.687 -14.267  -1.968  1.00  0.00    -0.223 NA
HETATM    5  C   UNL     1      38.395 -13.044  -1.510  1.00  0.00     0.144 A 
HETATM    6  N   UNL     1      37.569 -12.145  -2.133  1.00  0.00    -0.348 N 
HETATM    7  H   UNL     1      37.090 -12.324  -3.006  1.00  0.00     0.167 HD
HETATM    8  C   UNL     1      37.522 -10.979  -1.401  1.00  0.00     0.113 A 
HETATM    9  C   UNL     1      38.339 -11.146  -0.301  1.00  0.00     0.077 A 
HETATM   10  C   UNL     1      38.616 -10.181   0.716  1.00  0.00     0.102 C 
HETATM   11  N   UNL     1      38.909  -9.511   1.618  1.00  0.00    -0.191 NA
HETATM   12  C   UNL     1      38.876 -12.464  -0.349  1.00  0.00     0.078 A 
ENDROOT
BRANCH   1  13
HETATM   13  N   UNL     1      40.303 -12.748   1.631  1.00  0.00    -0.365 N 
HETATM   14  C   UNL     1      39.641 -13.256   2.825  1.00  0.00     0.126 C 
HETATM   15  C   UNL     1      40.433 -14.408   3.421  1.00  0.00     0.041 C 
HETATM   16  C   UNL     1      41.921 -14.065   3.617  1.00  0.00     0.076 C 
HETATM   17  C   UNL     1      42.553 -13.550   2.307  1.00  0.00     0.041 C 
HETATM   18  C   UNL     1      41.731 -12.504   1.555  1.00  0.00     0.126 C 
BRANCH  16  19
HETATM   19  C   UNL     1      42.034 -13.000   4.746  1.00  0.00     0.330 C 
HETATM   20  N   UNL     1      42.942 -11.891   4.733  1.00  0.00     0.018 N 
HETATM   21  H   UNL     1      42.834 -11.372   3.852  1.00  0.00     0.294 HD
HETATM   22  H   UNL     1      43.900 -12.245   4.669  1.00  0.00     0.294 HD
HETATM   23  O   UNL     1      41.299 -13.033   5.721  1.00  0.00    -0.264 OA
BRANCH  20  24
HETATM   24  C   UNL     1      42.900 -10.930   5.828  1.00  0.00     0.142 A 
HETATM   25  C   UNL     1      41.972  -9.888   5.794  1.00  0.00     0.037 A 
HETATM   26  C   UNL     1      41.890  -9.005   6.871  1.00  0.00     0.003 A 
HETATM   27  C   UNL     1      42.729  -9.165   7.977  1.00  0.00     0.018 A 
HETATM   28  C   UNL     1      43.657 -10.213   8.010  1.00  0.00     0.041 A 
HETATM   29  C   UNL     1      43.741 -11.102   6.926  1.00  0.00     0.055 A 
BRANCH  28  30
HETATM   30  C   UNL     1      44.574 -10.436   9.157  1.00  0.00     0.293 C 
HETATM   31  O   UNL     1      45.710  -9.991   9.166  1.00  0.00    -0.259 OA
BRANCH  30  32
HETATM   32  O   UNL     1      43.984 -11.189  10.109  1.00  0.00    -0.323 OA
HETATM   33  C   UNL     1      43.659 -10.474  11.305  1.00  0.00     0.213 C 
ENDBRANCH  30  32
ENDBRANCH  28  30
ENDBRANCH  20  24
ENDBRANCH  16  19
BRANCH  16  34
HETATM   34  C   UNL     1      42.704 -15.323   4.156  1.00  0.00     0.253 C 
BRANCH  34  35
HETATM   35  N   UNL     1      42.751 -15.546   5.669  1.00  0.00    -0.078 N 
HETATM   36  H   UNL     1      42.664 -14.645   6.160  1.00  0.00     0.279 HD
HETATM   37  C   UNL     1      41.703 -16.460   6.258  1.00  0.00     0.269 C 
HETATM   38  C   UNL     1      44.134 -16.042   6.083  1.00  0.00     0.269 C 
ENDBRANCH  34  35
ENDBRANCH  16  34
ENDBRANCH   1  13
TORSDOF 7
ENDMDL
MODEL 9
REMARK VINA RESULT:      -7.6      2.257      3.144
REMARK  7 active torsions:
REMARK  status: ('A' for Active; 'I' for Inactive)
REMARK    1  A    between atoms: O_2  and  C_3 
REMARK    2  A    between atoms: C_3  and  C_5 
REMARK    3  A    between atoms: C_9  and  N_10 
REMARK       I    between atoms: N_10  and  C_13 
REMARK    4  A    between atoms: C_13  and  C_15 
REMARK    5  A    between atoms: C_15  and  C_16 
REMARK    6  A    between atoms: C_16  and  N_17 
REMARK    7  A    between atoms: N_23  and  C_26 
ROOT
HETATM    1  C   UNL     1      42.756 -15.608   3.994  1.00  0.00     0.142 A 
HETATM    2  N   UNL     1      42.606 -15.504   2.650  1.00  0.00    -0.224 NA
HETATM    3  C   UNL     1      42.868 -16.595   1.892  1.00  0.00     0.237 A 
HETATM    4  N   UNL     1      43.305 -17.798   2.294  1.00  0.00    -0.223 NA
HETATM    5  C   UNL     1      43.438 -17.860   3.624  1.00  0.00     0.144 A 
HETATM    6  N   UNL     1      43.844 -18.965   4.326  1.00  0.00    -0.348 N 
HETATM    7  H   UNL     1      44.090 -19.849   3.899  1.00  0.00     0.167 HD
HETATM    8  C   UNL     1      43.837 -18.683   5.674  1.00  0.00     0.113 A 
HETATM    9  C   UNL     1      43.413 -17.379   5.823  1.00  0.00     0.077 A 
HETATM   10  C   UNL     1      43.226 -16.673   7.051  1.00  0.00     0.102 C 
HETATM   11  N   UNL     1      43.055 -15.974   7.964  1.00  0.00    -0.191 NA
HETATM   12  C   UNL     1      43.183 -16.840   4.525  1.00  0.00     0.078 A 
ENDROOT
BRANCH   1  13
HETATM   13  N   UNL     1      42.458 -14.510   4.814  1.00  0.00    -0.365 N 
HETATM   14  C   UNL     1      43.330 -13.367   4.579  1.00  0.00     0.126 C 
HETATM   15  C   UNL     1      42.643 -12.351   3.682  1.00  0.00     0.041 C 
HETATM   16  C   UNL     1      41.232 -11.983   4.176  1.00  0.00     0.076 C 
HETATM   17  C   UNL     1      40.367 -13.243   4.385  1.00  0.00     0.041 C 
HETATM   18  C   UNL     1      41.050 -14.384   5.138  1.00  0.00     0.126 C 
BRANCH  16  19
HETATM   19  C   UNL     1      41.371 -11.177   5.500  1.00  0.00     0.330 C 
HETATM   20  N   UNL     1      42.432 -10.256   5.786  1.00  0.00     0.018 N 
HETATM   21  H   UNL     1      42.506  -9.574   5.020  1.00  0.00     0.294 HD
HETATM   22  H   UNL     1      43.326 -10.750   5.734  1.00  0.00     0.294 HD
HETATM   23  O   UNL     1      40.531 -11.262   6.383  1.00  0.00    -0.264 OA
BRANCH  20  24
HETATM   24  C   UNL     1      42.408  -9.518   7.043  1.00  0.00     0.142 A 
HETATM   25  C   UNL     1      41.733  -8.298   7.112  1.00  0.00     0.037 A 
HETATM   26  C   UNL     1      41.657  -7.623   8.330  1.00  0.00     0.003 A 
HETATM   27  C   UNL     1      42.250  -8.166   9.473  1.00  0.00     0.018 A 
HETATM   28  C   UNL     1      42.924  -9.391   9.402  1.00  0.00     0.041 A 
HETATM   29  C   UNL     1      43.001 -10.072   8.176  1.00  0.00     0.055 A 
BRANCH  28  30
HETATM   30  C   UNL     1      43.572 -10.019  10.582  1.00  0.00     0.293 C 
HETATM   31  O   UNL     1      44.225 -11.045  10.485  1.00  0.00    -0.259 OA
BRANCH  30  32
HETATM   32  O   UNL     1      43.306  -9.323  11.707  1.00  0.00    -0.323 OA
HETATM   33  C   UNL     1      42.403  -9.977  12.602  1.00  0.00     0.213 C 
ENDBRANCH  30  32
ENDBRANCH  28  30
ENDBRANCH  20  24
ENDBRANCH  16  19
BRANCH  16  34
HETATM   34  C   UNL     1      40.540 -10.995   3.162  1.00  0.00     0.253 C 
BRANCH  34  35
HETATM   35  N   UNL     1      39.366 -11.520   2.334  1.00  0.00    -0.078 N 
HETATM   36  H   UNL     1      39.057 -12.432   2.701  1.00  0.00     0.279 HD
HETATM   37  C   UNL     1      38.136 -10.648   2.260  1.00  0.00     0.269 C 
HETATM   38  C   UNL     1      39.829 -11.849   0.917  1.00  0.00     0.269 C 
ENDBRANCH  34  35
ENDBRANCH  16  34
ENDBRANCH   1  13
TORSDOF 7
ENDMDL
MODEL 10
REMARK VINA RESULT:      -7.4      3.024      6.527
REMARK  7 active torsions:
REMARK  status: ('A' for Active; 'I' for Inactive)
REMARK    1  A    between atoms: O_2  and  C_3 
REMARK    2  A    between atoms: C_3  and  C_5 
REMARK    3  A    between atoms: C_9  and  N_10 
REMARK       I    between atoms: N_10  and  C_13 
REMARK    4  A    between atoms: C_13  and  C_15 
REMARK    5  A    between atoms: C_15  and  C_16 
REMARK    6  A    between atoms: C_16  and  N_17 
REMARK    7  A    between atoms: N_23  and  C_26 
ROOT
HETATM    1  C   UNL     1      42.519 -15.362   5.191  1.00  0.00     0.142 A 
HETATM    2  N   UNL     1      42.334 -15.038   6.494  1.00  0.00    -0.224 NA
HETATM    3  C   UNL     1      42.689 -15.947   7.434  1.00  0.00     0.237 A 
HETATM    4  N   UNL     1      43.182 -17.180   7.249  1.00  0.00    -0.223 NA
HETATM    5  C   UNL     1      43.350 -17.459   5.951  1.00  0.00     0.144 A 
HETATM    6  N   UNL     1      43.858 -18.633   5.456  1.00  0.00    -0.348 N 
HETATM    7  H   UNL     1      44.152 -19.411   6.032  1.00  0.00     0.167 HD
HETATM    8  C   UNL     1      43.920 -18.564   4.082  1.00  0.00     0.113 A 
HETATM    9  C   UNL     1      43.448 -17.322   3.707  1.00  0.00     0.077 A 
HETATM   10  C   UNL     1      43.360 -16.805   2.378  1.00  0.00     0.102 C 
HETATM   11  N   UNL     1      43.209 -16.268   1.358  1.00  0.00    -0.191 NA
HETATM   12  C   UNL     1      43.060 -16.625   4.886  1.00  0.00     0.078 A 
ENDROOT
BRANCH   1  13
HETATM   13  N   UNL     1      42.198 -14.431   4.191  1.00  0.00    -0.365 N 
HETATM   14  C   UNL     1      40.764 -14.284   3.986  1.00  0.00     0.126 C 
HETATM   15  C   UNL     1      40.247 -13.053   4.712  1.00  0.00     0.041 C 
HETATM   16  C   UNL     1      41.068 -11.790   4.394  1.00  0.00     0.076 C 
HETATM   17  C   UNL     1      42.571 -12.021   4.652  1.00  0.00     0.041 C 
HETATM   18  C   UNL     1      43.134 -13.327   4.094  1.00  0.00     0.126 C 
BRANCH  16  19
HETATM   19  C   UNL     1      40.810 -11.399   2.910  1.00  0.00     0.330 C 
HETATM   20  N   UNL     1      41.819 -11.356   1.892  1.00  0.00     0.018 N 
HETATM   21  H   UNL     1      42.324 -12.251   1.874  1.00  0.00     0.294 HD
HETATM   22  H   UNL     1      42.546 -10.693   2.171  1.00  0.00     0.294 HD
HETATM   23  O   UNL     1      39.686 -11.137   2.511  1.00  0.00    -0.264 OA
BRANCH  20  24
HETATM   24  C   UNL     1      41.429 -11.034   0.524  1.00  0.00     0.142 A 
HETATM   25  C   UNL     1      40.841 -12.017  -0.273  1.00  0.00     0.037 A 
HETATM   26  C   UNL     1      40.412 -11.693  -1.560  1.00  0.00     0.003 A 
HETATM   27  C   UNL     1      40.567 -10.391  -2.045  1.00  0.00     0.018 A 
HETATM   28  C   UNL     1      41.155  -9.406  -1.242  1.00  0.00     0.041 A 
HETATM   29  C   UNL     1      41.587  -9.732   0.053  1.00  0.00     0.055 A 
BRANCH  28  30
HETATM   30  C   UNL     1      41.345  -8.006  -1.702  1.00  0.00     0.293 C 
HETATM   31  O   UNL     1      40.514  -7.140  -1.483  1.00  0.00    -0.259 OA
BRANCH  30  32
HETATM   32  O   UNL     1      42.504  -7.875  -2.383  1.00  0.00    -0.323 OA
HETATM   33  C   UNL     1      42.338  -7.527  -3.760  1.00  0.00     0.213 C 
ENDBRANCH  30  32
ENDBRANCH  28  30
ENDBRANCH  20  24
ENDBRANCH  16  19
BRANCH  16  34
HETATM   34  C   UNL     1      40.539 -10.569   5.240  1.00  0.00     0.253 C 
BRANCH  34  35
HETATM   35  N   UNL     1      39.117 -10.646   5.800  1.00  0.00    -0.078 N 
HETATM   36  H   UNL     1      38.643 -11.487   5.443  1.00  0.00     0.279 HD
HETATM   37  C   UNL     1      38.975 -10.678   7.303  1.00  0.00     0.269 C 
HETATM   38  C   UNL     1      38.273  -9.501   5.245  1.00  0.00     0.269 C 
ENDBRANCH  34  35
ENDBRANCH  16  34
ENDBRANCH   1  13
TORSDOF 7
ENDMDL
