MODEL 1
REMARK VINA RESULT:      -8.8      0.000      0.000
REMARK  8 active torsions:
REMARK  status: ('A' for Active; 'I' for Inactive)
REMARK    1  A    between atoms: N_4  and  C_6 
REMARK    2  A    between atoms: C_6  and  C_7 
REMARK       I    between atoms: C_7  and  N_8 
REMARK    3  A    between atoms: N_8  and  C_9 
REMARK    4  A    between atoms: C_15  and  C_16 
REMARK    5  A    between atoms: C_21  and  C_22 
REMARK       I    between atoms: C_22  and  N_23 
REMARK    6  A    between atoms: N_23  and  C_24 
REMARK    7  A    between atoms: C_25  and  O_26 
REMARK    8  A    between atoms: C_29  and  O_30 
ROOT
HETATM    1  C   UNL     1      41.662 -11.372   5.849  1.00  0.00     0.093 C 
HETATM    2  S   UNL     1      40.659 -10.984   4.538  1.00  0.00    -0.075 SA
HETATM    3  C   UNL     1      41.410 -12.126   3.545  1.00  0.00    -0.008 C 
HETATM    4  C   UNL     1      42.489 -12.744   4.152  1.00  0.00    -0.026 C 
HETATM    5  C   UNL     1      43.336 -13.702   3.363  1.00  0.00     0.041 C 
HETATM    6  C   UNL     1      42.993 -13.742   1.870  1.00  0.00     0.010 C 
HETATM    7  C   UNL     1      41.484 -13.669   1.541  1.00  0.00    -0.002 C 
HETATM    8  C   UNL     1      40.915 -12.363   2.149  1.00  0.00     0.052 C 
HETATM    9  C   UNL     1      42.584 -12.382   5.563  1.00  0.00     0.073 C 
ENDROOT
BRANCH   9  10
HETATM   10  C   UNL     1      43.399 -12.952   6.662  1.00  0.00     0.259 C 
HETATM   11  N   UNL     1      43.009 -14.160   7.171  1.00  0.00    -0.320 N 
HETATM   12  H   UNL     1      42.883 -14.165   8.179  1.00  0.00     0.169 HD
HETATM   13  O   UNL     1      44.187 -12.241   7.294  1.00  0.00    -0.267 OA
BRANCH  11  14
HETATM   14  C   UNL     1      43.392 -15.446   6.724  1.00  0.00     0.068 A 
HETATM   15  C   UNL     1      42.380 -16.428   6.705  1.00  0.00     0.097 A 
HETATM   16  C   UNL     1      42.639 -17.693   6.171  1.00  0.00     0.075 A 
HETATM   17  C   UNL     1      43.903 -17.984   5.656  1.00  0.00     0.070 A 
HETATM   18  C   UNL     1      44.916 -17.021   5.727  1.00  0.00     0.039 A 
HETATM   19  C   UNL     1      44.671 -15.756   6.270  1.00  0.00     0.035 A 
BRANCH  15  20
HETATM   20  O   UNL     1      41.171 -16.036   7.235  1.00  0.00    -0.354 OA
HETATM   21  C   UNL     1      40.074 -15.974   6.332  1.00  0.00     0.210 C 
ENDBRANCH  15  20
BRANCH  17  22
HETATM   22  O   UNL     1      44.277 -19.160   5.064  1.00  0.00    -0.356 OA
HETATM   23  C   UNL     1      43.833 -20.366   5.675  1.00  0.00     0.210 C 
ENDBRANCH  17  22
ENDBRANCH  11  14
ENDBRANCH   9  10
BRANCH   1  24
HETATM   24  N   UNL     1      41.407 -10.800   7.092  1.00  0.00    -0.319 N 
HETATM   25  C   UNL     1      41.350  -9.449   7.348  1.00  0.00     0.248 C 
HETATM   26  O   UNL     1      41.811  -8.530   6.669  1.00  0.00    -0.271 OA
HETATM   27  H   UNL     1      41.413 -11.469   7.866  1.00  0.00     0.169 HD
BRANCH  25  28
HETATM   28  C   UNL     1      40.578  -9.077   8.619  1.00  0.00     0.337 C 
BRANCH  28  29
HETATM   29  N   UNL     1      41.317  -9.629   9.850  1.00  0.00    -0.062 N 
HETATM   30  C   UNL     1      42.820  -9.474   9.748  1.00  0.00     0.239 C 
HETATM   31  C   UNL     1      43.476 -10.279  10.871  1.00  0.00     0.007 C 
HETATM   32  C   UNL     1      44.997 -10.158  10.805  1.00  0.00     0.011 C 
HETATM   33  C   UNL     1      42.952  -9.826  12.239  1.00  0.00     0.007 C 
HETATM   34  C   UNL     1      41.427  -9.891  12.298  1.00  0.00     0.028 C 
HETATM   35  C   UNL     1      40.773  -9.129  11.153  1.00  0.00     0.235 C 
HETATM   36  H   UNL     1      41.144 -10.649   9.782  1.00  0.00     0.280 HD
ENDBRANCH  28  29
ENDBRANCH  25  28
ENDBRANCH   1  24
BRANCH   7  37
HETATM   37  C   UNL     1      40.646 -14.982   1.803  1.00  0.00    -0.047 C 
HETATM   38  C   UNL     1      41.456 -16.186   2.313  1.00  0.00     0.015 C 
HETATM   39  C   UNL     1      39.549 -14.692   2.855  1.00  0.00     0.015 C 
HETATM   40  C   UNL     1      39.924 -15.411   0.505  1.00  0.00     0.015 C 
ENDBRANCH   7  37
TORSDOF 8
ENDMDL
MODEL 2
REMARK VINA RESULT:      -8.4      3.084      4.648
REMARK  8 active torsions:
REMARK  status: ('A' for Active; 'I' for Inactive)
REMARK    1  A    between atoms: N_4  and  C_6 
REMARK    2  A    between atoms: C_6  and  C_7 
REMARK       I    between atoms: C_7  and  N_8 
REMARK    3  A    between atoms: N_8  and  C_9 
REMARK    4  A    between atoms: C_15  and  C_16 
REMARK    5  A    between atoms: C_21  and  C_22 
REMARK       I    between atoms: C_22  and  N_23 
REMARK    6  A    between atoms: N_23  and  C_24 
REMARK    7  A    between atoms: C_25  and  O_26 
REMARK    8  A    between atoms: C_29  and  O_30 
ROOT
HETATM    1  C   UNL     1      41.215 -11.419   1.883  1.00  0.00     0.093 C 
HETATM    2  S   UNL     1      41.435 -10.442   0.515  1.00  0.00    -0.075 SA
HETATM    3  C   UNL     1      40.612 -11.535  -0.476  1.00  0.00    -0.008 C 
HETATM    4  C   UNL     1      40.247 -12.695   0.185  1.00  0.00    -0.026 C 
HETATM    5  C   UNL     1      39.609 -13.817  -0.582  1.00  0.00     0.041 C 
HETATM    6  C   UNL     1      39.604 -13.601  -2.100  1.00  0.00     0.010 C 
HETATM    7  C   UNL     1      39.309 -12.153  -2.555  1.00  0.00    -0.002 C 
HETATM    8  C   UNL     1      40.369 -11.217  -1.921  1.00  0.00     0.052 C 
HETATM    9  C   UNL     1      40.505 -12.593   1.619  1.00  0.00     0.073 C 
ENDROOT
BRANCH   9  10
HETATM   10  C   UNL     1      40.078 -13.453   2.749  1.00  0.00     0.259 C 
HETATM   11  N   UNL     1      40.226 -14.804   2.599  1.00  0.00    -0.320 N 
HETATM   12  H   UNL     1      39.376 -15.335   2.766  1.00  0.00     0.169 HD
HETATM   13  O   UNL     1      39.345 -13.006   3.636  1.00  0.00    -0.267 OA
BRANCH  11  14
HETATM   14  C   UNL     1      41.358 -15.587   2.922  1.00  0.00     0.068 A 
HETATM   15  C   UNL     1      41.350 -16.205   4.189  1.00  0.00     0.097 A 
HETATM   16  C   UNL     1      42.372 -17.089   4.546  1.00  0.00     0.075 A 
HETATM   17  C   UNL     1      43.403 -17.358   3.645  1.00  0.00     0.070 A 
HETATM   18  C   UNL     1      43.432 -16.700   2.411  1.00  0.00     0.039 A 
HETATM   19  C   UNL     1      42.420 -15.805   2.048  1.00  0.00     0.035 A 
BRANCH  15  20
HETATM   20  O   UNL     1      40.287 -15.872   4.998  1.00  0.00    -0.354 OA
HETATM   21  C   UNL     1      40.533 -15.869   6.400  1.00  0.00     0.210 C 
ENDBRANCH  15  20
BRANCH  17  22
HETATM   22  O   UNL     1      44.436 -18.234   3.846  1.00  0.00    -0.356 OA
HETATM   23  C   UNL     1      44.198 -19.331   4.722  1.00  0.00     0.210 C 
ENDBRANCH  17  22
ENDBRANCH  11  14
ENDBRANCH   9  10
BRANCH   1  24
HETATM   24  N   UNL     1      41.598 -10.936   3.131  1.00  0.00    -0.319 N 
HETATM   25  C   UNL     1      40.834 -10.125   3.939  1.00  0.00     0.248 C 
HETATM   26  O   UNL     1      39.871  -9.428   3.616  1.00  0.00    -0.271 OA
HETATM   27  H   UNL     1      42.581 -11.104   3.357  1.00  0.00     0.169 HD
BRANCH  25  28
HETATM   28  C   UNL     1      41.233 -10.145   5.418  1.00  0.00     0.337 C 
BRANCH  28  29
HETATM   29  N   UNL     1      42.410 -11.116   5.620  1.00  0.00    -0.062 N 
HETATM   30  C   UNL     1      43.477 -10.556   6.536  1.00  0.00     0.239 C 
HETATM   31  C   UNL     1      44.711 -11.459   6.465  1.00  0.00     0.007 C 
HETATM   32  C   UNL     1      45.820 -10.929   7.372  1.00  0.00     0.011 C 
HETATM   33  C   UNL     1      44.347 -12.902   6.835  1.00  0.00     0.007 C 
HETATM   34  C   UNL     1      43.201 -13.424   5.971  1.00  0.00     0.028 C 
HETATM   35  C   UNL     1      41.989 -12.501   6.004  1.00  0.00     0.235 C 
HETATM   36  H   UNL     1      42.846 -11.145   4.681  1.00  0.00     0.280 HD
ENDBRANCH  28  29
ENDBRANCH  25  28
ENDBRANCH   1  24
BRANCH   7  37
HETATM   37  C   UNL     1      37.808 -11.677  -2.448  1.00  0.00    -0.047 C 
HETATM   38  C   UNL     1      37.361 -11.228  -1.046  1.00  0.00     0.015 C 
HETATM   39  C   UNL     1      37.575 -10.483  -3.405  1.00  0.00     0.015 C 
HETATM   40  C   UNL     1      36.864 -12.812  -2.906  1.00  0.00     0.015 C 
ENDBRANCH   7  37
TORSDOF 8
ENDMDL
MODEL 3
REMARK VINA RESULT:      -8.3      2.376      8.203
REMARK  8 active torsions:
REMARK  status: ('A' for Active; 'I' for Inactive)
REMARK    1  A    between atoms: N_4  and  C_6 
REMARK    2  A    between atoms: C_6  and  C_7 
REMARK       I    between atoms: C_7  and  N_8 
REMARK    3  A    between atoms: N_8  and  C_9 
REMARK    4  A    between atoms: C_15  and  C_16 
REMARK    5  A    between atoms: C_21  and  C_22 
REMARK       I    between atoms: C_22  and  N_23 
REMARK    6  A    between atoms: N_23  and  C_24 
REMARK    7  A    between atoms: C_25  and  O_26 
REMARK    8  A    between atoms: C_29  and  O_30 
ROOT
HETATM    1  C   UNL     1      42.641 -12.407   6.181  1.00  0.00     0.093 C 
HETATM    2  S   UNL     1      44.140 -12.198   6.945  1.00  0.00    -0.075 SA
HETATM    3  C   UNL     1      43.658 -10.730   7.629  1.00  0.00    -0.008 C 
HETATM    4  C   UNL     1      42.401 -10.327   7.213  1.00  0.00    -0.026 C 
HETATM    5  C   UNL     1      41.871  -8.988   7.639  1.00  0.00     0.041 C 
HETATM    6  C   UNL     1      42.905  -8.119   8.365  1.00  0.00     0.010 C 
HETATM    7  C   UNL     1      43.827  -8.879   9.347  1.00  0.00    -0.002 C 
HETATM    8  C   UNL     1      44.571  -9.987   8.558  1.00  0.00     0.052 C 
HETATM    9  C   UNL     1      41.739 -11.371   6.435  1.00  0.00     0.073 C 
ENDROOT
BRANCH   9  10
HETATM   10  C   UNL     1      40.333 -11.507   5.985  1.00  0.00     0.259 C 
HETATM   11  N   UNL     1      40.039 -11.101   4.713  1.00  0.00    -0.320 N 
HETATM   12  H   UNL     1      39.275 -10.433   4.657  1.00  0.00     0.169 HD
HETATM   13  O   UNL     1      39.425 -11.677   6.805  1.00  0.00    -0.267 OA
BRANCH  11  14
HETATM   14  C   UNL     1      40.098 -11.871   3.529  1.00  0.00     0.068 A 
HETATM   15  C   UNL     1      40.837 -11.320   2.461  1.00  0.00     0.097 A 
HETATM   16  C   UNL     1      41.046 -12.061   1.295  1.00  0.00     0.075 A 
HETATM   17  C   UNL     1      40.520 -13.350   1.188  1.00  0.00     0.070 A 
HETATM   18  C   UNL     1      39.744 -13.868   2.230  1.00  0.00     0.039 A 
HETATM   19  C   UNL     1      39.519 -13.130   3.397  1.00  0.00     0.035 A 
BRANCH  15  20
HETATM   20  O   UNL     1      41.312 -10.044   2.673  1.00  0.00    -0.354 OA
HETATM   21  C   UNL     1      40.779  -9.023   1.838  1.00  0.00     0.210 C 
ENDBRANCH  15  20
BRANCH  17  22
HETATM   22  O   UNL     1      40.688 -14.198   0.127  1.00  0.00    -0.356 OA
HETATM   23  C   UNL     1      39.716 -14.142  -0.911  1.00  0.00     0.210 C 
ENDBRANCH  17  22
ENDBRANCH  11  14
ENDBRANCH   9  10
BRANCH   1  24
HETATM   24  N   UNL     1      42.377 -13.604   5.521  1.00  0.00    -0.319 N 
HETATM   25  C   UNL     1      42.032 -14.789   6.131  1.00  0.00     0.248 C 
HETATM   26  O   UNL     1      42.202 -15.110   7.308  1.00  0.00    -0.271 OA
HETATM   27  H   UNL     1      42.610 -13.589   4.525  1.00  0.00     0.169 HD
BRANCH  25  28
HETATM   28  C   UNL     1      41.317 -15.788   5.216  1.00  0.00     0.337 C 
BRANCH  28  29
HETATM   29  N   UNL     1      42.355 -16.542   4.367  1.00  0.00    -0.062 N 
HETATM   30  C   UNL     1      42.796 -17.843   5.003  1.00  0.00     0.239 C 
HETATM   31  C   UNL     1      44.005 -18.383   4.236  1.00  0.00     0.007 C 
HETATM   32  C   UNL     1      44.490 -19.696   4.847  1.00  0.00     0.011 C 
HETATM   33  C   UNL     1      43.668 -18.564   2.751  1.00  0.00     0.007 C 
HETATM   34  C   UNL     1      43.130 -17.271   2.143  1.00  0.00     0.028 C 
HETATM   35  C   UNL     1      41.956 -16.707   2.933  1.00  0.00     0.235 C 
HETATM   36  H   UNL     1      43.185 -15.922   4.415  1.00  0.00     0.280 HD
ENDBRANCH  28  29
ENDBRANCH  25  28
ENDBRANCH   1  24
BRANCH   7  37
HETATM   37  C   UNL     1      43.180  -9.316  10.719  1.00  0.00    -0.047 C 
HETATM   38  C   UNL     1      41.648  -9.454  10.707  1.00  0.00     0.015 C 
HETATM   39  C   UNL     1      43.758 -10.687  11.148  1.00  0.00     0.015 C 
HETATM   40  C   UNL     1      43.557  -8.303  11.823  1.00  0.00     0.015 C 
ENDBRANCH   7  37
TORSDOF 8
ENDMDL
MODEL 4
REMARK VINA RESULT:      -8.3      2.639      5.509
REMARK  8 active torsions:
REMARK  status: ('A' for Active; 'I' for Inactive)
REMARK    1  A    between atoms: N_4  and  C_6 
REMARK    2  A    between atoms: C_6  and  C_7 
REMARK       I    between atoms: C_7  and  N_8 
REMARK    3  A    between atoms: N_8  and  C_9 
REMARK    4  A    between atoms: C_15  and  C_16 
REMARK    5  A    between atoms: C_21  and  C_22 
REMARK       I    between atoms: C_22  and  N_23 
REMARK    6  A    between atoms: N_23  and  C_24 
REMARK    7  A    between atoms: C_25  and  O_26 
REMARK    8  A    between atoms: C_29  and  O_30 
ROOT
HETATM    1  C   UNL     1      43.619 -13.014   6.777  1.00  0.00     0.093 C 
HETATM    2  S   UNL     1      44.003 -14.663   6.684  1.00  0.00    -0.075 SA
HETATM    3  C   UNL     1      42.728 -14.963   5.617  1.00  0.00    -0.008 C 
HETATM    4  C   UNL     1      41.936 -13.851   5.394  1.00  0.00    -0.026 C 
HETATM    5  C   UNL     1      40.694 -13.979   4.560  1.00  0.00     0.041 C 
HETATM    6  C   UNL     1      40.345 -15.425   4.191  1.00  0.00     0.010 C 
HETATM    7  C   UNL     1      41.554 -16.320   3.832  1.00  0.00    -0.002 C 
HETATM    8  C   UNL     1      42.527 -16.332   5.038  1.00  0.00     0.052 C 
HETATM    9  C   UNL     1      42.519 -12.654   5.995  1.00  0.00     0.073 C 
ENDROOT
BRANCH   9  10
HETATM   10  C   UNL     1      42.182 -11.220   5.834  1.00  0.00     0.259 C 
HETATM   11  N   UNL     1      42.611 -10.599   4.693  1.00  0.00    -0.320 N 
HETATM   12  H   UNL     1      43.147  -9.752   4.857  1.00  0.00     0.169 HD
HETATM   13  O   UNL     1      41.818 -10.547   6.803  1.00  0.00    -0.267 OA
BRANCH  11  14
HETATM   14  C   UNL     1      41.933 -10.512   3.455  1.00  0.00     0.068 A 
HETATM   15  C   UNL     1      41.166  -9.347   3.243  1.00  0.00     0.097 A 
HETATM   16  C   UNL     1      40.558  -9.122   2.005  1.00  0.00     0.075 A 
HETATM   17  C   UNL     1      40.709 -10.054   0.977  1.00  0.00     0.070 A 
HETATM   18  C   UNL     1      41.427 -11.232   1.213  1.00  0.00     0.039 A 
HETATM   19  C   UNL     1      42.030 -11.472   2.452  1.00  0.00     0.035 A 
BRANCH  15  20
HETATM   20  O   UNL     1      41.085  -8.493   4.321  1.00  0.00    -0.354 OA
HETATM   21  C   UNL     1      39.783  -8.253   4.842  1.00  0.00     0.210 C 
ENDBRANCH  15  20
BRANCH  17  22
HETATM   22  O   UNL     1      40.209  -9.937  -0.291  1.00  0.00    -0.356 OA
HETATM   23  C   UNL     1      40.362 -11.056  -1.157  1.00  0.00     0.210 C 
ENDBRANCH  17  22
ENDBRANCH  11  14
ENDBRANCH   9  10
BRANCH   1  24
HETATM   24  N   UNL     1      44.473 -12.156   7.465  1.00  0.00    -0.319 N 
HETATM   25  C   UNL     1      45.288 -11.211   6.884  1.00  0.00     0.248 C 
HETATM   26  O   UNL     1      45.664 -11.155   5.712  1.00  0.00    -0.271 OA
HETATM   27  H   UNL     1      44.576 -12.380   8.458  1.00  0.00     0.169 HD
BRANCH  25  28
HETATM   28  C   UNL     1      45.729 -10.087   7.827  1.00  0.00     0.337 C 
BRANCH  28  29
HETATM   29  N   UNL     1      44.521  -9.596   8.643  1.00  0.00    -0.062 N 
HETATM   30  C   UNL     1      44.523 -10.120  10.064  1.00  0.00     0.239 C 
HETATM   31  C   UNL     1      43.171  -9.808  10.707  1.00  0.00     0.007 C 
HETATM   32  C   UNL     1      43.125 -10.324  12.144  1.00  0.00     0.011 C 
HETATM   33  C   UNL     1      42.884  -8.302  10.659  1.00  0.00     0.007 C 
HETATM   34  C   UNL     1      42.981  -7.764   9.234  1.00  0.00     0.028 C 
HETATM   35  C   UNL     1      44.309  -8.115   8.575  1.00  0.00     0.235 C 
HETATM   36  H   UNL     1      43.724 -10.071   8.181  1.00  0.00     0.280 HD
ENDBRANCH  28  29
ENDBRANCH  25  28
ENDBRANCH   1  24
BRANCH   7  37
HETATM   37  C   UNL     1      42.207 -16.080   2.415  1.00  0.00    -0.047 C 
HETATM   38  C   UNL     1      43.306 -15.005   2.372  1.00  0.00     0.015 C 
HETATM   39  C   UNL     1      42.839 -17.399   1.908  1.00  0.00     0.015 C 
HETATM   40  C   UNL     1      41.114 -15.683   1.395  1.00  0.00     0.015 C 
ENDBRANCH   7  37
TORSDOF 8
ENDMDL
MODEL 5
REMARK VINA RESULT:      -8.3      2.606      5.658
REMARK  8 active torsions:
REMARK  status: ('A' for Active; 'I' for Inactive)
REMARK    1  A    between atoms: N_4  and  C_6 
REMARK    2  A    between atoms: C_6  and  C_7 
REMARK       I    between atoms: C_7  and  N_8 
REMARK    3  A    between atoms: N_8  and  C_9 
REMARK    4  A    between atoms: C_15  and  C_16 
REMARK    5  A    between atoms: C_21  and  C_22 
REMARK       I    between atoms: C_22  and  N_23 
REMARK    6  A    between atoms: N_23  and  C_24 
REMARK    7  A    between atoms: C_25  and  O_26 
REMARK    8  A    between atoms: C_29  and  O_30 
ROOT
HETATM    1  C   UNL     1      43.339 -12.826   5.995  1.00  0.00     0.093 C 
HETATM    2  S   UNL     1      43.257 -14.373   6.684  1.00  0.00    -0.075 SA
HETATM    3  C   UNL     1      42.496 -15.010   5.317  1.00  0.00    -0.008 C 
HETATM    4  C   UNL     1      42.203 -14.050   4.364  1.00  0.00    -0.026 C 
HETATM    5  C   UNL     1      41.423 -14.433   3.139  1.00  0.00     0.041 C 
HETATM    6  C   UNL     1      40.871 -15.862   3.182  1.00  0.00     0.010 C 
HETATM    7  C   UNL     1      41.823 -16.916   3.794  1.00  0.00    -0.002 C 
HETATM    8  C   UNL     1      42.178 -16.474   5.236  1.00  0.00     0.052 C 
HETATM    9  C   UNL     1      42.797 -12.761   4.709  1.00  0.00     0.073 C 
ENDROOT
BRANCH   9  10
HETATM   10  C   UNL     1      42.964 -11.521   3.913  1.00  0.00     0.259 C 
HETATM   11  N   UNL     1      41.827 -10.904   3.470  1.00  0.00    -0.320 N 
HETATM   12  H   UNL     1      41.812 -10.731   2.469  1.00  0.00     0.169 HD
HETATM   13  O   UNL     1      44.056 -11.239   3.413  1.00  0.00    -0.267 OA
BRANCH  11  14
HETATM   14  C   UNL     1      41.063  -9.922   4.143  1.00  0.00     0.068 A 
HETATM   15  C   UNL     1      39.851 -10.359   4.718  1.00  0.00     0.097 A 
HETATM   16  C   UNL     1      39.090  -9.485   5.500  1.00  0.00     0.075 A 
HETATM   17  C   UNL     1      39.531  -8.178   5.709  1.00  0.00     0.070 A 
HETATM   18  C   UNL     1      40.706  -7.738   5.091  1.00  0.00     0.039 A 
HETATM   19  C   UNL     1      41.470  -8.600   4.298  1.00  0.00     0.035 A 
BRANCH  15  20
HETATM   20  O   UNL     1      39.512 -11.667   4.451  1.00  0.00    -0.354 OA
HETATM   21  C   UNL     1      39.258 -12.498   5.577  1.00  0.00     0.210 C 
ENDBRANCH  15  20
BRANCH  17  22
HETATM   22  O   UNL     1      38.910  -7.238   6.487  1.00  0.00    -0.356 OA
HETATM   23  C   UNL     1      39.256  -7.203   7.867  1.00  0.00     0.210 C 
ENDBRANCH  17  22
ENDBRANCH  11  14
ENDBRANCH   9  10
BRANCH   1  24
HETATM   24  N   UNL     1      44.040 -11.824   6.659  1.00  0.00    -0.319 N 
HETATM   25  C   UNL     1      43.471 -10.794   7.374  1.00  0.00     0.248 C 
HETATM   26  O   UNL     1      42.315 -10.374   7.303  1.00  0.00    -0.271 OA
HETATM   27  H   UNL     1      45.042 -11.811   6.451  1.00  0.00     0.169 HD
BRANCH  25  28
HETATM   28  C   UNL     1      44.404 -10.142   8.399  1.00  0.00     0.337 C 
BRANCH  28  29
HETATM   29  N   UNL     1      43.579  -9.288   9.377  1.00  0.00    -0.062 N 
HETATM   30  C   UNL     1      43.588  -9.841  10.786  1.00  0.00     0.239 C 
HETATM   31  C   UNL     1      42.541  -9.094  11.616  1.00  0.00     0.007 C 
HETATM   32  C   UNL     1      42.510  -9.622  13.048  1.00  0.00     0.011 C 
HETATM   33  C   UNL     1      42.812  -7.584  11.597  1.00  0.00     0.007 C 
HETATM   34  C   UNL     1      42.900  -7.055  10.167  1.00  0.00     0.028 C 
HETATM   35  C   UNL     1      43.908  -7.828   9.327  1.00  0.00     0.235 C 
HETATM   36  H   UNL     1      42.609  -9.426   9.038  1.00  0.00     0.280 HD
ENDBRANCH  28  29
ENDBRANCH  25  28
ENDBRANCH   1  24
BRANCH   7  37
HETATM   37  C   UNL     1      43.033 -17.374   2.889  1.00  0.00    -0.047 C 
HETATM   38  C   UNL     1      43.468 -16.364   1.814  1.00  0.00     0.015 C 
HETATM   39  C   UNL     1      44.268 -17.652   3.780  1.00  0.00     0.015 C 
HETATM   40  C   UNL     1      42.683 -18.702   2.178  1.00  0.00     0.015 C 
ENDBRANCH   7  37
TORSDOF 8
ENDMDL
MODEL 6
REMARK VINA RESULT:      -8.2      2.889      6.034
REMARK  8 active torsions:
REMARK  status: ('A' for Active; 'I' for Inactive)
REMARK    1  A    between atoms: N_4  and  C_6 
REMARK    2  A    between atoms: C_6  and  C_7 
REMARK       I    between atoms: C_7  and  N_8 
REMARK    3  A    between atoms: N_8  and  C_9 
REMARK    4  A    between atoms: C_15  and  C_16 
REMARK    5  A    between atoms: C_21  and  C_22 
REMARK       I    between atoms: C_22  and  N_23 
REMARK    6  A    between atoms: N_23  and  C_24 
REMARK    7  A    between atoms: C_25  and  O_26 
REMARK    8  A    between atoms: C_29  and  O_30 
ROOT
HETATM    1  C   UNL     1      43.463 -12.936   5.834  1.00  0.00     0.093 C 
HETATM    2  S   UNL     1      43.116 -14.429   6.558  1.00  0.00    -0.075 SA
HETATM    3  C   UNL     1      42.446 -15.036   5.132  1.00  0.00    -0.008 C 
HETATM    4  C   UNL     1      42.381 -14.094   4.121  1.00  0.00    -0.026 C 
HETATM    5  C   UNL     1      41.707 -14.441   2.824  1.00  0.00     0.041 C 
HETATM    6  C   UNL     1      40.984 -15.793   2.848  1.00  0.00     0.010 C 
HETATM    7  C   UNL     1      41.725 -16.920   3.603  1.00  0.00    -0.002 C 
HETATM    8  C   UNL     1      41.964 -16.455   5.062  1.00  0.00     0.052 C 
HETATM    9  C   UNL     1      43.084 -12.869   4.491  1.00  0.00     0.073 C 
ENDROOT
BRANCH   9  10
HETATM   10  C   UNL     1      43.490 -11.695   3.680  1.00  0.00     0.259 C 
HETATM   11  N   UNL     1      42.655 -11.315   2.666  1.00  0.00    -0.320 N 
HETATM   12  H   UNL     1      43.110 -11.239   1.761  1.00  0.00     0.169 HD
HETATM   13  O   UNL     1      44.653 -11.284   3.710  1.00  0.00    -0.267 OA
BRANCH  11  14
HETATM   14  C   UNL     1      41.566 -10.416   2.739  1.00  0.00     0.068 A 
HETATM   15  C   UNL     1      41.217  -9.758   1.541  1.00  0.00     0.097 A 
HETATM   16  C   UNL     1      40.084  -8.942   1.492  1.00  0.00     0.075 A 
HETATM   17  C   UNL     1      39.298  -8.777   2.633  1.00  0.00     0.070 A 
HETATM   18  C   UNL     1      39.681  -9.391   3.831  1.00  0.00     0.039 A 
HETATM   19  C   UNL     1      40.819 -10.201   3.894  1.00  0.00     0.035 A 
BRANCH  15  20
HETATM   20  O   UNL     1      42.059  -9.992   0.476  1.00  0.00    -0.354 OA
HETATM   21  C   UNL     1      41.725  -9.350  -0.749  1.00  0.00     0.210 C 
ENDBRANCH  15  20
BRANCH  17  22
HETATM   22  O   UNL     1      38.142  -8.048   2.712  1.00  0.00    -0.356 OA
HETATM   23  C   UNL     1      37.677  -7.702   4.012  1.00  0.00     0.210 C 
ENDBRANCH  17  22
ENDBRANCH  11  14
ENDBRANCH   9  10
BRANCH   1  24
HETATM   24  N   UNL     1      44.200 -11.992   6.543  1.00  0.00    -0.319 N 
HETATM   25  C   UNL     1      43.677 -10.892   7.184  1.00  0.00     0.248 C 
HETATM   26  O   UNL     1      42.581 -10.360   6.999  1.00  0.00    -0.271 OA
HETATM   27  H   UNL     1      45.213 -12.085   6.429  1.00  0.00     0.169 HD
BRANCH  25  28
HETATM   28  C   UNL     1      44.575 -10.310   8.281  1.00  0.00     0.337 C 
BRANCH  28  29
HETATM   29  N   UNL     1      43.730  -9.450   9.236  1.00  0.00    -0.062 N 
HETATM   30  C   UNL     1      43.683 -10.011  10.641  1.00  0.00     0.239 C 
HETATM   31  C   UNL     1      42.620  -9.254  11.440  1.00  0.00     0.007 C 
HETATM   32  C   UNL     1      42.533  -9.791  12.867  1.00  0.00     0.011 C 
HETATM   33  C   UNL     1      42.914  -7.749  11.441  1.00  0.00     0.007 C 
HETATM   34  C   UNL     1      43.058  -7.211  10.019  1.00  0.00     0.028 C 
HETATM   35  C   UNL     1      44.082  -7.995   9.207  1.00  0.00     0.235 C 
HETATM   36  H   UNL     1      42.770  -9.571   8.864  1.00  0.00     0.280 HD
ENDBRANCH  28  29
ENDBRANCH  25  28
ENDBRANCH   1  24
BRANCH   7  37
HETATM   37  C   UNL     1      42.966 -17.558   2.865  1.00  0.00    -0.047 C 
HETATM   38  C   UNL     1      42.703 -18.918   2.195  1.00  0.00     0.015 C 
HETATM   39  C   UNL     1      43.461 -16.594   1.759  1.00  0.00     0.015 C 
HETATM   40  C   UNL     1      44.134 -17.738   3.861  1.00  0.00     0.015 C 
ENDBRANCH   7  37
TORSDOF 8
ENDMDL
MODEL 7
REMARK VINA RESULT:      -8.2      3.035      6.109
REMARK  8 active torsions:
REMARK  status: ('A' for Active; 'I' for Inactive)
REMARK    1  A    between atoms: N_4  and  C_6 
REMARK    2  A    between atoms: C_6  and  C_7 
REMARK       I    between atoms: C_7  and  N_8 
REMARK    3  A    between atoms: N_8  and  C_9 
REMARK    4  A    between atoms: C_15  and  C_16 
REMARK    5  A    between atoms: C_21  and  C_22 
REMARK       I    between atoms: C_22  and  N_23 
REMARK    6  A    between atoms: N_23  and  C_24 
REMARK    7  A    between atoms: C_25  and  O_26 
REMARK    8  A    between atoms: C_29  and  O_30 
ROOT
HETATM    1  C   UNL     1      41.536 -12.327   5.654  1.00  0.00     0.093 C 
HETATM    2  S   UNL     1      40.977 -13.854   6.137  1.00  0.00    -0.075 SA
HETATM    3  C   UNL     1      41.073 -14.457   4.562  1.00  0.00    -0.008 C 
HETATM    4  C   UNL     1      41.431 -13.493   3.635  1.00  0.00    -0.026 C 
HETATM    5  C   UNL     1      41.449 -13.839   2.173  1.00  0.00     0.041 C 
HETATM    6  C   UNL     1      40.873 -15.224   1.861  1.00  0.00     0.010 C 
HETATM    7  C   UNL     1      41.244 -16.333   2.873  1.00  0.00    -0.002 C 
HETATM    8  C   UNL     1      40.758 -15.895   4.277  1.00  0.00     0.052 C 
HETATM    9  C   UNL     1      41.815 -12.244   4.288  1.00  0.00     0.073 C 
ENDROOT
BRANCH   9  10
HETATM   10  C   UNL     1      42.483 -11.032   3.756  1.00  0.00     0.259 C 
HETATM   11  N   UNL     1      42.201 -10.676   2.467  1.00  0.00    -0.320 N 
HETATM   12  H   UNL     1      43.022 -10.554   1.881  1.00  0.00     0.169 HD
HETATM   13  O   UNL     1      43.470 -10.558   4.327  1.00  0.00    -0.267 OA
BRANCH  11  14
HETATM   14  C   UNL     1      41.154  -9.840   2.014  1.00  0.00     0.068 A 
HETATM   15  C   UNL     1      40.661 -10.101   0.719  1.00  0.00     0.097 A 
HETATM   16  C   UNL     1      39.552  -9.401   0.236  1.00  0.00     0.075 A 
HETATM   17  C   UNL     1      38.932  -8.442   1.038  1.00  0.00     0.070 A 
HETATM   18  C   UNL     1      39.460  -8.153   2.301  1.00  0.00     0.039 A 
HETATM   19  C   UNL     1      40.576  -8.838   2.790  1.00  0.00     0.035 A 
BRANCH  15  20
HETATM   20  O   UNL     1      41.344 -11.067   0.014  1.00  0.00    -0.354 OA
HETATM   21  C   UNL     1      40.575 -11.861  -0.881  1.00  0.00     0.210 C 
ENDBRANCH  15  20
BRANCH  17  22
HETATM   22  O   UNL     1      37.816  -7.722   0.709  1.00  0.00    -0.356 OA
HETATM   23  C   UNL     1      36.791  -7.624   1.691  1.00  0.00     0.210 C 
ENDBRANCH  17  22
ENDBRANCH  11  14
ENDBRANCH   9  10
BRANCH   1  24
HETATM   24  N   UNL     1      41.810 -11.367   6.624  1.00  0.00    -0.319 N 
HETATM   25  C   UNL     1      41.098 -10.205   6.816  1.00  0.00     0.248 C 
HETATM   26  O   UNL     1      40.342  -9.642   6.022  1.00  0.00    -0.271 OA
HETATM   27  H   UNL     1      42.699 -11.509   7.109  1.00  0.00     0.169 HD
BRANCH  25  28
HETATM   28  C   UNL     1      41.259  -9.585   8.207  1.00  0.00     0.337 C 
BRANCH  28  29
HETATM   29  N   UNL     1      42.617  -9.996   8.801  1.00  0.00    -0.062 N 
HETATM   30  C   UNL     1      43.781  -9.283   8.145  1.00  0.00     0.239 C 
HETATM   31  C   UNL     1      45.084  -9.941   8.603  1.00  0.00     0.007 C 
HETATM   32  C   UNL     1      46.289  -9.256   7.961  1.00  0.00     0.011 C 
HETATM   33  C   UNL     1      45.194  -9.917  10.132  1.00  0.00     0.007 C 
HETATM   34  C   UNL     1      43.968 -10.551  10.786  1.00  0.00     0.028 C 
HETATM   35  C   UNL     1      42.667  -9.928  10.296  1.00  0.00     0.235 C 
HETATM   36  H   UNL     1      42.705 -10.986   8.506  1.00  0.00     0.280 HD
ENDBRANCH  28  29
ENDBRANCH  25  28
ENDBRANCH   1  24
BRANCH   7  37
HETATM   37  C   UNL     1      42.718 -16.891   2.790  1.00  0.00    -0.047 C 
HETATM   38  C   UNL     1      43.522 -16.817   4.099  1.00  0.00     0.015 C 
HETATM   39  C   UNL     1      42.684 -18.377   2.359  1.00  0.00     0.015 C 
HETATM   40  C   UNL     1      43.509 -16.125   1.704  1.00  0.00     0.015 C 
ENDBRANCH   7  37
TORSDOF 8
ENDMDL
MODEL 8
REMARK VINA RESULT:      -8.1      1.969      2.977
REMARK  8 active torsions:
REMARK  status: ('A' for Active; 'I' for Inactive)
REMARK    1  A    between atoms: N_4  and  C_6 
REMARK    2  A    between atoms: C_6  and  C_7 
REMARK       I    between atoms: C_7  and  N_8 
REMARK    3  A    between atoms: N_8  and  C_9 
REMARK    4  A    between atoms: C_15  and  C_16 
REMARK    5  A    between atoms: C_21  and  C_22 
REMARK       I    between atoms: C_22  and  N_23 
REMARK    6  A    between atoms: N_23  and  C_24 
REMARK    7  A    between atoms: C_25  and  O_26 
REMARK    8  A    between atoms: C_29  and  O_30 
ROOT
HETATM    1  C   UNL     1      42.563 -10.671   6.601  1.00  0.00     0.093 C 
HETATM    2  S   UNL     1      41.458  -9.528   6.012  1.00  0.00    -0.075 SA
HETATM    3  C   UNL     1      41.526 -10.172   4.452  1.00  0.00    -0.008 C 
HETATM    4  C   UNL     1      42.453 -11.191   4.328  1.00  0.00    -0.026 C 
HETATM    5  C   UNL     1      42.719 -11.794   2.978  1.00  0.00     0.041 C 
HETATM    6  C   UNL     1      42.031 -11.052   1.827  1.00  0.00     0.010 C 
HETATM    7  C   UNL     1      40.599 -10.554   2.129  1.00  0.00    -0.002 C 
HETATM    8  C   UNL     1      40.658  -9.618   3.362  1.00  0.00     0.052 C 
HETATM    9  C   UNL     1      43.001 -11.572   5.627  1.00  0.00     0.073 C 
ENDROOT
BRANCH   9  10
HETATM   10  C   UNL     1      43.823 -12.737   6.035  1.00  0.00     0.259 C 
HETATM   11  N   UNL     1      43.194 -13.948   6.123  1.00  0.00    -0.320 N 
HETATM   12  H   UNL     1      43.316 -14.414   7.017  1.00  0.00     0.169 HD
HETATM   13  O   UNL     1      44.925 -12.572   6.567  1.00  0.00    -0.267 OA
BRANCH  11  14
HETATM   14  C   UNL     1      43.021 -14.904   5.097  1.00  0.00     0.068 A 
HETATM   15  C   UNL     1      43.716 -16.122   5.254  1.00  0.00     0.097 A 
HETATM   16  C   UNL     1      43.513 -17.168   4.349  1.00  0.00     0.075 A 
HETATM   17  C   UNL     1      42.622 -17.004   3.287  1.00  0.00     0.070 A 
HETATM   18  C   UNL     1      41.979 -15.775   3.108  1.00  0.00     0.039 A 
HETATM   19  C   UNL     1      42.182 -14.719   4.001  1.00  0.00     0.035 A 
BRANCH  15  20
HETATM   20  O   UNL     1      44.566 -16.178   6.335  1.00  0.00    -0.354 OA
HETATM   21  C   UNL     1      44.076 -16.843   7.493  1.00  0.00     0.210 C 
ENDBRANCH  15  20
BRANCH  17  22
HETATM   22  O   UNL     1      42.297 -17.957   2.360  1.00  0.00    -0.356 OA
HETATM   23  C   UNL     1      43.139 -19.102   2.280  1.00  0.00     0.210 C 
ENDBRANCH  17  22
ENDBRANCH  11  14
ENDBRANCH   9  10
BRANCH   1  24
HETATM   24  N   UNL     1      42.820 -10.726   7.968  1.00  0.00    -0.319 N 
HETATM   25  C   UNL     1      43.805 -10.021   8.621  1.00  0.00     0.248 C 
HETATM   26  O   UNL     1      44.809  -9.498   8.134  1.00  0.00    -0.271 OA
HETATM   27  H   UNL     1      42.309 -11.465   8.457  1.00  0.00     0.169 HD
BRANCH  25  28
HETATM   28  C   UNL     1      43.574  -9.853  10.126  1.00  0.00     0.337 C 
BRANCH  28  29
HETATM   29  N   UNL     1      42.084  -9.579  10.390  1.00  0.00    -0.062 N 
HETATM   30  C   UNL     1      41.633 -10.066  11.751  1.00  0.00     0.239 C 
HETATM   31  C   UNL     1      40.106  -9.997  11.819  1.00  0.00     0.007 C 
HETATM   32  C   UNL     1      39.603 -10.485  13.176  1.00  0.00     0.011 C 
HETATM   33  C   UNL     1      39.615  -8.572  11.536  1.00  0.00     0.007 C 
HETATM   34  C   UNL     1      40.157  -8.053  10.206  1.00  0.00     0.028 C 
HETATM   35  C   UNL     1      41.674  -8.165  10.118  1.00  0.00     0.235 C 
HETATM   36  H   UNL     1      41.612 -10.203   9.710  1.00  0.00     0.280 HD
ENDBRANCH  28  29
ENDBRANCH  25  28
ENDBRANCH   1  24
BRANCH   7  37
HETATM   37  C   UNL     1      39.465 -11.653   2.143  1.00  0.00    -0.047 C 
HETATM   38  C   UNL     1      39.210 -12.315   3.508  1.00  0.00     0.015 C 
HETATM   39  C   UNL     1      38.128 -11.020   1.687  1.00  0.00     0.015 C 
HETATM   40  C   UNL     1      39.804 -12.770   1.130  1.00  0.00     0.015 C 
ENDBRANCH   7  37
TORSDOF 8
ENDMDL
MODEL 9
REMARK VINA RESULT:      -8.0      2.522      9.250
REMARK  8 active torsions:
REMARK  status: ('A' for Active; 'I' for Inactive)
REMARK    1  A    between atoms: N_4  and  C_6 
REMARK    2  A    between atoms: C_6  and  C_7 
REMARK       I    between atoms: C_7  and  N_8 
REMARK    3  A    between atoms: N_8  and  C_9 
REMARK    4  A    between atoms: C_15  and  C_16 
REMARK    5  A    between atoms: C_21  and  C_22 
REMARK       I    between atoms: C_22  and  N_23 
REMARK    6  A    between atoms: N_23  and  C_24 
REMARK    7  A    between atoms: C_25  and  O_26 
REMARK    8  A    between atoms: C_29  and  O_30 
ROOT
HETATM    1  C   UNL     1      43.283 -11.517   6.101  1.00  0.00     0.093 C 
HETATM    2  S   UNL     1      44.512 -11.913   7.199  1.00  0.00    -0.075 SA
HETATM    3  C   UNL     1      44.318 -10.460   8.038  1.00  0.00    -0.008 C 
HETATM    4  C   UNL     1      43.397  -9.613   7.447  1.00  0.00    -0.026 C 
HETATM    5  C   UNL     1      43.191  -8.234   8.004  1.00  0.00     0.041 C 
HETATM    6  C   UNL     1      44.199  -7.853   9.095  1.00  0.00     0.010 C 
HETATM    7  C   UNL     1      44.556  -8.988  10.083  1.00  0.00    -0.002 C 
HETATM    8  C   UNL     1      45.123 -10.180   9.272  1.00  0.00     0.052 C 
HETATM    9  C   UNL     1      42.693 -10.276   6.352  1.00  0.00     0.073 C 
ENDROOT
BRANCH   9  10
HETATM   10  C   UNL     1      41.485  -9.879   5.590  1.00  0.00     0.259 C 
HETATM   11  N   UNL     1      40.307  -9.800   6.279  1.00  0.00    -0.320 N 
HETATM   12  H   UNL     1      39.551 -10.343   5.873  1.00  0.00     0.169 HD
HETATM   13  O   UNL     1      41.477  -9.928   4.356  1.00  0.00    -0.267 OA
BRANCH  11  14
HETATM   14  C   UNL     1      39.784  -8.678   6.963  1.00  0.00     0.068 A 
HETATM   15  C   UNL     1      39.282  -8.914   8.260  1.00  0.00     0.097 A 
HETATM   16  C   UNL     1      38.854  -7.846   9.053  1.00  0.00     0.075 A 
HETATM   17  C   UNL     1      38.922  -6.543   8.558  1.00  0.00     0.070 A 
HETATM   18  C   UNL     1      39.371  -6.323   7.251  1.00  0.00     0.039 A 
HETATM   19  C   UNL     1      39.791  -7.386   6.445  1.00  0.00     0.035 A 
BRANCH  15  20
HETATM   20  O   UNL     1      39.262 -10.235   8.650  1.00  0.00    -0.354 OA
HETATM   21  C   UNL     1      38.654 -10.516   9.905  1.00  0.00     0.210 C 
ENDBRANCH  15  20
BRANCH  17  22
HETATM   22  O   UNL     1      38.582  -5.407   9.241  1.00  0.00    -0.356 OA
HETATM   23  C   UNL     1      37.937  -4.373   8.506  1.00  0.00     0.210 C 
ENDBRANCH  17  22
ENDBRANCH  11  14
ENDBRANCH   9  10
BRANCH   1  24
HETATM   24  N   UNL     1      42.866 -12.470   5.176  1.00  0.00    -0.319 N 
HETATM   25  C   UNL     1      41.835 -13.362   5.363  1.00  0.00     0.248 C 
HETATM   26  O   UNL     1      41.324 -13.714   6.428  1.00  0.00    -0.271 OA
HETATM   27  H   UNL     1      43.493 -12.573   4.375  1.00  0.00     0.169 HD
BRANCH  25  28
HETATM   28  C   UNL     1      41.251 -13.937   4.069  1.00  0.00     0.337 C 
BRANCH  28  29
HETATM   29  N   UNL     1      42.224 -14.973   3.480  1.00  0.00    -0.062 N 
HETATM   30  C   UNL     1      42.373 -16.198   4.356  1.00  0.00     0.239 C 
HETATM   31  C   UNL     1      43.543 -17.037   3.837  1.00  0.00     0.007 C 
HETATM   32  C   UNL     1      43.735 -18.286   4.696  1.00  0.00     0.011 C 
HETATM   33  C   UNL     1      43.327 -17.415   2.367  1.00  0.00     0.007 C 
HETATM   34  C   UNL     1      43.080 -16.177   1.507  1.00  0.00     0.028 C 
HETATM   35  C   UNL     1      41.945 -15.316   2.050  1.00  0.00     0.235 C 
HETATM   36  H   UNL     1      43.138 -14.486   3.537  1.00  0.00     0.280 HD
ENDBRANCH  28  29
ENDBRANCH  25  28
ENDBRANCH   1  24
BRANCH   7  37
HETATM   37  C   UNL     1      43.463  -9.341  11.167  1.00  0.00    -0.047 C 
HETATM   38  C   UNL     1      43.455  -8.434  12.409  1.00  0.00     0.015 C 
HETATM   39  C   UNL     1      42.056  -9.252  10.529  1.00  0.00     0.015 C 
HETATM   40  C   UNL     1      43.650 -10.799  11.645  1.00  0.00     0.015 C 
ENDBRANCH   7  37
TORSDOF 8
ENDMDL
MODEL 10
REMARK VINA RESULT:      -8.0      2.359      8.035
REMARK  8 active torsions:
REMARK  status: ('A' for Active; 'I' for Inactive)
REMARK    1  A    between atoms: N_4  and  C_6 
REMARK    2  A    between atoms: C_6  and  C_7 
REMARK       I    between atoms: C_7  and  N_8 
REMARK    3  A    between atoms: N_8  and  C_9 
REMARK    4  A    between atoms: C_15  and  C_16 
REMARK    5  A    between atoms: C_21  and  C_22 
REMARK       I    between atoms: C_22  and  N_23 
REMARK    6  A    between atoms: N_23  and  C_24 
REMARK    7  A    between atoms: C_25  and  O_26 
REMARK    8  A    between atoms: C_29  and  O_30 
ROOT
HETATM    1  C   UNL     1      42.550 -13.110   6.259  1.00  0.00     0.093 C 
HETATM    2  S   UNL     1      41.032 -13.517   5.623  1.00  0.00    -0.075 SA
HETATM    3  C   UNL     1      40.500 -11.916   5.700  1.00  0.00    -0.008 C 
HETATM    4  C   UNL     1      41.418 -11.070   6.298  1.00  0.00    -0.026 C 
HETATM    5  C   UNL     1      41.052  -9.635   6.548  1.00  0.00     0.041 C 
HETATM    6  C   UNL     1      39.580  -9.316   6.262  1.00  0.00     0.010 C 
HETATM    7  C   UNL     1      38.990 -10.007   5.011  1.00  0.00    -0.002 C 
HETATM    8  C   UNL     1      39.145 -11.539   5.181  1.00  0.00     0.052 C 
HETATM    9  C   UNL     1      42.689 -11.748   6.538  1.00  0.00     0.073 C 
ENDROOT
BRANCH   9  10
HETATM   10  C   UNL     1      44.018 -11.218   6.924  1.00  0.00     0.259 C 
HETATM   11  N   UNL     1      44.056  -9.979   7.500  1.00  0.00    -0.320 N 
HETATM   12  H   UNL     1      44.687  -9.328   7.042  1.00  0.00     0.169 HD
HETATM   13  O   UNL     1      45.051 -11.720   6.468  1.00  0.00    -0.267 OA
BRANCH  11  14
HETATM   14  C   UNL     1      43.949  -9.666   8.875  1.00  0.00     0.068 A 
HETATM   15  C   UNL     1      43.573  -8.342   9.187  1.00  0.00     0.097 A 
HETATM   16  C   UNL     1      43.330  -7.976  10.513  1.00  0.00     0.075 A 
HETATM   17  C   UNL     1      43.461  -8.922  11.530  1.00  0.00     0.070 A 
HETATM   18  C   UNL     1      43.887 -10.218  11.218  1.00  0.00     0.039 A 
HETATM   19  C   UNL     1      44.143 -10.592   9.895  1.00  0.00     0.035 A 
BRANCH  15  20
HETATM   20  O   UNL     1      43.469  -7.492   8.109  1.00  0.00    -0.354 OA
HETATM   21  C   UNL     1      42.389  -6.566   8.134  1.00  0.00     0.210 C 
ENDBRANCH  15  20
BRANCH  17  22
HETATM   22  O   UNL     1      43.210  -8.711  12.859  1.00  0.00    -0.356 OA
HETATM   23  C   UNL     1      42.013  -9.267  13.392  1.00  0.00     0.210 C 
ENDBRANCH  17  22
ENDBRANCH  11  14
ENDBRANCH   9  10
BRANCH   1  24
HETATM   24  N   UNL     1      43.547 -14.080   6.310  1.00  0.00    -0.319 N 
HETATM   25  C   UNL     1      43.412 -15.332   6.866  1.00  0.00     0.248 C 
HETATM   26  O   UNL     1      42.564 -15.711   7.676  1.00  0.00    -0.271 OA
HETATM   27  H   UNL     1      44.471 -13.740   6.032  1.00  0.00     0.169 HD
BRANCH  25  28
HETATM   28  C   UNL     1      44.430 -16.362   6.367  1.00  0.00     0.337 C 
BRANCH  28  29
HETATM   29  N   UNL     1      43.829 -17.151   5.190  1.00  0.00    -0.062 N 
HETATM   30  C   UNL     1      43.408 -16.258   4.042  1.00  0.00     0.239 C 
HETATM   31  C   UNL     1      42.590 -17.085   3.049  1.00  0.00     0.007 C 
HETATM   32  C   UNL     1      42.137 -16.223   1.872  1.00  0.00     0.011 C 
HETATM   33  C   UNL     1      43.395 -18.296   2.560  1.00  0.00     0.007 C 
HETATM   34  C   UNL     1      43.899 -19.136   3.731  1.00  0.00     0.028 C 
HETATM   35  C   UNL     1      44.675 -18.304   4.745  1.00  0.00     0.235 C 
HETATM   36  H   UNL     1      42.945 -17.516   5.588  1.00  0.00     0.280 HD
ENDBRANCH  28  29
ENDBRANCH  25  28
ENDBRANCH   1  24
BRANCH   7  37
HETATM   37  C   UNL     1      39.425  -9.414   3.614  1.00  0.00    -0.047 C 
HETATM   38  C   UNL     1      40.676 -10.056   2.990  1.00  0.00     0.015 C 
HETATM   39  C   UNL     1      38.269  -9.586   2.598  1.00  0.00     0.015 C 
HETATM   40  C   UNL     1      39.686  -7.896   3.746  1.00  0.00     0.015 C 
ENDBRANCH   7  37
TORSDOF 8
ENDMDL
