MODEL 1
REMARK VINA RESULT:      -9.2      0.000      0.000
REMARK  5 active torsions:
REMARK  status: ('A' for Active; 'I' for Inactive)
REMARK    1  A    between atoms: O_2  and  C_3 
REMARK    2  A    between atoms: C_6  and  C_7 
REMARK    3  A    between atoms: C_7  and  C_8 
REMARK       I    between atoms: C_8  and  N_9 
REMARK    4  A    between atoms: N_9  and  C_10 
REMARK    5  A    between atoms: C_13  and  C_14 
ROOT
HETATM    1  C   UNL     1      43.569 -11.780   6.764  1.00  0.00     0.034 A 
HETATM    2  C   UNL     1      43.672 -13.025   7.384  1.00  0.00     0.030 A 
HETATM    3  C   UNL     1      43.577 -14.205   6.635  1.00  0.00     0.017 A 
HETATM    4  C   UNL     1      43.384 -14.158   5.250  1.00  0.00     0.010 A 
HETATM    5  C   UNL     1      43.240 -12.913   4.628  1.00  0.00     0.017 A 
HETATM    6  C   UNL     1      43.336 -11.735   5.383  1.00  0.00     0.030 A 
ENDROOT
BRANCH   1   7
HETATM    7  N   UNL     1      43.729 -10.551   7.438  1.00  0.00    -0.327 N 
HETATM    8  C   UNL     1      44.900 -10.029   7.963  1.00  0.00     0.226 C 
HETATM    9  O   UNL     1      45.977 -10.610   8.059  1.00  0.00    -0.273 OA
HETATM   10  H   UNL     1      42.894  -9.990   7.557  1.00  0.00     0.169 HD
BRANCH   8  11
HETATM   11  C   UNL     1      44.758  -8.583   8.415  1.00  0.00     0.141 C 
BRANCH  11  12
HETATM   12  C   UNL     1      44.016  -8.397   9.715  1.00  0.00    -0.049 A 
HETATM   13  C   UNL     1      44.208  -9.261  10.801  1.00  0.00     0.010 A 
HETATM   14  C   UNL     1      43.560  -9.036  12.021  1.00  0.00     0.037 A 
HETATM   15  C   UNL     1      42.724  -7.932  12.180  1.00  0.00     0.068 A 
HETATM   16  C   UNL     1      42.541  -7.059  11.106  1.00  0.00     0.037 A 
HETATM   17  C   UNL     1      43.182  -7.283   9.886  1.00  0.00     0.010 A 
BRANCH  15  18
HETATM   18  O   UNL     1      42.046  -7.590  13.317  1.00  0.00    -0.356 OA
HETATM   19  C   UNL     1      41.644  -8.654  14.170  1.00  0.00     0.210 C 
ENDBRANCH  15  18
ENDBRANCH  11  12
ENDBRANCH   8  11
ENDBRANCH   1   7
BRANCH   4  20
HETATM   20  C   UNL     1      43.367 -15.444   4.495  1.00  0.00     0.141 A 
HETATM   21  N   UNL     1      43.633 -16.563   5.092  1.00  0.00    -0.230 NA
HETATM   22  C   UNL     1      43.652 -17.745   4.332  1.00  0.00     0.074 A 
HETATM   23  C   UNL     1      43.404 -17.758   2.958  1.00  0.00     0.061 A 
HETATM   24  C   UNL     1      43.951 -18.952   4.967  1.00  0.00     0.032 A 
HETATM   25  C   UNL     1      43.109 -16.470   2.314  1.00  0.00     0.259 A 
HETATM   26  C   UNL     1      43.454 -18.945   2.219  1.00  0.00     0.019 A 
HETATM   27  O   UNL     1      42.898 -16.369   1.111  1.00  0.00    -0.267 OA
HETATM   28  N   UNL     1      43.098 -15.378   3.145  1.00  0.00    -0.307 N 
HETATM   29  H   UNL     1      42.955 -14.499   2.674  1.00  0.00     0.170 HD
HETATM   30  C   UNL     1      43.756 -20.142   2.866  1.00  0.00     0.001 A 
HETATM   31  C   UNL     1      44.003 -20.145   4.239  1.00  0.00     0.002 A 
ENDBRANCH   4  20
TORSDOF 5
ENDMDL
MODEL 2
REMARK VINA RESULT:      -8.9      1.620      2.450
REMARK  5 active torsions:
REMARK  status: ('A' for Active; 'I' for Inactive)
REMARK    1  A    between atoms: O_2  and  C_3 
REMARK    2  A    between atoms: C_6  and  C_7 
REMARK    3  A    between atoms: C_7  and  C_8 
REMARK       I    between atoms: C_8  and  N_9 
REMARK    4  A    between atoms: N_9  and  C_10 
REMARK    5  A    between atoms: C_13  and  C_14 
ROOT
HETATM    1  C   UNL     1      43.397 -10.694   7.869  1.00  0.00     0.034 A 
HETATM    2  C   UNL     1      42.280 -10.826   7.044  1.00  0.00     0.030 A 
HETATM    3  C   UNL     1      42.232 -11.825   6.063  1.00  0.00     0.017 A 
HETATM    4  C   UNL     1      43.298 -12.714   5.896  1.00  0.00     0.010 A 
HETATM    5  C   UNL     1      44.438 -12.561   6.693  1.00  0.00     0.017 A 
HETATM    6  C   UNL     1      44.482 -11.559   7.674  1.00  0.00     0.030 A 
ENDROOT
BRANCH   1   7
HETATM    7  N   UNL     1      43.488  -9.763   8.925  1.00  0.00    -0.327 N 
HETATM    8  C   UNL     1      43.834 -10.021  10.242  1.00  0.00     0.226 C 
HETATM    9  O   UNL     1      43.983 -11.128  10.752  1.00  0.00    -0.273 OA
HETATM   10  H   UNL     1      43.272  -8.800   8.698  1.00  0.00     0.169 HD
BRANCH   8  11
HETATM   11  C   UNL     1      44.059  -8.757  11.057  1.00  0.00     0.141 C 
BRANCH  11  12
HETATM   12  C   UNL     1      43.167  -8.616  12.266  1.00  0.00    -0.049 A 
HETATM   13  C   UNL     1      42.077  -9.470  12.478  1.00  0.00     0.010 A 
HETATM   14  C   UNL     1      41.298  -9.366  13.637  1.00  0.00     0.037 A 
HETATM   15  C   UNL     1      41.610  -8.418  14.610  1.00  0.00     0.068 A 
HETATM   16  C   UNL     1      42.704  -7.575  14.411  1.00  0.00     0.037 A 
HETATM   17  C   UNL     1      43.480  -7.672  13.254  1.00  0.00     0.010 A 
BRANCH  15  18
HETATM   18  O   UNL     1      40.944  -8.222  15.788  1.00  0.00    -0.356 OA
HETATM   19  C   UNL     1      41.554  -7.354  16.734  1.00  0.00     0.210 C 
ENDBRANCH  15  18
ENDBRANCH  11  12
ENDBRANCH   8  11
ENDBRANCH   1   7
BRANCH   4  20
HETATM   20  C   UNL     1      43.159 -13.804   4.887  1.00  0.00     0.141 A 
HETATM   21  N   UNL     1      43.437 -15.031   5.200  1.00  0.00    -0.230 NA
HETATM   22  C   UNL     1      43.337 -16.018   4.206  1.00  0.00     0.074 A 
HETATM   23  C   UNL     1      42.958 -15.728   2.893  1.00  0.00     0.061 A 
HETATM   24  C   UNL     1      43.647 -17.340   4.533  1.00  0.00     0.032 A 
HETATM   25  C   UNL     1      42.654 -14.325   2.575  1.00  0.00     0.259 A 
HETATM   26  C   UNL     1      42.891 -16.726   1.916  1.00  0.00     0.019 A 
HETATM   27  O   UNL     1      42.333 -13.962   1.449  1.00  0.00    -0.267 OA
HETATM   28  N   UNL     1      42.765 -13.441   3.618  1.00  0.00    -0.307 N 
HETATM   29  H   UNL     1      42.612 -12.478   3.364  1.00  0.00     0.170 HD
HETATM   30  C   UNL     1      43.207 -18.040   2.256  1.00  0.00     0.001 A 
HETATM   31  C   UNL     1      43.583 -18.347   3.565  1.00  0.00     0.002 A 
ENDBRANCH   4  20
TORSDOF 5
ENDMDL
MODEL 3
REMARK VINA RESULT:      -8.8      1.332      1.664
REMARK  5 active torsions:
REMARK  status: ('A' for Active; 'I' for Inactive)
REMARK    1  A    between atoms: O_2  and  C_3 
REMARK    2  A    between atoms: C_6  and  C_7 
REMARK    3  A    between atoms: C_7  and  C_8 
REMARK       I    between atoms: C_8  and  N_9 
REMARK    4  A    between atoms: N_9  and  C_10 
REMARK    5  A    between atoms: C_13  and  C_14 
ROOT
HETATM    1  C   UNL     1      43.393 -10.952   6.814  1.00  0.00     0.034 A 
HETATM    2  C   UNL     1      44.010 -12.116   7.272  1.00  0.00     0.030 A 
HETATM    3  C   UNL     1      43.876 -13.318   6.566  1.00  0.00     0.017 A 
HETATM    4  C   UNL     1      43.127 -13.375   5.386  1.00  0.00     0.010 A 
HETATM    5  C   UNL     1      42.473 -12.220   4.944  1.00  0.00     0.017 A 
HETATM    6  C   UNL     1      42.610 -11.018   5.654  1.00  0.00     0.030 A 
ENDROOT
BRANCH   1   7
HETATM    7  N   UNL     1      43.543  -9.690   7.428  1.00  0.00    -0.327 N 
HETATM    8  C   UNL     1      42.651  -9.063   8.284  1.00  0.00     0.226 C 
HETATM    9  O   UNL     1      41.510  -9.432   8.544  1.00  0.00    -0.273 OA
HETATM   10  H   UNL     1      44.395  -9.184   7.216  1.00  0.00     0.169 HD
BRANCH   8  11
HETATM   11  C   UNL     1      43.232  -7.820   8.941  1.00  0.00     0.141 C 
BRANCH  11  12
HETATM   12  C   UNL     1      43.056  -7.755  10.438  1.00  0.00    -0.049 A 
HETATM   13  C   UNL     1      42.245  -6.785  11.041  1.00  0.00     0.010 A 
HETATM   14  C   UNL     1      42.042  -6.779  12.426  1.00  0.00     0.037 A 
HETATM   15  C   UNL     1      42.632  -7.755  13.227  1.00  0.00     0.068 A 
HETATM   16  C   UNL     1      43.429  -8.733  12.630  1.00  0.00     0.037 A 
HETATM   17  C   UNL     1      43.638  -8.740  11.249  1.00  0.00     0.010 A 
BRANCH  15  18
HETATM   18  O   UNL     1      42.505  -7.871  14.584  1.00  0.00    -0.356 OA
HETATM   19  C   UNL     1      41.264  -8.364  15.073  1.00  0.00     0.210 C 
ENDBRANCH  15  18
ENDBRANCH  11  12
ENDBRANCH   8  11
ENDBRANCH   1   7
BRANCH   4  20
HETATM   20  C   UNL     1      43.083 -14.664   4.637  1.00  0.00     0.141 A 
HETATM   21  N   UNL     1      43.609 -15.736   5.139  1.00  0.00    -0.230 NA
HETATM   22  C   UNL     1      43.586 -16.917   4.379  1.00  0.00     0.074 A 
HETATM   23  C   UNL     1      43.026 -16.978   3.101  1.00  0.00     0.061 A 
HETATM   24  C   UNL     1      44.164 -18.073   4.908  1.00  0.00     0.032 A 
HETATM   25  C   UNL     1      42.440 -15.741   2.563  1.00  0.00     0.259 A 
HETATM   26  C   UNL     1      43.039 -18.161   2.354  1.00  0.00     0.019 A 
HETATM   27  O   UNL     1      41.943 -15.682   1.445  1.00  0.00    -0.267 OA
HETATM   28  N   UNL     1      42.498 -14.647   3.389  1.00  0.00    -0.307 N 
HETATM   29  H   UNL     1      42.147 -13.797   2.978  1.00  0.00     0.170 HD
HETATM   30  C   UNL     1      43.621 -19.306   2.895  1.00  0.00     0.001 A 
HETATM   31  C   UNL     1      44.183 -19.262   4.172  1.00  0.00     0.002 A 
ENDBRANCH   4  20
TORSDOF 5
ENDMDL
MODEL 4
REMARK VINA RESULT:      -8.4      2.309     11.034
REMARK  5 active torsions:
REMARK  status: ('A' for Active; 'I' for Inactive)
REMARK    1  A    between atoms: O_2  and  C_3 
REMARK    2  A    between atoms: C_6  and  C_7 
REMARK    3  A    between atoms: C_7  and  C_8 
REMARK       I    between atoms: C_8  and  N_9 
REMARK    4  A    between atoms: N_9  and  C_10 
REMARK    5  A    between atoms: C_13  and  C_14 
ROOT
HETATM    1  C   UNL     1      43.072 -11.825   6.032  1.00  0.00     0.034 A 
HETATM    2  C   UNL     1      42.065 -10.860   6.042  1.00  0.00     0.030 A 
HETATM    3  C   UNL     1      41.963  -9.948   7.100  1.00  0.00     0.017 A 
HETATM    4  C   UNL     1      42.871  -9.982   8.163  1.00  0.00     0.010 A 
HETATM    5  C   UNL     1      43.859 -10.973   8.179  1.00  0.00     0.017 A 
HETATM    6  C   UNL     1      43.957 -11.884   7.117  1.00  0.00     0.030 A 
ENDROOT
BRANCH   1   7
HETATM    7  N   UNL     1      43.285 -12.728   4.968  1.00  0.00    -0.327 N 
HETATM    8  C   UNL     1      42.445 -13.750   4.556  1.00  0.00     0.226 C 
HETATM    9  O   UNL     1      41.436 -14.142   5.136  1.00  0.00    -0.273 OA
HETATM   10  H   UNL     1      44.149 -12.619   4.451  1.00  0.00     0.169 HD
BRANCH   8  11
HETATM   11  C   UNL     1      42.873 -14.376   3.237  1.00  0.00     0.141 C 
BRANCH  11  12
HETATM   12  C   UNL     1      43.198 -15.847   3.310  1.00  0.00    -0.049 A 
HETATM   13  C   UNL     1      43.654 -16.441   4.495  1.00  0.00     0.010 A 
HETATM   14  C   UNL     1      43.889 -17.819   4.563  1.00  0.00     0.037 A 
HETATM   15  C   UNL     1      43.655 -18.627   3.452  1.00  0.00     0.068 A 
HETATM   16  C   UNL     1      43.187 -18.043   2.274  1.00  0.00     0.037 A 
HETATM   17  C   UNL     1      42.955 -16.668   2.201  1.00  0.00     0.010 A 
BRANCH  15  18
HETATM   18  O   UNL     1      43.830 -19.982   3.388  1.00  0.00    -0.356 OA
HETATM   19  C   UNL     1      43.833 -20.570   2.093  1.00  0.00     0.210 C 
ENDBRANCH  15  18
ENDBRANCH  11  12
ENDBRANCH   8  11
ENDBRANCH   1   7
BRANCH   4  20
HETATM   20  C   UNL     1      42.759  -8.938   9.223  1.00  0.00     0.141 A 
HETATM   21  N   UNL     1      43.060  -9.213  10.453  1.00  0.00    -0.230 NA
HETATM   22  C   UNL     1      42.894  -8.213  11.426  1.00  0.00     0.074 A 
HETATM   23  C   UNL     1      42.411  -6.939  11.121  1.00  0.00     0.061 A 
HETATM   24  C   UNL     1      43.204  -8.506  12.756  1.00  0.00     0.032 A 
HETATM   25  C   UNL     1      42.077  -6.664   9.715  1.00  0.00     0.259 A 
HETATM   26  C   UNL     1      42.231  -5.969  12.113  1.00  0.00     0.019 A 
HETATM   27  O   UNL     1      41.626  -5.587   9.345  1.00  0.00    -0.267 OA
HETATM   28  N   UNL     1      42.290  -7.700   8.840  1.00  0.00    -0.307 N 
HETATM   29  H   UNL     1      41.997  -7.512   7.895  1.00  0.00     0.170 HD
HETATM   30  C   UNL     1      42.542  -6.278  13.436  1.00  0.00     0.001 A 
HETATM   31  C   UNL     1      43.029  -7.545  13.757  1.00  0.00     0.002 A 
ENDBRANCH   4  20
TORSDOF 5
ENDMDL
MODEL 5
REMARK VINA RESULT:      -8.4      2.666      4.035
REMARK  5 active torsions:
REMARK  status: ('A' for Active; 'I' for Inactive)
REMARK    1  A    between atoms: O_2  and  C_3 
REMARK    2  A    between atoms: C_6  and  C_7 
REMARK    3  A    between atoms: C_7  and  C_8 
REMARK       I    between atoms: C_8  and  N_9 
REMARK    4  A    between atoms: N_9  and  C_10 
REMARK    5  A    between atoms: C_13  and  C_14 
ROOT
HETATM    1  C   UNL     1      44.357 -11.947   6.488  1.00  0.00     0.034 A 
HETATM    2  C   UNL     1      44.411 -11.307   5.250  1.00  0.00     0.030 A 
HETATM    3  C   UNL     1      43.739 -11.839   4.142  1.00  0.00     0.017 A 
HETATM    4  C   UNL     1      42.995 -13.017   4.256  1.00  0.00     0.010 A 
HETATM    5  C   UNL     1      42.970 -13.686   5.485  1.00  0.00     0.017 A 
HETATM    6  C   UNL     1      43.644 -13.149   6.591  1.00  0.00     0.030 A 
ENDROOT
BRANCH   1   7
HETATM    7  N   UNL     1      44.944 -11.434   7.664  1.00  0.00    -0.327 N 
HETATM    8  C   UNL     1      44.622 -10.254   8.316  1.00  0.00     0.226 C 
HETATM    9  O   UNL     1      43.868  -9.378   7.903  1.00  0.00    -0.273 OA
HETATM   10  H   UNL     1      45.686 -11.987   8.075  1.00  0.00     0.169 HD
BRANCH   8  11
HETATM   11  C   UNL     1      45.289 -10.125   9.676  1.00  0.00     0.141 C 
BRANCH  11  12
HETATM   12  C   UNL     1      44.347  -9.839  10.819  1.00  0.00    -0.049 A 
HETATM   13  C   UNL     1      43.954  -8.532  11.136  1.00  0.00     0.010 A 
HETATM   14  C   UNL     1      43.029  -8.289  12.159  1.00  0.00     0.037 A 
HETATM   15  C   UNL     1      42.469  -9.351  12.867  1.00  0.00     0.068 A 
HETATM   16  C   UNL     1      42.846 -10.656  12.544  1.00  0.00     0.037 A 
HETATM   17  C   UNL     1      43.772 -10.902  11.528  1.00  0.00     0.010 A 
BRANCH  15  18
HETATM   18  O   UNL     1      41.549  -9.254  13.874  1.00  0.00    -0.356 OA
HETATM   19  C   UNL     1      41.887  -8.423  14.976  1.00  0.00     0.210 C 
ENDBRANCH  15  18
ENDBRANCH  11  12
ENDBRANCH   8  11
ENDBRANCH   1   7
BRANCH   4  20
HETATM   20  C   UNL     1      42.239 -13.495   3.062  1.00  0.00     0.141 A 
HETATM   21  N   UNL     1      42.027 -12.705   2.057  1.00  0.00    -0.230 NA
HETATM   22  C   UNL     1      41.269 -13.182   0.974  1.00  0.00     0.074 A 
HETATM   23  C   UNL     1      40.729 -14.469   0.943  1.00  0.00     0.061 A 
HETATM   24  C   UNL     1      41.026 -12.332  -0.107  1.00  0.00     0.032 A 
HETATM   25  C   UNL     1      40.988 -15.336   2.102  1.00  0.00     0.259 A 
HETATM   26  C   UNL     1      39.956 -14.911  -0.136  1.00  0.00     0.019 A 
HETATM   27  O   UNL     1      40.542 -16.474   2.184  1.00  0.00    -0.267 OA
HETATM   28  N   UNL     1      41.751 -14.783   3.100  1.00  0.00    -0.307 N 
HETATM   29  H   UNL     1      41.864 -15.371   3.910  1.00  0.00     0.170 HD
HETATM   30  C   UNL     1      39.720 -14.050  -1.207  1.00  0.00     0.001 A 
HETATM   31  C   UNL     1      40.256 -12.761  -1.192  1.00  0.00     0.002 A 
ENDBRANCH   4  20
TORSDOF 5
ENDMDL
MODEL 6
REMARK VINA RESULT:      -8.3      2.721      3.243
REMARK  5 active torsions:
REMARK  status: ('A' for Active; 'I' for Inactive)
REMARK    1  A    between atoms: O_2  and  C_3 
REMARK    2  A    between atoms: C_6  and  C_7 
REMARK    3  A    between atoms: C_7  and  C_8 
REMARK       I    between atoms: C_8  and  N_9 
REMARK    4  A    between atoms: N_9  and  C_10 
REMARK    5  A    between atoms: C_13  and  C_14 
ROOT
HETATM    1  C   UNL     1      42.383 -12.362   6.416  1.00  0.00     0.034 A 
HETATM    2  C   UNL     1      41.518 -13.127   5.634  1.00  0.00     0.030 A 
HETATM    3  C   UNL     1      41.837 -14.451   5.304  1.00  0.00     0.017 A 
HETATM    4  C   UNL     1      43.025 -15.033   5.758  1.00  0.00     0.010 A 
HETATM    5  C   UNL     1      43.915 -14.259   6.509  1.00  0.00     0.017 A 
HETATM    6  C   UNL     1      43.591 -12.934   6.837  1.00  0.00     0.030 A 
ENDROOT
BRANCH   1   7
HETATM    7  N   UNL     1      42.096 -11.051   6.851  1.00  0.00    -0.327 N 
HETATM    8  C   UNL     1      41.958  -9.918   6.064  1.00  0.00     0.226 C 
HETATM    9  O   UNL     1      42.203  -9.832   4.864  1.00  0.00    -0.273 OA
HETATM   10  H   UNL     1      41.984 -10.921   7.849  1.00  0.00     0.169 HD
BRANCH   8  11
HETATM   11  C   UNL     1      41.421  -8.721   6.834  1.00  0.00     0.141 C 
BRANCH  11  12
HETATM   12  C   UNL     1      40.862  -9.044   8.197  1.00  0.00    -0.049 A 
HETATM   13  C   UNL     1      39.534  -9.457   8.367  1.00  0.00     0.010 A 
HETATM   14  C   UNL     1      39.050  -9.815   9.631  1.00  0.00     0.037 A 
HETATM   15  C   UNL     1      39.892  -9.782  10.741  1.00  0.00     0.068 A 
HETATM   16  C   UNL     1      41.220  -9.386  10.575  1.00  0.00     0.037 A 
HETATM   17  C   UNL     1      41.705  -9.024   9.316  1.00  0.00     0.010 A 
BRANCH  15  18
HETATM   18  O   UNL     1      39.551 -10.118  12.022  1.00  0.00    -0.356 OA
HETATM   19  C   UNL     1      40.580 -10.044  13.001  1.00  0.00     0.210 C 
ENDBRANCH  15  18
ENDBRANCH  11  12
ENDBRANCH   8  11
ENDBRANCH   1   7
BRANCH   4  20
HETATM   20  C   UNL     1      43.276 -16.469   5.439  1.00  0.00     0.141 A 
HETATM   21  N   UNL     1      43.402 -16.859   4.210  1.00  0.00    -0.230 NA
HETATM   22  C   UNL     1      43.590 -18.228   3.953  1.00  0.00     0.074 A 
HETATM   23  C   UNL     1      43.637 -19.184   4.970  1.00  0.00     0.061 A 
HETATM   24  C   UNL     1      43.714 -18.656   2.630  1.00  0.00     0.032 A 
HETATM   25  C   UNL     1      43.487 -18.704   6.353  1.00  0.00     0.259 A 
HETATM   26  C   UNL     1      43.799 -20.544   4.686  1.00  0.00     0.019 A 
HETATM   27  O   UNL     1      43.492 -19.463   7.315  1.00  0.00    -0.267 OA
HETATM   28  N   UNL     1      43.325 -17.350   6.498  1.00  0.00    -0.307 N 
HETATM   29  H   UNL     1      43.162 -17.050   7.446  1.00  0.00     0.170 HD
HETATM   30  C   UNL     1      43.919 -20.956   3.361  1.00  0.00     0.001 A 
HETATM   31  C   UNL     1      43.878 -20.013   2.333  1.00  0.00     0.002 A 
ENDBRANCH   4  20
TORSDOF 5
ENDMDL
MODEL 7
REMARK VINA RESULT:      -8.3      2.118      3.220
REMARK  5 active torsions:
REMARK  status: ('A' for Active; 'I' for Inactive)
REMARK    1  A    between atoms: O_2  and  C_3 
REMARK    2  A    between atoms: C_6  and  C_7 
REMARK    3  A    between atoms: C_7  and  C_8 
REMARK       I    between atoms: C_8  and  N_9 
REMARK    4  A    between atoms: N_9  and  C_10 
REMARK    5  A    between atoms: C_13  and  C_14 
ROOT
HETATM    1  C   UNL     1      43.237  -9.937   7.735  1.00  0.00     0.034 A 
HETATM    2  C   UNL     1      42.242 -10.224   6.800  1.00  0.00     0.030 A 
HETATM    3  C   UNL     1      42.272 -11.420   6.072  1.00  0.00     0.017 A 
HETATM    4  C   UNL     1      43.295 -12.352   6.271  1.00  0.00     0.010 A 
HETATM    5  C   UNL     1      44.318 -12.052   7.178  1.00  0.00     0.017 A 
HETATM    6  C   UNL     1      44.283 -10.853   7.905  1.00  0.00     0.030 A 
ENDROOT
BRANCH   1   7
HETATM    7  N   UNL     1      43.234  -8.791   8.558  1.00  0.00    -0.327 N 
HETATM    8  C   UNL     1      42.602  -8.640   9.783  1.00  0.00     0.226 C 
HETATM    9  O   UNL     1      41.815  -9.429  10.297  1.00  0.00    -0.273 OA
HETATM   10  H   UNL     1      43.746  -7.987   8.215  1.00  0.00     0.169 HD
BRANCH   8  11
HETATM   11  C   UNL     1      42.998  -7.360  10.503  1.00  0.00     0.141 C 
BRANCH  11  12
HETATM   12  C   UNL     1      42.495  -7.250  11.921  1.00  0.00    -0.049 A 
HETATM   13  C   UNL     1      43.198  -7.810  12.995  1.00  0.00     0.010 A 
HETATM   14  C   UNL     1      42.751  -7.643  14.311  1.00  0.00     0.037 A 
HETATM   15  C   UNL     1      41.604  -6.897  14.574  1.00  0.00     0.068 A 
HETATM   16  C   UNL     1      40.908  -6.323  13.508  1.00  0.00     0.037 A 
HETATM   17  C   UNL     1      41.349  -6.491  12.194  1.00  0.00     0.010 A 
BRANCH  15  18
HETATM   18  O   UNL     1      41.070  -6.646  15.807  1.00  0.00    -0.356 OA
HETATM   19  C   UNL     1      41.113  -7.705  16.755  1.00  0.00     0.210 C 
ENDBRANCH  15  18
ENDBRANCH  11  12
ENDBRANCH   8  11
ENDBRANCH   1   7
BRANCH   4  20
HETATM   20  C   UNL     1      43.234 -13.641   5.522  1.00  0.00     0.141 A 
HETATM   21  N   UNL     1      43.279 -13.654   4.227  1.00  0.00    -0.230 NA
HETATM   22  C   UNL     1      43.170 -14.886   3.562  1.00  0.00     0.074 A 
HETATM   23  C   UNL     1      43.007 -16.096   4.241  1.00  0.00     0.061 A 
HETATM   24  C   UNL     1      43.205 -14.906   2.166  1.00  0.00     0.032 A 
HETATM   25  C   UNL     1      42.957 -16.042   5.710  1.00  0.00     0.259 A 
HETATM   26  C   UNL     1      42.875 -17.307   3.553  1.00  0.00     0.019 A 
HETATM   27  O   UNL     1      42.795 -17.042   6.398  1.00  0.00    -0.267 OA
HETATM   28  N   UNL     1      43.088 -14.794   6.264  1.00  0.00    -0.307 N 
HETATM   29  H   UNL     1      42.990 -14.771   7.266  1.00  0.00     0.170 HD
HETATM   30  C   UNL     1      42.909 -17.310   2.160  1.00  0.00     0.001 A 
HETATM   31  C   UNL     1      43.075 -16.110   1.467  1.00  0.00     0.002 A 
ENDBRANCH   4  20
TORSDOF 5
ENDMDL
MODEL 8
REMARK VINA RESULT:      -8.1      6.069     10.036
REMARK  5 active torsions:
REMARK  status: ('A' for Active; 'I' for Inactive)
REMARK    1  A    between atoms: O_2  and  C_3 
REMARK    2  A    between atoms: C_6  and  C_7 
REMARK    3  A    between atoms: C_7  and  C_8 
REMARK       I    between atoms: C_8  and  N_9 
REMARK    4  A    between atoms: N_9  and  C_10 
REMARK    5  A    between atoms: C_13  and  C_14 
ROOT
HETATM    1  C   UNL     1      41.790  -7.686  15.539  1.00  0.00     0.034 A 
HETATM    2  C   UNL     1      41.051  -8.682  14.901  1.00  0.00     0.030 A 
HETATM    3  C   UNL     1      41.356  -9.064  13.588  1.00  0.00     0.017 A 
HETATM    4  C   UNL     1      42.410  -8.462  12.895  1.00  0.00     0.010 A 
HETATM    5  C   UNL     1      43.130  -7.435  13.516  1.00  0.00     0.017 A 
HETATM    6  C   UNL     1      42.821  -7.055  14.830  1.00  0.00     0.030 A 
ENDROOT
BRANCH   1   7
HETATM    7  N   UNL     1      41.592  -7.300  16.882  1.00  0.00    -0.327 N 
HETATM    8  C   UNL     1      40.436  -6.780  17.443  1.00  0.00     0.226 C 
HETATM    9  O   UNL     1      39.427  -6.430  16.837  1.00  0.00    -0.273 OA
HETATM   10  H   UNL     1      42.384  -7.410  17.505  1.00  0.00     0.169 HD
BRANCH   8  11
HETATM   11  C   UNL     1      40.498  -6.693  18.960  1.00  0.00     0.141 C 
BRANCH  11  12
HETATM   12  C   UNL     1      41.022  -7.932  19.645  1.00  0.00    -0.049 A 
HETATM   13  C   UNL     1      42.338  -8.009  20.117  1.00  0.00     0.010 A 
HETATM   14  C   UNL     1      42.789  -9.140  20.807  1.00  0.00     0.037 A 
HETATM   15  C   UNL     1      41.923 -10.205  21.051  1.00  0.00     0.068 A 
HETATM   16  C   UNL     1      40.605 -10.127  20.597  1.00  0.00     0.037 A 
HETATM   17  C   UNL     1      40.154  -9.001  19.904  1.00  0.00     0.010 A 
BRANCH  15  18
HETATM   18  O   UNL     1      42.229 -11.357  21.721  1.00  0.00    -0.356 OA
HETATM   19  C   UNL     1      43.554 -11.477  22.222  1.00  0.00     0.210 C 
ENDBRANCH  15  18
ENDBRANCH  11  12
ENDBRANCH   8  11
ENDBRANCH   1   7
BRANCH   4  20
HETATM   20  C   UNL     1      42.737  -8.963  11.529  1.00  0.00     0.141 A 
HETATM   21  N   UNL     1      43.943  -9.334  11.233  1.00  0.00    -0.230 NA
HETATM   22  C   UNL     1      44.215  -9.754   9.920  1.00  0.00     0.074 A 
HETATM   23  C   UNL     1      43.240  -9.780   8.921  1.00  0.00     0.061 A 
HETATM   24  C   UNL     1      45.515 -10.142   9.591  1.00  0.00     0.032 A 
HETATM   25  C   UNL     1      41.883  -9.350   9.293  1.00  0.00     0.259 A 
HETATM   26  C   UNL     1      43.543 -10.179   7.615  1.00  0.00     0.019 A 
HETATM   27  O   UNL     1      40.961  -9.316   8.487  1.00  0.00    -0.267 OA
HETATM   28  N   UNL     1      41.716  -8.974  10.602  1.00  0.00    -0.307 N 
HETATM   29  H   UNL     1      40.797  -8.625  10.820  1.00  0.00     0.170 HD
HETATM   30  C   UNL     1      44.846 -10.561   7.301  1.00  0.00     0.001 A 
HETATM   31  C   UNL     1      45.831 -10.544   8.289  1.00  0.00     0.002 A 
ENDBRANCH   4  20
TORSDOF 5
ENDMDL
MODEL 9
REMARK VINA RESULT:      -8.1      6.614      9.759
REMARK  5 active torsions:
REMARK  status: ('A' for Active; 'I' for Inactive)
REMARK    1  A    between atoms: O_2  and  C_3 
REMARK    2  A    between atoms: C_6  and  C_7 
REMARK    3  A    between atoms: C_7  and  C_8 
REMARK       I    between atoms: C_8  and  N_9 
REMARK    4  A    between atoms: N_9  and  C_10 
REMARK    5  A    between atoms: C_13  and  C_14 
ROOT
HETATM    1  C   UNL     1      40.991 -12.611   0.501  1.00  0.00     0.034 A 
HETATM    2  C   UNL     1      41.965 -12.459   1.488  1.00  0.00     0.030 A 
HETATM    3  C   UNL     1      42.458 -13.573   2.179  1.00  0.00     0.017 A 
HETATM    4  C   UNL     1      41.989 -14.859   1.889  1.00  0.00     0.010 A 
HETATM    5  C   UNL     1      40.983 -15.013   0.929  1.00  0.00     0.017 A 
HETATM    6  C   UNL     1      40.492 -13.894   0.240  1.00  0.00     0.030 A 
ENDROOT
BRANCH   1   7
HETATM    7  N   UNL     1      40.500 -11.548  -0.288  1.00  0.00    -0.327 N 
HETATM    8  C   UNL     1      40.814 -11.271  -1.609  1.00  0.00     0.226 C 
HETATM    9  O   UNL     1      41.685 -11.818  -2.280  1.00  0.00    -0.273 OA
HETATM   10  H   UNL     1      39.850 -10.915   0.162  1.00  0.00     0.169 HD
BRANCH   8  11
HETATM   11  C   UNL     1      39.931 -10.192  -2.217  1.00  0.00     0.141 C 
BRANCH  11  12
HETATM   12  C   UNL     1      40.678  -9.055  -2.868  1.00  0.00    -0.049 A 
HETATM   13  C   UNL     1      41.554  -8.240  -2.141  1.00  0.00     0.010 A 
HETATM   14  C   UNL     1      42.288  -7.230  -2.774  1.00  0.00     0.037 A 
HETATM   15  C   UNL     1      42.170  -7.032  -4.148  1.00  0.00     0.068 A 
HETATM   16  C   UNL     1      41.310  -7.851  -4.881  1.00  0.00     0.037 A 
HETATM   17  C   UNL     1      40.573  -8.857  -4.252  1.00  0.00     0.010 A 
BRANCH  15  18
HETATM   18  O   UNL     1      42.836  -6.095  -4.890  1.00  0.00    -0.356 OA
HETATM   19  C   UNL     1      42.493  -6.001  -6.266  1.00  0.00     0.210 C 
ENDBRANCH  15  18
ENDBRANCH  11  12
ENDBRANCH   8  11
ENDBRANCH   1   7
BRANCH   4  20
HETATM   20  C   UNL     1      42.606 -16.014   2.604  1.00  0.00     0.141 A 
HETATM   21  N   UNL     1      42.630 -17.190   2.058  1.00  0.00    -0.230 NA
HETATM   22  C   UNL     1      43.178 -18.259   2.787  1.00  0.00     0.074 A 
HETATM   23  C   UNL     1      43.689 -18.106   4.077  1.00  0.00     0.061 A 
HETATM   24  C   UNL     1      43.196 -19.530   2.210  1.00  0.00     0.032 A 
HETATM   25  C   UNL     1      43.642 -16.758   4.665  1.00  0.00     0.259 A 
HETATM   26  C   UNL     1      44.206 -19.192   4.791  1.00  0.00     0.019 A 
HETATM   27  O   UNL     1      44.044 -16.521   5.798  1.00  0.00    -0.267 OA
HETATM   28  N   UNL     1      43.103 -15.780   3.867  1.00  0.00    -0.307 N 
HETATM   29  H   UNL     1      43.024 -14.879   4.311  1.00  0.00     0.170 HD
HETATM   30  C   UNL     1      44.214 -20.455   4.203  1.00  0.00     0.001 A 
HETATM   31  C   UNL     1      43.711 -20.624   2.913  1.00  0.00     0.002 A 
ENDBRANCH   4  20
TORSDOF 5
ENDMDL
MODEL 10
REMARK VINA RESULT:      -8.1      2.982      4.201
REMARK  5 active torsions:
REMARK  status: ('A' for Active; 'I' for Inactive)
REMARK    1  A    between atoms: O_2  and  C_3 
REMARK    2  A    between atoms: C_6  and  C_7 
REMARK    3  A    between atoms: C_7  and  C_8 
REMARK       I    between atoms: C_8  and  N_9 
REMARK    4  A    between atoms: N_9  and  C_10 
REMARK    5  A    between atoms: C_13  and  C_14 
ROOT
HETATM    1  C   UNL     1      43.424 -11.814   6.671  1.00  0.00     0.034 A 
HETATM    2  C   UNL     1      43.349 -13.171   6.356  1.00  0.00     0.030 A 
HETATM    3  C   UNL     1      42.726 -13.594   5.174  1.00  0.00     0.017 A 
HETATM    4  C   UNL     1      42.174 -12.666   4.286  1.00  0.00     0.010 A 
HETATM    5  C   UNL     1      42.210 -11.307   4.616  1.00  0.00     0.017 A 
HETATM    6  C   UNL     1      42.835 -10.888   5.800  1.00  0.00     0.030 A 
ENDROOT
BRANCH   1   7
HETATM    7  N   UNL     1      44.099 -11.307   7.802  1.00  0.00    -0.327 N 
HETATM    8  C   UNL     1      45.418 -10.885   7.872  1.00  0.00     0.226 C 
HETATM    9  O   UNL     1      46.270 -11.013   6.998  1.00  0.00    -0.273 OA
HETATM   10  H   UNL     1      43.562 -11.250   8.659  1.00  0.00     0.169 HD
BRANCH   8  11
HETATM   11  C   UNL     1      45.749 -10.183   9.180  1.00  0.00     0.141 C 
BRANCH  11  12
HETATM   12  C   UNL     1      44.725  -9.172   9.632  1.00  0.00    -0.049 A 
HETATM   13  C   UNL     1      44.143  -9.234  10.905  1.00  0.00     0.010 A 
HETATM   14  C   UNL     1      43.243  -8.251  11.333  1.00  0.00     0.037 A 
HETATM   15  C   UNL     1      42.926  -7.179  10.500  1.00  0.00     0.068 A 
HETATM   16  C   UNL     1      43.515  -7.103   9.236  1.00  0.00     0.037 A 
HETATM   17  C   UNL     1      44.409  -8.085   8.805  1.00  0.00     0.010 A 
BRANCH  15  18
HETATM   18  O   UNL     1      42.078  -6.149  10.798  1.00  0.00    -0.356 OA
HETATM   19  C   UNL     1      42.092  -5.030   9.921  1.00  0.00     0.210 C 
ENDBRANCH  15  18
ENDBRANCH  11  12
ENDBRANCH   8  11
ENDBRANCH   1   7
BRANCH   4  20
HETATM   20  C   UNL     1      41.591 -13.170   3.008  1.00  0.00     0.141 A 
HETATM   21  N   UNL     1      41.658 -12.458   1.927  1.00  0.00    -0.230 NA
HETATM   22  C   UNL     1      41.054 -12.951   0.758  1.00  0.00     0.074 A 
HETATM   23  C   UNL     1      40.379 -14.173   0.718  1.00  0.00     0.061 A 
HETATM   24  C   UNL     1      41.111 -12.183  -0.407  1.00  0.00     0.032 A 
HETATM   25  C   UNL     1      40.322 -14.952   1.964  1.00  0.00     0.259 A 
HETATM   26  C   UNL     1      39.765 -14.629  -0.453  1.00  0.00     0.019 A 
HETATM   27  O   UNL     1      39.737 -16.026   2.041  1.00  0.00    -0.267 OA
HETATM   28  N   UNL     1      40.956 -14.392   3.045  1.00  0.00    -0.307 N 
HETATM   29  H   UNL     1      40.852 -14.912   3.902  1.00  0.00     0.170 HD
HETATM   30  C   UNL     1      39.828 -13.850  -1.607  1.00  0.00     0.001 A 
HETATM   31  C   UNL     1      40.501 -12.628  -1.584  1.00  0.00     0.002 A 
ENDBRANCH   4  20
TORSDOF 5
ENDMDL
