MODEL 1
REMARK VINA RESULT:      -9.4      0.000      0.000
REMARK  6 active torsions:
REMARK  status: ('A' for Active; 'I' for Inactive)
REMARK    1  A    between atoms: CG_8  and  CB_9 
REMARK    2  A    between atoms: CB_9  and  CA_10 
REMARK    3  A    between atoms: CA_10  and  N_11 
REMARK    4  A    between atoms: CA_10  and  C_12 
REMARK       I    between atoms: N_11  and  C_18 
REMARK    5  A    between atoms: C_12  and  O_13 
REMARK       I    between atoms: C_18  and  N_19 
REMARK    6  A    between atoms: N_19  and  C_20 
ROOT
ATOM      1  CA  TRP A   1      41.305 -15.076   3.592  1.00  0.00     0.114 C 
ENDROOT
BRANCH   1   2
ATOM      2  CB  TRP A   1      42.654 -15.573   3.028  1.00  0.00     0.068 C 
BRANCH   2   3
ATOM      3  CG  TRP A   1      43.228 -16.719   3.813  1.00  0.00    -0.028 A 
ATOM      4  CD2 TRP A   1      43.331 -18.081   3.381  1.00  0.00    -0.002 A 
ATOM      5  CE3 TRP A   1      42.968 -18.766   2.204  1.00  0.00     0.014 A 
ATOM      6  CE2 TRP A   1      43.942 -18.801   4.409  1.00  0.00     0.042 A 
ATOM      7  CZ3 TRP A   1      43.234 -20.135   2.093  1.00  0.00     0.001 A 
ATOM      8  CH2 TRP A   1      43.848 -20.826   3.135  1.00  0.00     0.002 A 
ATOM      9  CZ2 TRP A   1      44.211 -20.173   4.316  1.00  0.00     0.030 A 
ATOM     10  NE1 TRP A   1      44.200 -17.914   5.426  1.00  0.00    -0.365 N 
ATOM     11  HE1 TRP A   1      44.654 -18.157   6.295  1.00  0.00     0.165 HD
ATOM     12  CD1 TRP A   1      43.778 -16.659   5.080  1.00  0.00     0.096 A 
ENDBRANCH   2   3
ENDBRANCH   1   2
BRANCH   1  13
ATOM     13  N   TRP A   1      41.461 -14.310   4.837  1.00  0.00    -0.336 N 
HETATM   14  C   UNK A   0      42.361 -13.269   4.939  1.00  0.00     0.321 C 
HETATM   15  N   UNK A   0      42.420 -12.801   6.234  1.00  0.00    -0.309 N 
HETATM   16  O   UNK A   0      42.989 -12.840   3.981  1.00  0.00    -0.247 OA
HETATM   17  H   UNK A   0      41.650 -13.074   6.824  1.00  0.00     0.170 HD
ATOM     18  H   TRP A   1      41.373 -14.871   5.673  1.00  0.00     0.164 HD
BRANCH  15  19
HETATM   19  C   UNK A   0      43.317 -11.847   6.756  1.00  0.00     0.036 A 
HETATM   20  C   UNK A   0      42.916 -10.600   7.247  1.00  0.00     0.039 A 
HETATM   21  C   UNK A   0      43.884  -9.726   7.717  1.00  0.00    -0.024 A 
HETATM   22  C   UNK A   0      45.226 -10.062   7.713  1.00  0.00    -0.026 A 
HETATM   23  C   UNK A   0      43.716  -8.372   8.300  1.00  0.00     0.207 C 
HETATM   24  C   UNK A   0      46.012  -8.947   8.296  1.00  0.00     0.207 C 
HETATM   25  C   UNK A   0      45.651 -11.287   7.234  1.00  0.00     0.012 A 
HETATM   26  O   UNK A   0      45.066  -7.861   8.429  1.00  0.00    -0.382 OA
HETATM   27  C   UNK A   0      44.687 -12.178   6.747  1.00  0.00     0.030 A 
ENDBRANCH  15  19
ENDBRANCH   1  13
BRANCH   1  28
ATOM     28  C   TRP A   1      40.508 -14.312   2.518  1.00  0.00     0.189 C 
BRANCH  28  29
ATOM     29  O   TRP A   1      39.114 -14.595   2.643  1.00  0.00    -0.399 OA
ATOM     30  H   TRP A   1      39.047 -15.468   3.069  1.00  0.00     0.209 HD
ENDBRANCH  28  29
ENDBRANCH   1  28
TORSDOF 6
ENDMDL
MODEL 2
REMARK VINA RESULT:      -9.1      4.367      8.482
REMARK  6 active torsions:
REMARK  status: ('A' for Active; 'I' for Inactive)
REMARK    1  A    between atoms: CG_8  and  CB_9 
REMARK    2  A    between atoms: CB_9  and  CA_10 
REMARK    3  A    between atoms: CA_10  and  N_11 
REMARK    4  A    between atoms: CA_10  and  C_12 
REMARK       I    between atoms: N_11  and  C_18 
REMARK    5  A    between atoms: C_12  and  O_13 
REMARK       I    between atoms: C_18  and  N_19 
REMARK    6  A    between atoms: N_19  and  C_20 
ROOT
ATOM      1  CA  TRP A   1      40.364 -12.845   1.960  1.00  0.00     0.114 C 
ENDROOT
BRANCH   1   2
ATOM      2  CB  TRP A   1      40.409 -11.763   0.859  1.00  0.00     0.068 C 
BRANCH   2   3
ATOM      3  CG  TRP A   1      39.253 -11.857  -0.099  1.00  0.00    -0.028 A 
ATOM      4  CD2 TRP A   1      39.069 -12.845  -1.119  1.00  0.00    -0.002 A 
ATOM      5  CE3 TRP A   1      39.819 -13.957  -1.553  1.00  0.00     0.014 A 
ATOM      6  CE2 TRP A   1      37.859 -12.570  -1.756  1.00  0.00     0.042 A 
ATOM      7  CZ3 TRP A   1      39.332 -14.753  -2.595  1.00  0.00     0.001 A 
ATOM      8  CH2 TRP A   1      38.119 -14.454  -3.210  1.00  0.00     0.002 A 
ATOM      9  CZ2 TRP A   1      37.359 -13.353  -2.804  1.00  0.00     0.030 A 
ATOM     10  NE1 TRP A   1      37.326 -11.457  -1.148  1.00  0.00    -0.365 N 
ATOM     11  HE1 TRP A   1      36.441 -11.039  -1.398  1.00  0.00     0.165 HD
ATOM     12  CD1 TRP A   1      38.153 -11.020  -0.150  1.00  0.00     0.096 A 
ENDBRANCH   2   3
ENDBRANCH   1   2
BRANCH   1  13
ATOM     13  N   TRP A   1      41.583 -13.666   1.995  1.00  0.00    -0.336 N 
HETATM   14  C   UNK A   0      41.560 -14.979   2.421  1.00  0.00     0.321 C 
HETATM   15  N   UNK A   0      42.838 -15.490   2.492  1.00  0.00    -0.309 N 
HETATM   16  O   UNK A   0      40.523 -15.575   2.673  1.00  0.00    -0.247 OA
HETATM   17  H   UNK A   0      43.538 -14.965   1.992  1.00  0.00     0.170 HD
ATOM     18  H   TRP A   1      42.410 -13.153   2.265  1.00  0.00     0.164 HD
BRANCH  15  19
HETATM   19  C   UNK A   0      43.228 -16.740   3.014  1.00  0.00     0.036 A 
HETATM   20  C   UNK A   0      43.216 -17.923   2.268  1.00  0.00     0.039 A 
HETATM   21  C   UNK A   0      43.599 -19.105   2.885  1.00  0.00    -0.024 A 
HETATM   22  C   UNK A   0      43.991 -19.133   4.212  1.00  0.00    -0.026 A 
HETATM   23  C   UNK A   0      43.690 -20.471   2.314  1.00  0.00     0.207 C 
HETATM   24  C   UNK A   0      44.366 -20.521   4.582  1.00  0.00     0.207 C 
HETATM   25  C   UNK A   0      44.013 -17.980   4.973  1.00  0.00     0.012 A 
HETATM   26  O   UNK A   0      43.950 -21.326   3.454  1.00  0.00    -0.382 OA
HETATM   27  C   UNK A   0      43.621 -16.780   4.366  1.00  0.00     0.030 A 
ENDBRANCH  15  19
ENDBRANCH   1  13
BRANCH   1  28
ATOM     28  C   TRP A   1      40.024 -12.223   3.328  1.00  0.00     0.189 C 
BRANCH  28  29
ATOM     29  O   TRP A   1      39.239 -13.132   4.101  1.00  0.00    -0.399 OA
ATOM     30  H   TRP A   1      39.859 -13.780   4.478  1.00  0.00     0.209 HD
ENDBRANCH  28  29
ENDBRANCH   1  28
TORSDOF 6
ENDMDL
MODEL 3
REMARK VINA RESULT:      -9.0      4.711      7.510
REMARK  6 active torsions:
REMARK  status: ('A' for Active; 'I' for Inactive)
REMARK    1  A    between atoms: CG_8  and  CB_9 
REMARK    2  A    between atoms: CB_9  and  CA_10 
REMARK    3  A    between atoms: CA_10  and  N_11 
REMARK    4  A    between atoms: CA_10  and  C_12 
REMARK       I    between atoms: N_11  and  C_18 
REMARK    5  A    between atoms: C_12  and  O_13 
REMARK       I    between atoms: C_18  and  N_19 
REMARK    6  A    between atoms: N_19  and  C_20 
ROOT
ATOM      1  CA  TRP A   1      41.925 -15.440   1.958  1.00  0.00     0.114 C 
ENDROOT
BRANCH   1   2
ATOM      2  CB  TRP A   1      43.320 -16.101   2.015  1.00  0.00     0.068 C 
BRANCH   2   3
ATOM      3  CG  TRP A   1      43.542 -16.886   3.278  1.00  0.00    -0.028 A 
ATOM      4  CD2 TRP A   1      43.642 -18.311   3.388  1.00  0.00    -0.002 A 
ATOM      5  CE3 TRP A   1      43.571 -19.373   2.464  1.00  0.00     0.014 A 
ATOM      6  CE2 TRP A   1      43.868 -18.612   4.732  1.00  0.00     0.042 A 
ATOM      7  CZ3 TRP A   1      43.735 -20.689   2.912  1.00  0.00     0.001 A 
ATOM      8  CH2 TRP A   1      43.962 -20.957   4.260  1.00  0.00     0.002 A 
ATOM      9  CZ2 TRP A   1      44.029 -19.923   5.198  1.00  0.00     0.030 A 
ATOM     10  NE1 TRP A   1      43.903 -17.418   5.413  1.00  0.00    -0.365 N 
ATOM     11  HE1 TRP A   1      44.066 -17.332   6.406  1.00  0.00     0.165 HD
ATOM     12  CD1 TRP A   1      43.711 -16.374   4.550  1.00  0.00     0.096 A 
ENDBRANCH   2   3
ENDBRANCH   1   2
BRANCH   1  13
ATOM     13  N   TRP A   1      41.632 -14.853   0.642  1.00  0.00    -0.336 N 
HETATM   14  C   UNK A   0      40.591 -13.965   0.461  1.00  0.00     0.321 C 
HETATM   15  N   UNK A   0      40.435 -13.663  -0.875  1.00  0.00    -0.309 N 
HETATM   16  O   UNK A   0      39.934 -13.517   1.390  1.00  0.00    -0.247 OA
HETATM   17  H   UNK A   0      41.221 -13.895  -1.461  1.00  0.00     0.170 HD
ATOM     18  H   TRP A   1      41.777 -15.491  -0.128  1.00  0.00     0.164 HD
BRANCH  15  19
HETATM   19  C   UNK A   0      39.400 -12.908  -1.463  1.00  0.00     0.036 A 
HETATM   20  C   UNK A   0      39.386 -11.510  -1.489  1.00  0.00     0.039 A 
HETATM   21  C   UNK A   0      38.307 -10.865  -2.074  1.00  0.00    -0.024 A 
HETATM   22  C   UNK A   0      37.255 -11.573  -2.629  1.00  0.00    -0.026 A 
HETATM   23  C   UNK A   0      38.067  -9.411  -2.245  1.00  0.00     0.207 C 
HETATM   24  C   UNK A   0      36.270 -10.620  -3.198  1.00  0.00     0.207 C 
HETATM   25  C   UNK A   0      37.242 -12.955  -2.617  1.00  0.00     0.012 A 
HETATM   26  O   UNK A   0      36.708  -9.321  -2.738  1.00  0.00    -0.382 OA
HETATM   27  C   UNK A   0      38.321 -13.621  -2.022  1.00  0.00     0.030 A 
ENDBRANCH  15  19
ENDBRANCH   1  13
BRANCH   1  28
ATOM     28  C   TRP A   1      40.834 -16.420   2.430  1.00  0.00     0.189 C 
BRANCH  28  29
ATOM     29  O   TRP A   1      39.976 -15.783   3.377  1.00  0.00    -0.399 OA
ATOM     30  H   TRP A   1      39.082 -15.798   2.992  1.00  0.00     0.209 HD
ENDBRANCH  28  29
ENDBRANCH   1  28
TORSDOF 6
ENDMDL
MODEL 4
REMARK VINA RESULT:      -8.9      3.560      7.296
REMARK  6 active torsions:
REMARK  status: ('A' for Active; 'I' for Inactive)
REMARK    1  A    between atoms: CG_8  and  CB_9 
REMARK    2  A    between atoms: CB_9  and  CA_10 
REMARK    3  A    between atoms: CA_10  and  N_11 
REMARK    4  A    between atoms: CA_10  and  C_12 
REMARK       I    between atoms: N_11  and  C_18 
REMARK    5  A    between atoms: C_12  and  O_13 
REMARK       I    between atoms: C_18  and  N_19 
REMARK    6  A    between atoms: N_19  and  C_20 
ROOT
ATOM      1  CA  TRP A   1      41.410 -13.896   5.107  1.00  0.00     0.114 C 
ENDROOT
BRANCH   1   2
ATOM      2  CB  TRP A   1      40.888 -15.328   5.358  1.00  0.00     0.068 C 
BRANCH   2   3
ATOM      3  CG  TRP A   1      41.994 -16.334   5.512  1.00  0.00    -0.028 A 
ATOM      4  CD2 TRP A   1      42.599 -17.103   4.466  1.00  0.00    -0.002 A 
ATOM      5  CE3 TRP A   1      42.398 -17.193   3.074  1.00  0.00     0.014 A 
ATOM      6  CE2 TRP A   1      43.593 -17.892   5.047  1.00  0.00     0.042 A 
ATOM      7  CZ3 TRP A   1      43.196 -18.057   2.316  1.00  0.00     0.001 A 
ATOM      8  CH2 TRP A   1      44.183 -18.829   2.924  1.00  0.00     0.002 A 
ATOM      9  CZ2 TRP A   1      44.398 -18.764   4.304  1.00  0.00     0.030 A 
ATOM     10  NE1 TRP A   1      43.594 -17.615   6.393  1.00  0.00    -0.365 N 
ATOM     11  HE1 TRP A   1      44.224 -18.033   7.063  1.00  0.00     0.165 HD
ATOM     12  CD1 TRP A   1      42.639 -16.679   6.686  1.00  0.00     0.096 A 
ENDBRANCH   2   3
ENDBRANCH   1   2
BRANCH   1  13
ATOM     13  N   TRP A   1      41.516 -13.576   3.677  1.00  0.00    -0.336 N 
HETATM   14  C   UNK A   0      40.401 -13.495   2.868  1.00  0.00     0.321 C 
HETATM   15  N   UNK A   0      40.765 -13.317   1.551  1.00  0.00    -0.309 N 
HETATM   16  O   UNK A   0      39.260 -13.559   3.305  1.00  0.00    -0.247 OA
HETATM   17  H   UNK A   0      41.715 -13.012   1.406  1.00  0.00     0.170 HD
ATOM     18  H   TRP A   1      42.329 -13.976   3.230  1.00  0.00     0.164 HD
BRANCH  15  19
HETATM   19  C   UNK A   0      39.920 -13.330   0.423  1.00  0.00     0.036 A 
HETATM   20  C   UNK A   0      39.889 -14.377  -0.504  1.00  0.00     0.039 A 
HETATM   21  C   UNK A   0      39.035 -14.279  -1.592  1.00  0.00    -0.024 A 
HETATM   22  C   UNK A   0      38.220 -13.176  -1.775  1.00  0.00    -0.026 A 
HETATM   23  C   UNK A   0      38.804 -15.250  -2.690  1.00  0.00     0.207 C 
HETATM   24  C   UNK A   0      37.407 -13.366  -3.001  1.00  0.00     0.207 C 
HETATM   25  C   UNK A   0      38.230 -12.127  -0.876  1.00  0.00     0.012 A 
HETATM   26  O   UNK A   0      37.965 -14.540  -3.634  1.00  0.00    -0.382 OA
HETATM   27  C   UNK A   0      39.093 -12.207   0.225  1.00  0.00     0.030 A 
ENDBRANCH  15  19
ENDBRANCH   1  13
BRANCH   1  28
ATOM     28  C   TRP A   1      40.578 -12.863   5.890  1.00  0.00     0.189 C 
BRANCH  28  29
ATOM     29  O   TRP A   1      39.293 -13.402   6.205  1.00  0.00    -0.399 OA
ATOM     30  H   TRP A   1      39.318 -14.341   5.950  1.00  0.00     0.209 HD
ENDBRANCH  28  29
ENDBRANCH   1  28
TORSDOF 6
ENDMDL
MODEL 5
REMARK VINA RESULT:      -8.8      2.267      8.320
REMARK  6 active torsions:
REMARK  status: ('A' for Active; 'I' for Inactive)
REMARK    1  A    between atoms: CG_8  and  CB_9 
REMARK    2  A    between atoms: CB_9  and  CA_10 
REMARK    3  A    between atoms: CA_10  and  N_11 
REMARK    4  A    between atoms: CA_10  and  C_12 
REMARK       I    between atoms: N_11  and  C_18 
REMARK    5  A    between atoms: C_12  and  O_13 
REMARK       I    between atoms: C_18  and  N_19 
REMARK    6  A    between atoms: N_19  and  C_20 
ROOT
ATOM      1  CA  TRP A   1      41.070 -12.584   4.706  1.00  0.00     0.114 C 
ENDROOT
BRANCH   1   2
ATOM      2  CB  TRP A   1      41.489 -11.097   4.712  1.00  0.00     0.068 C 
BRANCH   2   3
ATOM      3  CG  TRP A   1      42.062 -10.657   6.031  1.00  0.00    -0.028 A 
ATOM      4  CD2 TRP A   1      43.418 -10.818   6.466  1.00  0.00    -0.002 A 
ATOM      5  CE3 TRP A   1      44.572 -11.384   5.889  1.00  0.00     0.014 A 
ATOM      6  CE2 TRP A   1      43.518 -10.251   7.737  1.00  0.00     0.042 A 
ATOM      7  CZ3 TRP A   1      45.780 -11.359   6.595  1.00  0.00     0.001 A 
ATOM      8  CH2 TRP A   1      45.849 -10.784   7.862  1.00  0.00     0.002 A 
ATOM      9  CZ2 TRP A   1      44.718 -10.221   8.460  1.00  0.00     0.030 A 
ATOM     10  NE1 TRP A   1      42.274  -9.766   8.064  1.00  0.00    -0.365 N 
ATOM     11  HE1 TRP A   1      42.056  -9.289   8.927  1.00  0.00     0.165 HD
ATOM     12  CD1 TRP A   1      41.391 -10.003   7.046  1.00  0.00     0.096 A 
ENDBRANCH   2   3
ENDBRANCH   1   2
BRANCH   1  13
ATOM     13  N   TRP A   1      42.173 -13.479   4.329  1.00  0.00    -0.336 N 
HETATM   14  C   UNK A   0      41.997 -14.845   4.235  1.00  0.00     0.321 C 
HETATM   15  N   UNK A   0      43.199 -15.477   4.001  1.00  0.00    -0.309 N 
HETATM   16  O   UNK A   0      40.902 -15.380   4.335  1.00  0.00    -0.247 OA
HETATM   17  H   UNK A   0      43.942 -14.878   3.674  1.00  0.00     0.170 HD
ATOM     18  H   TRP A   1      43.070 -13.198   4.698  1.00  0.00     0.164 HD
BRANCH  15  19
HETATM   19  C   UNK A   0      43.445 -16.864   3.984  1.00  0.00     0.036 A 
HETATM   20  C   UNK A   0      43.389 -17.642   2.823  1.00  0.00     0.039 A 
HETATM   21  C   UNK A   0      43.625 -19.005   2.922  1.00  0.00    -0.024 A 
HETATM   22  C   UNK A   0      43.915 -19.603   4.135  1.00  0.00    -0.026 A 
HETATM   23  C   UNK A   0      43.645 -20.030   1.849  1.00  0.00     0.207 C 
HETATM   24  C   UNK A   0      44.144 -21.054   3.924  1.00  0.00     0.207 C 
HETATM   25  C   UNK A   0      43.976 -18.860   5.299  1.00  0.00     0.012 A 
HETATM   26  O   UNK A   0      43.748 -21.292   2.553  1.00  0.00    -0.382 OA
HETATM   27  C   UNK A   0      43.732 -17.483   5.218  1.00  0.00     0.030 A 
ENDBRANCH  15  19
ENDBRANCH   1  13
BRANCH   1  28
ATOM     28  C   TRP A   1      40.416 -12.975   6.045  1.00  0.00     0.189 C 
BRANCH  28  29
ATOM     29  O   TRP A   1      39.087 -13.450   5.824  1.00  0.00    -0.399 OA
ATOM     30  H   TRP A   1      38.883 -13.272   4.889  1.00  0.00     0.209 HD
ENDBRANCH  28  29
ENDBRANCH   1  28
TORSDOF 6
ENDMDL
MODEL 6
REMARK VINA RESULT:      -8.7      3.756      6.507
REMARK  6 active torsions:
REMARK  status: ('A' for Active; 'I' for Inactive)
REMARK    1  A    between atoms: CG_8  and  CB_9 
REMARK    2  A    between atoms: CB_9  and  CA_10 
REMARK    3  A    between atoms: CA_10  and  N_11 
REMARK    4  A    between atoms: CA_10  and  C_12 
REMARK       I    between atoms: N_11  and  C_18 
REMARK    5  A    between atoms: C_12  and  O_13 
REMARK       I    between atoms: C_18  and  N_19 
REMARK    6  A    between atoms: N_19  and  C_20 
ROOT
ATOM      1  CA  TRP A   1      40.784 -14.433   5.171  1.00  0.00     0.114 C 
ENDROOT
BRANCH   1   2
ATOM      2  CB  TRP A   1      40.640 -15.793   5.889  1.00  0.00     0.068 C 
BRANCH   2   3
ATOM      3  CG  TRP A   1      41.909 -16.600   5.869  1.00  0.00    -0.028 A 
ATOM      4  CD2 TRP A   1      42.514 -17.209   4.722  1.00  0.00    -0.002 A 
ATOM      5  CE3 TRP A   1      42.178 -17.272   3.355  1.00  0.00     0.014 A 
ATOM      6  CE2 TRP A   1      43.683 -17.838   5.150  1.00  0.00     0.042 A 
ATOM      7  CZ3 TRP A   1      43.020 -17.953   2.468  1.00  0.00     0.001 A 
ATOM      8  CH2 TRP A   1      44.182 -18.569   2.926  1.00  0.00     0.002 A 
ATOM      9  CZ2 TRP A   1      44.535 -18.527   4.278  1.00  0.00     0.030 A 
ATOM     10  NE1 TRP A   1      43.786 -17.623   6.504  1.00  0.00    -0.365 N 
ATOM     11  HE1 TRP A   1      44.547 -17.955   7.079  1.00  0.00     0.165 HD
ATOM     12  CD1 TRP A   1      42.727 -16.878   6.948  1.00  0.00     0.096 A 
ENDBRANCH   2   3
ENDBRANCH   1   2
BRANCH   1  13
ATOM     13  N   TRP A   1      40.094 -14.403   3.874  1.00  0.00    -0.336 N 
HETATM   14  C   UNK A   0      40.733 -13.986   2.723  1.00  0.00     0.321 C 
HETATM   15  N   UNK A   0      39.846 -13.918   1.670  1.00  0.00    -0.309 N 
HETATM   16  O   UNK A   0      41.930 -13.738   2.683  1.00  0.00    -0.247 OA
HETATM   17  H   UNK A   0      38.979 -14.415   1.808  1.00  0.00     0.170 HD
ATOM     18  H   TRP A   1      39.124 -14.129   3.936  1.00  0.00     0.164 HD
BRANCH  15  19
HETATM   19  C   UNK A   0      40.091 -13.405   0.381  1.00  0.00     0.036 A 
HETATM   20  C   UNK A   0      40.503 -12.090   0.141  1.00  0.00     0.039 A 
HETATM   21  C   UNK A   0      40.694 -11.680  -1.170  1.00  0.00    -0.024 A 
HETATM   22  C   UNK A   0      40.489 -12.541  -2.234  1.00  0.00    -0.026 A 
HETATM   23  C   UNK A   0      41.142 -10.362  -1.681  1.00  0.00     0.207 C 
HETATM   24  C   UNK A   0      40.796 -11.833  -3.502  1.00  0.00     0.207 C 
HETATM   25  C   UNK A   0      40.082 -13.845  -2.027  1.00  0.00     0.012 A 
HETATM   26  O   UNK A   0      40.972 -10.450  -3.117  1.00  0.00    -0.382 OA
HETATM   27  C   UNK A   0      39.877 -14.272  -0.709  1.00  0.00     0.030 A 
ENDBRANCH  15  19
ENDBRANCH   1  13
BRANCH   1  28
ATOM     28  C   TRP A   1      40.362 -13.276   6.098  1.00  0.00     0.189 C 
BRANCH  28  29
ATOM     29  O   TRP A   1      38.951 -13.071   6.018  1.00  0.00    -0.399 OA
ATOM     30  H   TRP A   1      38.651 -12.866   6.921  1.00  0.00     0.209 HD
ENDBRANCH  28  29
ENDBRANCH   1  28
TORSDOF 6
ENDMDL
MODEL 7
REMARK VINA RESULT:      -8.7      3.182      9.599
REMARK  6 active torsions:
REMARK  status: ('A' for Active; 'I' for Inactive)
REMARK    1  A    between atoms: CG_8  and  CB_9 
REMARK    2  A    between atoms: CB_9  and  CA_10 
REMARK    3  A    between atoms: CA_10  and  N_11 
REMARK    4  A    between atoms: CA_10  and  C_12 
REMARK       I    between atoms: N_11  and  C_18 
REMARK    5  A    between atoms: C_12  and  O_13 
REMARK       I    between atoms: C_18  and  N_19 
REMARK    6  A    between atoms: N_19  and  C_20 
ROOT
ATOM      1  CA  TRP A   1      44.309  -9.776   8.402  1.00  0.00     0.114 C 
ENDROOT
BRANCH   1   2
ATOM      2  CB  TRP A   1      45.019  -9.625   9.765  1.00  0.00     0.068 C 
BRANCH   2   3
ATOM      3  CG  TRP A   1      44.132  -9.980  10.927  1.00  0.00    -0.028 A 
ATOM      4  CD2 TRP A   1      43.351  -9.071  11.711  1.00  0.00    -0.002 A 
ATOM      5  CE3 TRP A   1      43.155  -7.675  11.689  1.00  0.00     0.014 A 
ATOM      6  CE2 TRP A   1      42.667  -9.823  12.667  1.00  0.00     0.042 A 
ATOM      7  CZ3 TRP A   1      42.284  -7.086  12.611  1.00  0.00     0.001 A 
ATOM      8  CH2 TRP A   1      41.613  -7.864  13.552  1.00  0.00     0.002 A 
ATOM      9  CZ2 TRP A   1      41.795  -9.250  13.600  1.00  0.00     0.030 A 
ATOM     10  NE1 TRP A   1      43.018 -11.138  12.473  1.00  0.00    -0.365 N 
ATOM     11  HE1 TRP A   1      42.661 -11.911  13.016  1.00  0.00     0.165 HD
ATOM     12  CD1 TRP A   1      43.897 -11.246  11.429  1.00  0.00     0.096 A 
ENDBRANCH   2   3
ENDBRANCH   1   2
BRANCH   1  13
ATOM     13  N   TRP A   1      43.668 -11.089   8.241  1.00  0.00    -0.336 N 
HETATM   14  C   UNK A   0      44.144 -12.021   7.340  1.00  0.00     0.321 C 
HETATM   15  N   UNK A   0      43.301 -13.110   7.276  1.00  0.00    -0.309 N 
HETATM   16  O   UNK A   0      45.185 -11.869   6.718  1.00  0.00    -0.247 OA
HETATM   17  H   UNK A   0      42.653 -13.197   8.043  1.00  0.00     0.170 HD
ATOM     18  H   TRP A   1      42.662 -11.063   8.324  1.00  0.00     0.164 HD
BRANCH  15  19
HETATM   19  C   UNK A   0      43.375 -14.193   6.377  1.00  0.00     0.036 A 
HETATM   20  C   UNK A   0      42.798 -14.178   5.104  1.00  0.00     0.039 A 
HETATM   21  C   UNK A   0      42.911 -15.307   4.306  1.00  0.00    -0.024 A 
HETATM   22  C   UNK A   0      43.579 -16.437   4.744  1.00  0.00    -0.026 A 
HETATM   23  C   UNK A   0      42.411 -15.532   2.928  1.00  0.00     0.207 C 
HETATM   24  C   UNK A   0      43.557 -17.464   3.673  1.00  0.00     0.207 C 
HETATM   25  C   UNK A   0      44.159 -16.481   5.997  1.00  0.00     0.012 A 
HETATM   26  O   UNK A   0      42.643 -16.941   2.681  1.00  0.00    -0.382 OA
HETATM   27  C   UNK A   0      44.047 -15.351   6.818  1.00  0.00     0.030 A 
ENDBRANCH  15  19
ENDBRANCH   1  13
BRANCH   1  28
ATOM     28  C   TRP A   1      43.338  -8.605   8.156  1.00  0.00     0.189 C 
BRANCH  28  29
ATOM     29  O   TRP A   1      44.018  -7.359   8.315  1.00  0.00    -0.399 OA
ATOM     30  H   TRP A   1      44.278  -7.071   7.422  1.00  0.00     0.209 HD
ENDBRANCH  28  29
ENDBRANCH   1  28
TORSDOF 6
ENDMDL
MODEL 8
REMARK VINA RESULT:      -8.6      4.180      6.735
REMARK  6 active torsions:
REMARK  status: ('A' for Active; 'I' for Inactive)
REMARK    1  A    between atoms: CG_8  and  CB_9 
REMARK    2  A    between atoms: CB_9  and  CA_10 
REMARK    3  A    between atoms: CA_10  and  N_11 
REMARK    4  A    between atoms: CA_10  and  C_12 
REMARK       I    between atoms: N_11  and  C_18 
REMARK    5  A    between atoms: C_12  and  O_13 
REMARK       I    between atoms: C_18  and  N_19 
REMARK    6  A    between atoms: N_19  and  C_20 
ROOT
ATOM      1  CA  TRP A   1      44.784 -10.768   7.550  1.00  0.00     0.114 C 
ENDROOT
BRANCH   1   2
ATOM      2  CB  TRP A   1      44.707 -11.917   6.520  1.00  0.00     0.068 C 
BRANCH   2   3
ATOM      3  CG  TRP A   1      43.295 -12.336   6.219  1.00  0.00    -0.028 A 
ATOM      4  CD2 TRP A   1      42.709 -13.614   6.493  1.00  0.00    -0.002 A 
ATOM      5  CE3 TRP A   1      43.186 -14.808   7.070  1.00  0.00     0.014 A 
ATOM      6  CE2 TRP A   1      41.379 -13.563   6.072  1.00  0.00     0.042 A 
ATOM      7  CZ3 TRP A   1      42.322 -15.899   7.212  1.00  0.00     0.001 A 
ATOM      8  CH2 TRP A   1      40.999 -15.817   6.785  1.00  0.00     0.002 A 
ATOM      9  CZ2 TRP A   1      40.502 -14.648   6.203  1.00  0.00     0.030 A 
ATOM     10  NE1 TRP A   1      41.164 -12.305   5.562  1.00  0.00    -0.365 N 
ATOM     11  HE1 TRP A   1      40.280 -11.981   5.196  1.00  0.00     0.165 HD
ATOM     12  CD1 TRP A   1      42.307 -11.557   5.647  1.00  0.00     0.096 A 
ENDBRANCH   2   3
ENDBRANCH   1   2
BRANCH   1  13
ATOM     13  N   TRP A   1      44.010 -11.049   8.768  1.00  0.00    -0.336 N 
HETATM   14  C   UNK A   0      43.544 -10.035   9.581  1.00  0.00     0.321 C 
HETATM   15  N   UNK A   0      42.970 -10.550  10.723  1.00  0.00    -0.309 N 
HETATM   16  O   UNK A   0      43.634  -8.853   9.281  1.00  0.00    -0.247 OA
HETATM   17  H   UNK A   0      42.734 -11.529  10.680  1.00  0.00     0.170 HD
ATOM     18  H   TRP A   1      44.318 -11.874   9.264  1.00  0.00     0.164 HD
BRANCH  15  19
HETATM   19  C   UNK A   0      42.512  -9.831  11.845  1.00  0.00     0.036 A 
HETATM   20  C   UNK A   0      43.238  -8.799  12.447  1.00  0.00     0.039 A 
HETATM   21  C   UNK A   0      42.704  -8.172  13.563  1.00  0.00    -0.024 A 
HETATM   22  C   UNK A   0      41.477  -8.543  14.085  1.00  0.00    -0.026 A 
HETATM   23  C   UNK A   0      43.260  -7.051  14.361  1.00  0.00     0.207 C 
HETATM   24  C   UNK A   0      41.161  -7.682  15.251  1.00  0.00     0.207 C 
HETATM   25  C   UNK A   0      40.738  -9.560  13.510  1.00  0.00     0.012 A 
HETATM   26  O   UNK A   0      42.379  -6.946  15.506  1.00  0.00    -0.382 OA
HETATM   27  C   UNK A   0      41.267 -10.209  12.388  1.00  0.00     0.030 A 
ENDBRANCH  15  19
ENDBRANCH   1  13
BRANCH   1  28
ATOM     28  C   TRP A   1      46.249 -10.395   7.848  1.00  0.00     0.189 C 
BRANCH  28  29
ATOM     29  O   TRP A   1      46.442  -8.989   7.685  1.00  0.00    -0.399 OA
ATOM     30  H   TRP A   1      45.559  -8.583   7.733  1.00  0.00     0.209 HD
ENDBRANCH  28  29
ENDBRANCH   1  28
TORSDOF 6
ENDMDL
MODEL 9
REMARK VINA RESULT:      -8.2      4.611      8.209
REMARK  6 active torsions:
REMARK  status: ('A' for Active; 'I' for Inactive)
REMARK    1  A    between atoms: CG_8  and  CB_9 
REMARK    2  A    between atoms: CB_9  and  CA_10 
REMARK    3  A    between atoms: CA_10  and  N_11 
REMARK    4  A    between atoms: CA_10  and  C_12 
REMARK       I    between atoms: N_11  and  C_18 
REMARK    5  A    between atoms: C_12  and  O_13 
REMARK       I    between atoms: C_18  and  N_19 
REMARK    6  A    between atoms: N_19  and  C_20 
ROOT
ATOM      1  CA  TRP A   1      39.473 -14.016  -1.363  1.00  0.00     0.114 C 
ENDROOT
BRANCH   1   2
ATOM      2  CB  TRP A   1      38.772 -12.658  -1.134  1.00  0.00     0.068 C 
BRANCH   2   3
ATOM      3  CG  TRP A   1      39.645 -11.666  -0.417  1.00  0.00    -0.028 A 
ATOM      4  CD2 TRP A   1      39.635 -11.380   0.987  1.00  0.00    -0.002 A 
ATOM      5  CE3 TRP A   1      38.887 -11.864   2.080  1.00  0.00     0.014 A 
ATOM      6  CE2 TRP A   1      40.614 -10.415   1.225  1.00  0.00     0.042 A 
ATOM      7  CZ3 TRP A   1      39.148 -11.374   3.365  1.00  0.00     0.001 A 
ATOM      8  CH2 TRP A   1      40.134 -10.412   3.571  1.00  0.00     0.002 A 
ATOM      9  CZ2 TRP A   1      40.885  -9.911   2.503  1.00  0.00     0.030 A 
ATOM     10  NE1 TRP A   1      41.197 -10.124   0.015  1.00  0.00    -0.365 N 
ATOM     11  HE1 TRP A   1      41.952  -9.464  -0.112  1.00  0.00     0.165 HD
ATOM     12  CD1 TRP A   1      40.625 -10.870  -0.979  1.00  0.00     0.096 A 
ENDBRANCH   2   3
ENDBRANCH   1   2
BRANCH   1  13
ATOM     13  N   TRP A   1      39.449 -14.872  -0.168  1.00  0.00    -0.336 N 
HETATM   14  C   UNK A   0      40.544 -14.984   0.665  1.00  0.00     0.321 C 
HETATM   15  N   UNK A   0      40.325 -15.942   1.632  1.00  0.00    -0.309 N 
HETATM   16  O   UNK A   0      41.545 -14.295   0.538  1.00  0.00    -0.247 OA
HETATM   17  H   UNK A   0      39.361 -16.209   1.760  1.00  0.00     0.170 HD
ATOM     18  H   TRP A   1      38.929 -15.729  -0.293  1.00  0.00     0.164 HD
BRANCH  15  19
HETATM   19  C   UNK A   0      41.255 -16.436   2.569  1.00  0.00     0.036 A 
HETATM   20  C   UNK A   0      42.273 -17.337   2.242  1.00  0.00     0.039 A 
HETATM   21  C   UNK A   0      43.121 -17.778   3.246  1.00  0.00    -0.024 A 
HETATM   22  C   UNK A   0      42.981 -17.345   4.553  1.00  0.00    -0.026 A 
HETATM   23  C   UNK A   0      44.276 -18.705   3.155  1.00  0.00     0.207 C 
HETATM   24  C   UNK A   0      44.040 -17.962   5.389  1.00  0.00     0.207 C 
HETATM   25  C   UNK A   0      41.984 -16.455   4.905  1.00  0.00     0.012 A 
HETATM   26  O   UNK A   0      44.657 -18.949   4.531  1.00  0.00    -0.382 OA
HETATM   27  C   UNK A   0      41.114 -16.007   3.904  1.00  0.00     0.030 A 
ENDBRANCH  15  19
ENDBRANCH   1  13
BRANCH   1  28
ATOM     28  C   TRP A   1      38.910 -14.720  -2.612  1.00  0.00     0.189 C 
BRANCH  28  29
ATOM     29  O   TRP A   1      38.926 -13.830  -3.729  1.00  0.00    -0.399 OA
ATOM     30  H   TRP A   1      39.520 -13.097  -3.488  1.00  0.00     0.209 HD
ENDBRANCH  28  29
ENDBRANCH   1  28
TORSDOF 6
ENDMDL
MODEL 10
REMARK VINA RESULT:      -8.2      5.068      8.956
REMARK  6 active torsions:
REMARK  status: ('A' for Active; 'I' for Inactive)
REMARK    1  A    between atoms: CG_8  and  CB_9 
REMARK    2  A    between atoms: CB_9  and  CA_10 
REMARK    3  A    between atoms: CA_10  and  N_11 
REMARK    4  A    between atoms: CA_10  and  C_12 
REMARK       I    between atoms: N_11  and  C_18 
REMARK    5  A    between atoms: C_12  and  O_13 
REMARK       I    between atoms: C_18  and  N_19 
REMARK    6  A    between atoms: N_19  and  C_20 
ROOT
ATOM      1  CA  TRP A   1      39.545 -13.657  -1.087  1.00  0.00     0.114 C 
ENDROOT
BRANCH   1   2
ATOM      2  CB  TRP A   1      39.031 -12.255  -0.692  1.00  0.00     0.068 C 
BRANCH   2   3
ATOM      3  CG  TRP A   1      40.057 -11.176  -0.902  1.00  0.00    -0.028 A 
ATOM      4  CD2 TRP A   1      40.192 -10.343  -2.058  1.00  0.00    -0.002 A 
ATOM      5  CE3 TRP A   1      39.499 -10.243  -3.282  1.00  0.00     0.014 A 
ATOM      6  CE2 TRP A   1      41.256  -9.470  -1.823  1.00  0.00     0.042 A 
ATOM      7  CZ3 TRP A   1      39.886  -9.278  -4.218  1.00  0.00     0.001 A 
ATOM      8  CH2 TRP A   1      40.951  -8.419  -3.953  1.00  0.00     0.002 A 
ATOM      9  CZ2 TRP A   1      41.659  -8.501  -2.750  1.00  0.00     0.030 A 
ATOM     10  NE1 TRP A   1      41.749  -9.761  -0.574  1.00  0.00    -0.365 N 
ATOM     11  HE1 TRP A   1      42.517  -9.274  -0.135  1.00  0.00     0.165 HD
ATOM     12  CD1 TRP A   1      41.036 -10.783  -0.009  1.00  0.00     0.096 A 
ENDBRANCH   2   3
ENDBRANCH   1   2
BRANCH   1  13
ATOM     13  N   TRP A   1      39.511 -14.608   0.033  1.00  0.00    -0.336 N 
HETATM   14  C   UNK A   0      40.590 -14.771   0.879  1.00  0.00     0.321 C 
HETATM   15  N   UNK A   0      40.367 -15.808   1.759  1.00  0.00    -0.309 N 
HETATM   16  O   UNK A   0      41.582 -14.059   0.830  1.00  0.00    -0.247 OA
HETATM   17  H   UNK A   0      39.405 -16.099   1.844  1.00  0.00     0.170 HD
ATOM     18  H   TRP A   1      39.008 -15.460  -0.173  1.00  0.00     0.164 HD
BRANCH  15  19
HETATM   19  C   UNK A   0      41.285 -16.363   2.673  1.00  0.00     0.036 A 
HETATM   20  C   UNK A   0      42.292 -17.260   2.304  1.00  0.00     0.039 A 
HETATM   21  C   UNK A   0      43.129 -17.765   3.288  1.00  0.00    -0.024 A 
HETATM   22  C   UNK A   0      42.989 -17.397   4.615  1.00  0.00    -0.026 A 
HETATM   23  C   UNK A   0      44.271 -18.702   3.154  1.00  0.00     0.207 C 
HETATM   24  C   UNK A   0      44.035 -18.072   5.423  1.00  0.00     0.207 C 
HETATM   25  C   UNK A   0      42.003 -16.513   5.008  1.00  0.00     0.012 A 
HETATM   26  O   UNK A   0      44.642 -19.022   4.517  1.00  0.00    -0.382 OA
HETATM   27  C   UNK A   0      41.144 -16.001   4.028  1.00  0.00     0.030 A 
ENDBRANCH  15  19
ENDBRANCH   1  13
BRANCH   1  28
ATOM     28  C   TRP A   1      38.810 -14.180  -2.336  1.00  0.00     0.189 C 
BRANCH  28  29
ATOM     29  O   TRP A   1      38.575 -15.583  -2.217  1.00  0.00    -0.399 OA
ATOM     30  H   TRP A   1      39.209 -16.020  -2.812  1.00  0.00     0.209 HD
ENDBRANCH  28  29
ENDBRANCH   1  28
TORSDOF 6
ENDMDL
