MODEL 1
REMARK VINA RESULT:      -8.9      0.000      0.000
REMARK  5 active torsions:
REMARK  status: ('A' for Active; 'I' for Inactive)
REMARK    1  A    between atoms: C_4  and  N_5 
REMARK       I    between atoms: N_5  and  C_6 
REMARK       I    between atoms: C_6  and  N_7 
REMARK    2  A    between atoms: N_7  and  C_8 
REMARK    3  A    between atoms: C_8  and  C_9 
REMARK       I    between atoms: C_9  and  N_10 
REMARK    4  A    between atoms: N_10  and  C_11 
REMARK    5  A    between atoms: C_13  and  C_14 
ROOT
HETATM    1  C   UNL     1      41.123 -14.101   4.301  1.00  0.00     0.239 C 
HETATM    2  N   UNL     1      40.033 -14.244   3.461  1.00  0.00    -0.326 N 
HETATM    3  O   UNL     1      42.001 -13.246   4.224  1.00  0.00    -0.271 OA
HETATM    4  H   UNL     1      39.512 -15.118   3.570  1.00  0.00     0.169 HD
ENDROOT
BRANCH   1   5
HETATM    5  C   UNL     1      41.109 -15.113   5.460  1.00  0.00     0.227 C 
BRANCH   5   6
HETATM    6  N   UNL     1      42.029 -16.231   5.337  1.00  0.00    -0.334 N 
HETATM    7  C   UNL     1      43.332 -16.105   5.699  1.00  0.00     0.321 C 
HETATM    8  N   UNL     1      44.188 -17.112   5.378  1.00  0.00    -0.309 N 
HETATM    9  O   UNL     1      43.762 -15.094   6.255  1.00  0.00    -0.247 OA
HETATM   10  H   UNL     1      45.147 -16.835   5.555  1.00  0.00     0.170 HD
HETATM   11  H   UNL     1      41.920 -16.759   4.484  1.00  0.00     0.164 HD
BRANCH   8  12
HETATM   12  C   UNL     1      44.012 -18.396   4.826  1.00  0.00     0.036 A 
HETATM   13  C   UNL     1      43.842 -18.667   3.465  1.00  0.00     0.036 A 
HETATM   14  C   UNL     1      43.745 -19.990   2.999  1.00  0.00    -0.060 A 
HETATM   15  C   UNL     1      43.572 -20.272   1.535  1.00  0.00     0.048 C 
HETATM   16  C   UNL     1      43.751 -21.043   3.919  1.00  0.00     0.007 A 
HETATM   17  C   UNL     1      43.866 -20.782   5.280  1.00  0.00     0.003 A 
HETATM   18  C   UNL     1      43.992 -19.466   5.730  1.00  0.00     0.029 A 
ENDBRANCH   8  12
ENDBRANCH   5   6
ENDBRANCH   1   5
BRANCH   2  19
HETATM   19  C   UNL     1      39.570 -13.354   2.474  1.00  0.00     0.035 A 
HETATM   20  C   UNL     1      40.135 -13.475   1.194  1.00  0.00     0.042 A 
HETATM   21  C   UNL     1      39.684 -12.690   0.119  1.00  0.00    -0.021 A 
HETATM   22  C   UNL     1      38.677 -11.747   0.357  1.00  0.00     0.012 A 
HETATM   23  C   UNL     1      38.124 -11.607   1.631  1.00  0.00     0.003 A 
HETATM   24  C   UNL     1      38.564 -12.414   2.683  1.00  0.00     0.029 A 
BRANCH  21  25
HETATM   25  C   UNL     1      40.227 -12.858  -1.220  1.00  0.00     0.010 A 
HETATM   26  C   UNL     1      39.962 -13.832  -2.214  1.00  0.00     0.152 A 
HETATM   27  N   UNL     1      40.699 -13.667  -3.315  1.00  0.00    -0.187 NA
HETATM   28  N   UNL     1      41.445 -12.588  -3.032  1.00  0.00    -0.289 N 
HETATM   29  H   UNL     1      42.107 -12.265  -3.729  1.00  0.00     0.188 HD
HETATM   30  C   UNL     1      41.202 -12.070  -1.793  1.00  0.00     0.123 A 
ENDBRANCH  21  25
ENDBRANCH   2  19
TORSDOF 5
ENDMDL
MODEL 2
REMARK VINA RESULT:      -8.6      4.872      8.685
REMARK  5 active torsions:
REMARK  status: ('A' for Active; 'I' for Inactive)
REMARK    1  A    between atoms: C_4  and  N_5 
REMARK       I    between atoms: N_5  and  C_6 
REMARK       I    between atoms: C_6  and  N_7 
REMARK    2  A    between atoms: N_7  and  C_8 
REMARK    3  A    between atoms: C_8  and  C_9 
REMARK       I    between atoms: C_9  and  N_10 
REMARK    4  A    between atoms: N_10  and  C_11 
REMARK    5  A    between atoms: C_13  and  C_14 
ROOT
HETATM    1  C   UNL     1      42.507 -13.304   5.043  1.00  0.00     0.239 C 
HETATM    2  N   UNL     1      42.136 -14.601   4.738  1.00  0.00    -0.326 N 
HETATM    3  O   UNL     1      43.464 -12.687   4.582  1.00  0.00    -0.271 OA
HETATM    4  H   UNL     1      41.424 -15.005   5.353  1.00  0.00     0.169 HD
ENDROOT
BRANCH   1   5
HETATM    5  C   UNL     1      41.521 -12.621   6.006  1.00  0.00     0.227 C 
BRANCH   5   6
HETATM    6  N   UNL     1      42.069 -11.547   6.819  1.00  0.00    -0.334 N 
HETATM    7  C   UNL     1      41.917 -10.249   6.453  1.00  0.00     0.321 C 
HETATM    8  N   UNL     1      42.616  -9.303   7.136  1.00  0.00    -0.309 N 
HETATM    9  O   UNL     1      41.215  -9.915   5.498  1.00  0.00    -0.247 OA
HETATM   10  H   UNL     1      42.544  -8.404   6.674  1.00  0.00     0.170 HD
HETATM   11  H   UNL     1      42.992 -11.737   7.178  1.00  0.00     0.164 HD
BRANCH   8  12
HETATM   12  C   UNL     1      43.425  -9.338   8.289  1.00  0.00     0.036 A 
HETATM   13  C   UNL     1      42.980  -9.074   9.588  1.00  0.00     0.036 A 
HETATM   14  C   UNL     1      43.847  -9.203  10.688  1.00  0.00    -0.060 A 
HETATM   15  C   UNL     1      43.358  -8.926  12.080  1.00  0.00     0.048 C 
HETATM   16  C   UNL     1      45.187  -9.536  10.469  1.00  0.00     0.007 A 
HETATM   17  C   UNL     1      45.653  -9.749   9.176  1.00  0.00     0.003 A 
HETATM   18  C   UNL     1      44.777  -9.647   8.094  1.00  0.00     0.029 A 
ENDBRANCH   8  12
ENDBRANCH   5   6
ENDBRANCH   1   5
BRANCH   2  19
HETATM   19  C   UNL     1      42.625 -15.431   3.712  1.00  0.00     0.035 A 
HETATM   20  C   UNL     1      42.986 -16.740   4.070  1.00  0.00     0.042 A 
HETATM   21  C   UNL     1      43.409 -17.671   3.107  1.00  0.00    -0.021 A 
HETATM   22  C   UNL     1      43.502 -17.256   1.773  1.00  0.00     0.012 A 
HETATM   23  C   UNL     1      43.164 -15.951   1.412  1.00  0.00     0.003 A 
HETATM   24  C   UNL     1      42.720 -15.045   2.378  1.00  0.00     0.029 A 
BRANCH  21  25
HETATM   25  C   UNL     1      43.724 -19.045   3.470  1.00  0.00     0.010 A 
HETATM   26  C   UNL     1      43.636 -20.245   2.724  1.00  0.00     0.152 A 
HETATM   27  N   UNL     1      43.985 -21.324   3.429  1.00  0.00    -0.187 NA
HETATM   28  N   UNL     1      44.295 -20.822   4.633  1.00  0.00    -0.289 N 
HETATM   29  H   UNL     1      44.589 -21.464   5.362  1.00  0.00     0.188 HD
HETATM   30  C   UNL     1      44.153 -19.467   4.710  1.00  0.00     0.123 A 
ENDBRANCH  21  25
ENDBRANCH   2  19
TORSDOF 5
ENDMDL
MODEL 3
REMARK VINA RESULT:      -8.4      2.209      8.207
REMARK  5 active torsions:
REMARK  status: ('A' for Active; 'I' for Inactive)
REMARK    1  A    between atoms: C_4  and  N_5 
REMARK       I    between atoms: N_5  and  C_6 
REMARK       I    between atoms: C_6  and  N_7 
REMARK    2  A    between atoms: N_7  and  C_8 
REMARK    3  A    between atoms: C_8  and  C_9 
REMARK       I    between atoms: C_9  and  N_10 
REMARK    4  A    between atoms: N_10  and  C_11 
REMARK    5  A    between atoms: C_13  and  C_14 
ROOT
HETATM    1  C   UNL     1      41.957 -13.458   3.603  1.00  0.00     0.239 C 
HETATM    2  N   UNL     1      41.778 -14.476   4.522  1.00  0.00    -0.326 N 
HETATM    3  O   UNL     1      43.011 -13.141   3.056  1.00  0.00    -0.271 OA
HETATM    4  H   UNL     1      40.875 -14.473   5.003  1.00  0.00     0.169 HD
ENDROOT
BRANCH   1   5
HETATM    5  C   UNL     1      40.639 -12.757   3.237  1.00  0.00     0.227 C 
BRANCH   5   6
HETATM    6  N   UNL     1      40.161 -12.972   1.880  1.00  0.00    -0.334 N 
HETATM    7  C   UNL     1      39.793 -14.209   1.459  1.00  0.00     0.321 C 
HETATM    8  N   UNL     1      39.549 -14.389   0.133  1.00  0.00    -0.309 N 
HETATM    9  O   UNL     1      39.730 -15.170   2.225  1.00  0.00    -0.247 OA
HETATM   10  H   UNL     1      39.441 -15.374  -0.079  1.00  0.00     0.170 HD
HETATM   11  H   UNL     1      40.683 -12.469   1.179  1.00  0.00     0.164 HD
BRANCH   8  12
HETATM   12  C   UNL     1      39.463 -13.511  -0.966  1.00  0.00     0.036 A 
HETATM   13  C   UNL     1      38.333 -12.764  -1.309  1.00  0.00     0.036 A 
HETATM   14  C   UNL     1      38.365 -11.859  -2.384  1.00  0.00    -0.060 A 
HETATM   15  C   UNL     1      37.149 -11.053  -2.739  1.00  0.00     0.048 C 
HETATM   16  C   UNL     1      39.523 -11.756  -3.160  1.00  0.00     0.007 A 
HETATM   17  C   UNL     1      40.636 -12.535  -2.861  1.00  0.00     0.003 A 
HETATM   18  C   UNL     1      40.604 -13.409  -1.773  1.00  0.00     0.029 A 
ENDBRANCH   8  12
ENDBRANCH   5   6
ENDBRANCH   1   5
BRANCH   2  19
HETATM   19  C   UNL     1      42.682 -15.491   4.887  1.00  0.00     0.035 A 
HETATM   20  C   UNL     1      42.652 -16.672   4.127  1.00  0.00     0.042 A 
HETATM   21  C   UNL     1      43.567 -17.713   4.358  1.00  0.00    -0.021 A 
HETATM   22  C   UNL     1      44.495 -17.568   5.396  1.00  0.00     0.012 A 
HETATM   23  C   UNL     1      44.518 -16.406   6.169  1.00  0.00     0.003 A 
HETATM   24  C   UNL     1      43.620 -15.369   5.909  1.00  0.00     0.029 A 
BRANCH  21  25
HETATM   25  C   UNL     1      43.576 -18.910   3.531  1.00  0.00     0.010 A 
HETATM   26  C   UNL     1      43.994 -20.233   3.816  1.00  0.00     0.152 A 
HETATM   27  N   UNL     1      43.879 -21.054   2.769  1.00  0.00    -0.187 NA
HETATM   28  N   UNL     1      43.389 -20.260   1.804  1.00  0.00    -0.289 N 
HETATM   29  H   UNL     1      43.221 -20.664   0.889  1.00  0.00     0.188 HD
HETATM   30  C   UNL     1      43.193 -18.972   2.208  1.00  0.00     0.123 A 
ENDBRANCH  21  25
ENDBRANCH   2  19
TORSDOF 5
ENDMDL
MODEL 4
REMARK VINA RESULT:      -8.4      6.200      9.245
REMARK  5 active torsions:
REMARK  status: ('A' for Active; 'I' for Inactive)
REMARK    1  A    between atoms: C_4  and  N_5 
REMARK       I    between atoms: N_5  and  C_6 
REMARK       I    between atoms: C_6  and  N_7 
REMARK    2  A    between atoms: N_7  and  C_8 
REMARK    3  A    between atoms: C_8  and  C_9 
REMARK       I    between atoms: C_9  and  N_10 
REMARK    4  A    between atoms: N_10  and  C_11 
REMARK    5  A    between atoms: C_13  and  C_14 
ROOT
HETATM    1  C   UNL     1      42.857 -11.607   6.620  1.00  0.00     0.239 C 
HETATM    2  N   UNL     1      42.749 -10.474   7.407  1.00  0.00    -0.326 N 
HETATM    3  O   UNL     1      43.830 -12.351   6.535  1.00  0.00    -0.271 OA
HETATM    4  H   UNL     1      41.937  -9.884   7.210  1.00  0.00     0.169 HD
ENDROOT
BRANCH   1   5
HETATM    5  C   UNL     1      41.554 -11.927   5.868  1.00  0.00     0.227 C 
BRANCH   5   6
HETATM    6  N   UNL     1      41.440 -13.278   5.343  1.00  0.00    -0.334 N 
HETATM    7  C   UNL     1      40.454 -14.110   5.767  1.00  0.00     0.321 C 
HETATM    8  N   UNL     1      40.514 -15.417   5.398  1.00  0.00    -0.309 N 
HETATM    9  O   UNL     1      39.551 -13.728   6.512  1.00  0.00    -0.247 OA
HETATM   10  H   UNL     1      39.822 -15.962   5.900  1.00  0.00     0.170 HD
HETATM   11  H   UNL     1      42.324 -13.753   5.242  1.00  0.00     0.164 HD
BRANCH   8  12
HETATM   12  C   UNL     1      41.346 -16.141   4.521  1.00  0.00     0.036 A 
HETATM   13  C   UNL     1      42.491 -16.846   4.901  1.00  0.00     0.036 A 
HETATM   14  C   UNL     1      43.220 -17.598   3.964  1.00  0.00    -0.060 A 
HETATM   15  C   UNL     1      44.443 -18.361   4.384  1.00  0.00     0.048 C 
HETATM   16  C   UNL     1      42.831 -17.585   2.621  1.00  0.00     0.007 A 
HETATM   17  C   UNL     1      41.724 -16.842   2.222  1.00  0.00     0.003 A 
HETATM   18  C   UNL     1      40.990 -16.123   3.166  1.00  0.00     0.029 A 
ENDBRANCH   8  12
ENDBRANCH   5   6
ENDBRANCH   1   5
BRANCH   2  19
HETATM   19  C   UNL     1      43.618 -10.030   8.421  1.00  0.00     0.035 A 
HETATM   20  C   UNL     1      43.040  -9.715   9.662  1.00  0.00     0.042 A 
HETATM   21  C   UNL     1      43.829  -9.341  10.761  1.00  0.00    -0.021 A 
HETATM   22  C   UNL     1      45.216  -9.248  10.588  1.00  0.00     0.012 A 
HETATM   23  C   UNL     1      45.796  -9.540   9.352  1.00  0.00     0.003 A 
HETATM   24  C   UNL     1      45.000  -9.937   8.275  1.00  0.00     0.029 A 
BRANCH  21  25
HETATM   25  C   UNL     1      43.236  -9.075  12.063  1.00  0.00     0.010 A 
HETATM   26  C   UNL     1      43.296  -7.930  12.894  1.00  0.00     0.152 A 
HETATM   27  N   UNL     1      42.641  -8.087  14.048  1.00  0.00    -0.187 NA
HETATM   28  N   UNL     1      42.161  -9.337  13.964  1.00  0.00    -0.289 N 
HETATM   29  H   UNL     1      41.623  -9.699  14.745  1.00  0.00     0.188 HD
HETATM   30  C   UNL     1      42.490  -9.970  12.801  1.00  0.00     0.123 A 
ENDBRANCH  21  25
ENDBRANCH   2  19
TORSDOF 5
ENDMDL
MODEL 5
REMARK VINA RESULT:      -8.3      2.173      8.028
REMARK  5 active torsions:
REMARK  status: ('A' for Active; 'I' for Inactive)
REMARK    1  A    between atoms: C_4  and  N_5 
REMARK       I    between atoms: N_5  and  C_6 
REMARK       I    between atoms: C_6  and  N_7 
REMARK    2  A    between atoms: N_7  and  C_8 
REMARK    3  A    between atoms: C_8  and  C_9 
REMARK       I    between atoms: C_9  and  N_10 
REMARK    4  A    between atoms: N_10  and  C_11 
REMARK    5  A    between atoms: C_13  and  C_14 
ROOT
HETATM    1  C   UNL     1      41.078 -13.639   4.454  1.00  0.00     0.239 C 
HETATM    2  N   UNL     1      42.257 -14.237   4.046  1.00  0.00    -0.326 N 
HETATM    3  O   UNL     1      40.281 -14.077   5.279  1.00  0.00    -0.271 OA
HETATM    4  H   UNL     1      42.695 -13.816   3.223  1.00  0.00     0.169 HD
ENDROOT
BRANCH   1   5
HETATM    5  C   UNL     1      40.867 -12.257   3.812  1.00  0.00     0.227 C 
BRANCH   5   6
HETATM    6  N   UNL     1      40.608 -12.254   2.382  1.00  0.00    -0.334 N 
HETATM    7  C   UNL     1      41.390 -11.539   1.533  1.00  0.00     0.321 C 
HETATM    8  N   UNL     1      40.985 -11.410   0.241  1.00  0.00    -0.309 N 
HETATM    9  O   UNL     1      42.413 -10.968   1.909  1.00  0.00    -0.247 OA
HETATM   10  H   UNL     1      41.559 -10.733  -0.247  1.00  0.00     0.170 HD
HETATM   11  H   UNL     1      39.629 -12.191   2.144  1.00  0.00     0.164 HD
BRANCH   8  12
HETATM   12  C   UNL     1      39.936 -11.980  -0.509  1.00  0.00     0.036 A 
HETATM   13  C   UNL     1      39.994 -13.217  -1.156  1.00  0.00     0.036 A 
HETATM   14  C   UNL     1      38.870 -13.736  -1.823  1.00  0.00    -0.060 A 
HETATM   15  C   UNL     1      38.939 -15.069  -2.508  1.00  0.00     0.048 C 
HETATM   16  C   UNL     1      37.701 -12.972  -1.893  1.00  0.00     0.007 A 
HETATM   17  C   UNL     1      37.650 -11.716  -1.298  1.00  0.00     0.003 A 
HETATM   18  C   UNL     1      38.762 -11.222  -0.614  1.00  0.00     0.029 A 
ENDBRANCH   8  12
ENDBRANCH   5   6
ENDBRANCH   1   5
BRANCH   2  19
HETATM   19  C   UNL     1      42.908 -15.353   4.605  1.00  0.00     0.035 A 
HETATM   20  C   UNL     1      42.874 -16.546   3.865  1.00  0.00     0.042 A 
HETATM   21  C   UNL     1      43.561 -17.693   4.295  1.00  0.00    -0.021 A 
HETATM   22  C   UNL     1      44.258 -17.638   5.508  1.00  0.00     0.012 A 
HETATM   23  C   UNL     1      44.280 -16.462   6.260  1.00  0.00     0.003 A 
HETATM   24  C   UNL     1      43.614 -15.322   5.805  1.00  0.00     0.029 A 
BRANCH  21  25
HETATM   25  C   UNL     1      43.576 -18.910   3.498  1.00  0.00     0.010 A 
HETATM   26  C   UNL     1      44.001 -20.223   3.816  1.00  0.00     0.152 A 
HETATM   27  N   UNL     1      43.890 -21.070   2.789  1.00  0.00    -0.187 NA
HETATM   28  N   UNL     1      43.397 -20.303   1.805  1.00  0.00    -0.289 N 
HETATM   29  H   UNL     1      43.231 -20.730   0.900  1.00  0.00     0.188 HD
HETATM   30  C   UNL     1      43.194 -19.006   2.176  1.00  0.00     0.123 A 
ENDBRANCH  21  25
ENDBRANCH   2  19
TORSDOF 5
ENDMDL
MODEL 6
REMARK VINA RESULT:      -8.3      1.971      2.886
REMARK  5 active torsions:
REMARK  status: ('A' for Active; 'I' for Inactive)
REMARK    1  A    between atoms: C_4  and  N_5 
REMARK       I    between atoms: N_5  and  C_6 
REMARK       I    between atoms: C_6  and  N_7 
REMARK    2  A    between atoms: N_7  and  C_8 
REMARK    3  A    between atoms: C_8  and  C_9 
REMARK       I    between atoms: C_9  and  N_10 
REMARK    4  A    between atoms: N_10  and  C_11 
REMARK    5  A    between atoms: C_13  and  C_14 
ROOT
HETATM    1  C   UNL     1      40.028 -15.074   1.763  1.00  0.00     0.239 C 
HETATM    2  N   UNL     1      40.067 -13.834   1.149  1.00  0.00    -0.326 N 
HETATM    3  O   UNL     1      39.769 -16.149   1.228  1.00  0.00    -0.271 OA
HETATM    4  H   UNL     1      40.121 -13.036   1.787  1.00  0.00     0.169 HD
ENDROOT
BRANCH   1   5
HETATM    5  C   UNL     1      40.434 -15.010   3.244  1.00  0.00     0.227 C 
BRANCH   5   6
HETATM    6  N   UNL     1      41.441 -15.969   3.668  1.00  0.00    -0.334 N 
HETATM    7  C   UNL     1      42.574 -15.559   4.296  1.00  0.00     0.321 C 
HETATM    8  N   UNL     1      43.566 -16.469   4.488  1.00  0.00    -0.309 N 
HETATM    9  O   UNL     1      42.744 -14.390   4.642  1.00  0.00    -0.247 OA
HETATM   10  H   UNL     1      44.409 -16.013   4.818  1.00  0.00     0.170 HD
HETATM   11  H   UNL     1      41.621 -16.697   2.994  1.00  0.00     0.164 HD
BRANCH   8  12
HETATM   12  C   UNL     1      43.660 -17.860   4.284  1.00  0.00     0.036 A 
HETATM   13  C   UNL     1      43.559 -18.497   3.044  1.00  0.00     0.036 A 
HETATM   14  C   UNL     1      43.737 -19.887   2.930  1.00  0.00    -0.060 A 
HETATM   15  C   UNL     1      43.636 -20.561   1.593  1.00  0.00     0.048 C 
HETATM   16  C   UNL     1      43.953 -20.648   4.083  1.00  0.00     0.007 A 
HETATM   17  C   UNL     1      44.001 -20.031   5.328  1.00  0.00     0.003 A 
HETATM   18  C   UNL     1      43.852 -18.646   5.428  1.00  0.00     0.029 A 
ENDBRANCH   8  12
ENDBRANCH   5   6
ENDBRANCH   1   5
BRANCH   2  19
HETATM   19  C   UNL     1      40.023 -13.539  -0.226  1.00  0.00     0.035 A 
HETATM   20  C   UNL     1      40.406 -12.244  -0.611  1.00  0.00     0.042 A 
HETATM   21  C   UNL     1      40.475 -11.874  -1.965  1.00  0.00    -0.021 A 
HETATM   22  C   UNL     1      40.114 -12.818  -2.934  1.00  0.00     0.012 A 
HETATM   23  C   UNL     1      39.714 -14.102  -2.559  1.00  0.00     0.003 A 
HETATM   24  C   UNL     1      39.677 -14.462  -1.210  1.00  0.00     0.029 A 
BRANCH  21  25
HETATM   25  C   UNL     1      40.930 -10.552  -2.366  1.00  0.00     0.010 A 
HETATM   26  C   UNL     1      41.746  -9.608  -1.696  1.00  0.00     0.152 A 
HETATM   27  N   UNL     1      41.909  -8.476  -2.387  1.00  0.00    -0.187 NA
HETATM   28  N   UNL     1      41.193  -8.687  -3.502  1.00  0.00    -0.289 N 
HETATM   29  H   UNL     1      41.155  -7.947  -4.196  1.00  0.00     0.188 HD
HETATM   30  C   UNL     1      40.588  -9.909  -3.537  1.00  0.00     0.123 A 
ENDBRANCH  21  25
ENDBRANCH   2  19
TORSDOF 5
ENDMDL
MODEL 7
REMARK VINA RESULT:      -8.2      4.918      8.007
REMARK  5 active torsions:
REMARK  status: ('A' for Active; 'I' for Inactive)
REMARK    1  A    between atoms: C_4  and  N_5 
REMARK       I    between atoms: N_5  and  C_6 
REMARK       I    between atoms: C_6  and  N_7 
REMARK    2  A    between atoms: N_7  and  C_8 
REMARK    3  A    between atoms: C_8  and  C_9 
REMARK       I    between atoms: C_9  and  N_10 
REMARK    4  A    between atoms: N_10  and  C_11 
REMARK    5  A    between atoms: C_13  and  C_14 
ROOT
HETATM    1  C   UNL     1      42.825 -11.216   4.587  1.00  0.00     0.239 C 
HETATM    2  N   UNL     1      43.638 -11.859   5.503  1.00  0.00    -0.326 N 
HETATM    3  O   UNL     1      42.443 -10.050   4.637  1.00  0.00    -0.271 OA
HETATM    4  H   UNL     1      43.700 -12.874   5.391  1.00  0.00     0.169 HD
ENDROOT
BRANCH   1   5
HETATM    5  C   UNL     1      42.478 -12.106   3.382  1.00  0.00     0.227 C 
BRANCH   5   6
HETATM    6  N   UNL     1      42.334 -13.526   3.661  1.00  0.00    -0.334 N 
HETATM    7  C   UNL     1      41.112 -14.070   3.896  1.00  0.00     0.321 C 
HETATM    8  N   UNL     1      41.056 -15.352   4.347  1.00  0.00    -0.309 N 
HETATM    9  O   UNL     1      40.072 -13.425   3.763  1.00  0.00    -0.247 OA
HETATM   10  H   UNL     1      40.113 -15.588   4.633  1.00  0.00     0.170 HD
HETATM   11  H   UNL     1      43.041 -13.894   4.280  1.00  0.00     0.164 HD
BRANCH   8  12
HETATM   12  C   UNL     1      42.024 -16.359   4.530  1.00  0.00     0.036 A 
HETATM   13  C   UNL     1      42.542 -17.167   3.513  1.00  0.00     0.036 A 
HETATM   14  C   UNL     1      43.559 -18.101   3.780  1.00  0.00    -0.060 A 
HETATM   15  C   UNL     1      44.115 -18.957   2.681  1.00  0.00     0.048 C 
HETATM   16  C   UNL     1      44.009 -18.267   5.093  1.00  0.00     0.007 A 
HETATM   17  C   UNL     1      43.463 -17.506   6.122  1.00  0.00     0.003 A 
HETATM   18  C   UNL     1      42.474 -16.562   5.841  1.00  0.00     0.029 A 
ENDBRANCH   8  12
ENDBRANCH   5   6
ENDBRANCH   1   5
BRANCH   2  19
HETATM   19  C   UNL     1      44.365 -11.299   6.569  1.00  0.00     0.035 A 
HETATM   20  C   UNL     1      43.650 -11.007   7.743  1.00  0.00     0.042 A 
HETATM   21  C   UNL     1      44.297 -10.522   8.891  1.00  0.00    -0.021 A 
HETATM   22  C   UNL     1      45.677 -10.293   8.834  1.00  0.00     0.012 A 
HETATM   23  C   UNL     1      46.392 -10.561   7.665  1.00  0.00     0.003 A 
HETATM   24  C   UNL     1      45.738 -11.069   6.540  1.00  0.00     0.029 A 
BRANCH  21  25
HETATM   25  C   UNL     1      43.566 -10.279  10.126  1.00  0.00     0.010 A 
HETATM   26  C   UNL     1      43.748 -10.799  11.430  1.00  0.00     0.152 A 
HETATM   27  N   UNL     1      42.837 -10.356  12.301  1.00  0.00    -0.187 NA
HETATM   28  N   UNL     1      42.062  -9.552  11.557  1.00  0.00    -0.289 N 
HETATM   29  H   UNL     1      41.275  -9.094  12.004  1.00  0.00     0.188 HD
HETATM   30  C   UNL     1      42.453  -9.474  10.252  1.00  0.00     0.123 A 
ENDBRANCH  21  25
ENDBRANCH   2  19
TORSDOF 5
ENDMDL
MODEL 8
REMARK VINA RESULT:      -8.2      5.042      8.935
REMARK  5 active torsions:
REMARK  status: ('A' for Active; 'I' for Inactive)
REMARK    1  A    between atoms: C_4  and  N_5 
REMARK       I    between atoms: N_5  and  C_6 
REMARK       I    between atoms: C_6  and  N_7 
REMARK    2  A    between atoms: N_7  and  C_8 
REMARK    3  A    between atoms: C_8  and  C_9 
REMARK       I    between atoms: C_9  and  N_10 
REMARK    4  A    between atoms: N_10  and  C_11 
REMARK    5  A    between atoms: C_13  and  C_14 
ROOT
HETATM    1  C   UNL     1      42.330 -13.259   5.628  1.00  0.00     0.239 C 
HETATM    2  N   UNL     1      43.337 -14.178   5.392  1.00  0.00    -0.326 N 
HETATM    3  O   UNL     1      41.200 -13.500   6.043  1.00  0.00    -0.271 OA
HETATM    4  H   UNL     1      44.144 -13.815   4.878  1.00  0.00     0.169 HD
ENDROOT
BRANCH   1   5
HETATM    5  C   UNL     1      42.788 -11.810   5.389  1.00  0.00     0.227 C 
BRANCH   5   6
HETATM    6  N   UNL     1      43.317 -11.112   6.550  1.00  0.00    -0.334 N 
HETATM    7  C   UNL     1      44.624 -11.231   6.898  1.00  0.00     0.321 C 
HETATM    8  N   UNL     1      45.017 -10.724   8.097  1.00  0.00    -0.309 N 
HETATM    9  O   UNL     1      45.439 -11.825   6.192  1.00  0.00    -0.247 OA
HETATM   10  H   UNL     1      45.965 -11.011   8.312  1.00  0.00     0.170 HD
HETATM   11  H   UNL     1      42.705 -11.130   7.351  1.00  0.00     0.164 HD
BRANCH   8  12
HETATM   12  C   UNL     1      44.374  -9.945   9.080  1.00  0.00     0.036 A 
HETATM   13  C   UNL     1      43.842 -10.441  10.273  1.00  0.00     0.036 A 
HETATM   14  C   UNL     1      43.279  -9.575  11.228  1.00  0.00    -0.060 A 
HETATM   15  C   UNL     1      42.719 -10.115  12.511  1.00  0.00     0.048 C 
HETATM   16  C   UNL     1      43.193  -8.208  10.946  1.00  0.00     0.007 A 
HETATM   17  C   UNL     1      43.670  -7.711   9.738  1.00  0.00     0.003 A 
HETATM   18  C   UNL     1      44.253  -8.576   8.810  1.00  0.00     0.029 A 
ENDBRANCH   8  12
ENDBRANCH   5   6
ENDBRANCH   1   5
BRANCH   2  19
HETATM   19  C   UNL     1      43.379 -15.538   5.750  1.00  0.00     0.035 A 
HETATM   20  C   UNL     1      43.369 -16.473   4.702  1.00  0.00     0.042 A 
HETATM   21  C   UNL     1      43.490 -17.850   4.950  1.00  0.00    -0.021 A 
HETATM   22  C   UNL     1      43.582 -18.284   6.277  1.00  0.00     0.012 A 
HETATM   23  C   UNL     1      43.572 -17.363   7.326  1.00  0.00     0.003 A 
HETATM   24  C   UNL     1      43.479 -15.995   7.062  1.00  0.00     0.029 A 
BRANCH  21  25
HETATM   25  C   UNL     1      43.542 -18.813   3.860  1.00  0.00     0.010 A 
HETATM   26  C   UNL     1      43.912 -20.180   3.846  1.00  0.00     0.152 A 
HETATM   27  N   UNL     1      43.865 -20.721   2.626  1.00  0.00    -0.187 NA
HETATM   28  N   UNL     1      43.468 -19.701   1.849  1.00  0.00    -0.289 N 
HETATM   29  H   UNL     1      43.365 -19.867   0.854  1.00  0.00     0.188 HD
HETATM   30  C   UNL     1      43.264 -18.541   2.537  1.00  0.00     0.123 A 
ENDBRANCH  21  25
ENDBRANCH   2  19
TORSDOF 5
ENDMDL
MODEL 9
REMARK VINA RESULT:      -8.2      5.813      9.241
REMARK  5 active torsions:
REMARK  status: ('A' for Active; 'I' for Inactive)
REMARK    1  A    between atoms: C_4  and  N_5 
REMARK       I    between atoms: N_5  and  C_6 
REMARK       I    between atoms: C_6  and  N_7 
REMARK    2  A    between atoms: N_7  and  C_8 
REMARK    3  A    between atoms: C_8  and  C_9 
REMARK       I    between atoms: C_9  and  N_10 
REMARK    4  A    between atoms: N_10  and  C_11 
REMARK    5  A    between atoms: C_13  and  C_14 
ROOT
HETATM    1  C   UNL     1      44.923 -11.654   6.479  1.00  0.00     0.239 C 
HETATM    2  N   UNL     1      44.267 -12.780   6.946  1.00  0.00    -0.326 N 
HETATM    3  O   UNL     1      44.943 -11.245   5.321  1.00  0.00    -0.271 OA
HETATM    4  H   UNL     1      44.513 -13.061   7.898  1.00  0.00     0.169 HD
ENDROOT
BRANCH   1   5
HETATM    5  C   UNL     1      45.604 -10.860   7.606  1.00  0.00     0.227 C 
BRANCH   5   6
HETATM    6  N   UNL     1      44.713 -10.173   8.527  1.00  0.00    -0.334 N 
HETATM    7  C   UNL     1      44.858  -8.847   8.778  1.00  0.00     0.321 C 
HETATM    8  N   UNL     1      44.133  -8.302   9.792  1.00  0.00    -0.309 N 
HETATM    9  O   UNL     1      45.657  -8.146   8.156  1.00  0.00    -0.247 OA
HETATM   10  H   UNL     1      44.442  -7.356   9.983  1.00  0.00     0.170 HD
HETATM   11  H   UNL     1      44.505 -10.699   9.363  1.00  0.00     0.164 HD
BRANCH   8  12
HETATM   12  C   UNL     1      43.108  -8.794  10.625  1.00  0.00     0.036 A 
HETATM   13  C   UNL     1      41.798  -9.054  10.215  1.00  0.00     0.036 A 
HETATM   14  C   UNL     1      40.861  -9.611  11.103  1.00  0.00    -0.060 A 
HETATM   15  C   UNL     1      39.458  -9.897  10.650  1.00  0.00     0.048 C 
HETATM   16  C   UNL     1      41.229  -9.845  12.431  1.00  0.00     0.007 A 
HETATM   17  C   UNL     1      42.515  -9.539  12.864  1.00  0.00     0.003 A 
HETATM   18  C   UNL     1      43.447  -9.013  11.967  1.00  0.00     0.029 A 
ENDBRANCH   8  12
ENDBRANCH   5   6
ENDBRANCH   1   5
BRANCH   2  19
HETATM   19  C   UNL     1      43.331 -13.586   6.273  1.00  0.00     0.035 A 
HETATM   20  C   UNL     1      43.761 -14.863   5.875  1.00  0.00     0.042 A 
HETATM   21  C   UNL     1      42.880 -15.774   5.270  1.00  0.00    -0.021 A 
HETATM   22  C   UNL     1      41.561 -15.371   5.031  1.00  0.00     0.012 A 
HETATM   23  C   UNL     1      41.131 -14.097   5.406  1.00  0.00     0.003 A 
HETATM   24  C   UNL     1      42.012 -13.212   6.031  1.00  0.00     0.029 A 
BRANCH  21  25
HETATM   25  C   UNL     1      43.310 -17.118   4.913  1.00  0.00     0.010 A 
HETATM   26  C   UNL     1      43.724 -18.206   5.721  1.00  0.00     0.152 A 
HETATM   27  N   UNL     1      44.081 -19.278   5.009  1.00  0.00    -0.187 NA
HETATM   28  N   UNL     1      43.902 -18.882   3.739  1.00  0.00    -0.289 N 
HETATM   29  H   UNL     1      44.121 -19.537   2.996  1.00  0.00     0.188 HD
HETATM   30  C   UNL     1      43.445 -17.601   3.628  1.00  0.00     0.123 A 
ENDBRANCH  21  25
ENDBRANCH   2  19
TORSDOF 5
ENDMDL
MODEL 10
REMARK VINA RESULT:      -7.9      5.710      9.141
REMARK  5 active torsions:
REMARK  status: ('A' for Active; 'I' for Inactive)
REMARK    1  A    between atoms: C_4  and  N_5 
REMARK       I    between atoms: N_5  and  C_6 
REMARK       I    between atoms: C_6  and  N_7 
REMARK    2  A    between atoms: N_7  and  C_8 
REMARK    3  A    between atoms: C_8  and  C_9 
REMARK       I    between atoms: C_9  and  N_10 
REMARK    4  A    between atoms: N_10  and  C_11 
REMARK    5  A    between atoms: C_13  and  C_14 
ROOT
HETATM    1  C   UNL     1      41.850 -11.300   6.248  1.00  0.00     0.239 C 
HETATM    2  N   UNL     1      42.508 -12.503   6.063  1.00  0.00    -0.326 N 
HETATM    3  O   UNL     1      40.642 -11.100   6.140  1.00  0.00    -0.271 OA
HETATM    4  H   UNL     1      43.528 -12.437   6.018  1.00  0.00     0.169 HD
ENDROOT
BRANCH   1   5
HETATM    5  C   UNL     1      42.795 -10.176   6.706  1.00  0.00     0.227 C 
BRANCH   5   6
HETATM    6  N   UNL     1      42.919  -9.996   8.143  1.00  0.00    -0.334 N 
HETATM    7  C   UNL     1      43.715 -10.812   8.881  1.00  0.00     0.321 C 
HETATM    8  N   UNL     1      43.638 -10.729  10.237  1.00  0.00    -0.309 N 
HETATM    9  O   UNL     1      44.453 -11.650   8.364  1.00  0.00    -0.247 OA
HETATM   10  H   UNL     1      44.153 -11.486  10.670  1.00  0.00     0.170 HD
HETATM   11  H   UNL     1      42.046  -9.793   8.606  1.00  0.00     0.164 HD
BRANCH   8  12
HETATM   12  C   UNL     1      42.971  -9.855  11.119  1.00  0.00     0.036 A 
HETATM   13  C   UNL     1      41.603  -9.891  11.400  1.00  0.00     0.036 A 
HETATM   14  C   UNL     1      41.038  -9.022  12.350  1.00  0.00    -0.060 A 
HETATM   15  C   UNL     1      39.569  -9.074  12.653  1.00  0.00     0.048 C 
HETATM   16  C   UNL     1      41.847  -8.067  12.972  1.00  0.00     0.007 A 
HETATM   17  C   UNL     1      43.200  -7.986  12.660  1.00  0.00     0.003 A 
HETATM   18  C   UNL     1      43.757  -8.873  11.737  1.00  0.00     0.029 A 
ENDBRANCH   8  12
ENDBRANCH   5   6
ENDBRANCH   1   5
BRANCH   2  19
HETATM   19  C   UNL     1      41.953 -13.787   5.912  1.00  0.00     0.035 A 
HETATM   20  C   UNL     1      42.735 -14.743   5.245  1.00  0.00     0.042 A 
HETATM   21  C   UNL     1      42.307 -16.075   5.113  1.00  0.00    -0.021 A 
HETATM   22  C   UNL     1      41.055 -16.428   5.630  1.00  0.00     0.012 A 
HETATM   23  C   UNL     1      40.262 -15.478   6.277  1.00  0.00     0.003 A 
HETATM   24  C   UNL     1      40.714 -14.165   6.424  1.00  0.00     0.029 A 
BRANCH  21  25
HETATM   25  C   UNL     1      43.145 -17.079   4.476  1.00  0.00     0.010 A 
HETATM   26  C   UNL     1      43.188 -17.540   3.138  1.00  0.00     0.152 A 
HETATM   27  N   UNL     1      44.082 -18.514   2.950  1.00  0.00    -0.187 NA
HETATM   28  N   UNL     1      44.616 -18.687   4.169  1.00  0.00    -0.289 N 
HETATM   29  H   UNL     1      45.330 -19.397   4.285  1.00  0.00     0.188 HD
HETATM   30  C   UNL     1      44.089 -17.856   5.115  1.00  0.00     0.123 A 
ENDBRANCH  21  25
ENDBRANCH   2  19
TORSDOF 5
ENDMDL
