MODEL 1
REMARK VINA RESULT:      -8.5      0.000      0.000
REMARK  8 active torsions:
REMARK  status: ('A' for Active; 'I' for Inactive)
REMARK    1  A    between atoms: C_2  and  C_3 
REMARK    2  A    between atoms: C_3  and  C_4 
REMARK    3  A    between atoms: C_8  and  C_9 
REMARK       I    between atoms: C_9  and  N_10 
REMARK    4  A    between atoms: N_10  and  C_11 
REMARK    5  A    between atoms: N_10  and  C_17 
REMARK    6  A    between atoms: C_17  and  C_18 
REMARK    7  A    between atoms: C_18  and  O_19 
REMARK    8  A    between atoms: C_18  and  C_20 
ROOT
HETATM    1  C   UNL     1      40.450 -13.736   3.052  1.00  0.00     0.272 C 
HETATM    2  N   UNL     1      41.109 -14.608   3.925  1.00  0.00    -0.339 N 
HETATM    3  O   UNL     1      39.924 -12.700   3.449  1.00  0.00    -0.266 OA
ENDROOT
BRANCH   2   4
HETATM    4  C   UNL     1      41.252 -14.259   5.365  1.00  0.00     0.087 C 
HETATM    5  C   UNL     1      40.780 -15.392   6.294  1.00  0.00     0.025 C 
HETATM    6  C   UNL     1      41.885 -16.262   6.881  1.00  0.00     0.002 C 
HETATM    7  C   UNL     1      42.989 -15.416   7.496  1.00  0.00     0.000 C 
HETATM    8  C   UNL     1      43.616 -14.491   6.467  1.00  0.00     0.002 C 
HETATM    9  C   UNL     1      42.593 -13.604   5.758  1.00  0.00     0.025 C 
ENDBRANCH   2   4
BRANCH   2  10
HETATM   10  C   UNL     1      41.440 -16.009   3.577  1.00  0.00     0.163 C 
BRANCH  10  11
HETATM   11  C   UNL     1      42.942 -16.238   3.297  1.00  0.00     0.169 C 
BRANCH  11  12
HETATM   12  O   UNL     1      43.301 -15.696   2.021  1.00  0.00    -0.389 OA
HETATM   13  H   UNL     1      42.680 -16.074   1.373  1.00  0.00     0.210 HD
ENDBRANCH  11  12
BRANCH  11  14
HETATM   14  C   UNL     1      43.286 -17.714   3.308  1.00  0.00    -0.028 A 
HETATM   15  C   UNL     1      43.891 -18.293   4.433  1.00  0.00     0.010 A 
HETATM   16  C   UNL     1      44.205 -19.654   4.444  1.00  0.00     0.001 A 
HETATM   17  C   UNL     1      43.915 -20.450   3.338  1.00  0.00     0.000 A 
HETATM   18  C   UNL     1      43.306 -19.890   2.218  1.00  0.00     0.001 A 
HETATM   19  C   UNL     1      42.990 -18.531   2.204  1.00  0.00     0.010 A 
ENDBRANCH  11  14
ENDBRANCH  10  11
ENDBRANCH   2  10
BRANCH   1  20
HETATM   20  C   UNL     1      40.330 -14.060   1.651  1.00  0.00     0.119 A 
HETATM   21  N   UNL     1      39.637 -15.174   1.254  1.00  0.00    -0.273 N 
HETATM   22  N   UNL     1      39.600 -15.355  -0.075  1.00  0.00    -0.179 NA
HETATM   23  H   UNL     1      39.172 -15.845   1.856  1.00  0.00     0.189 HD
HETATM   24  C   UNL     1      40.176 -14.252  -0.564  1.00  0.00     0.057 A 
HETATM   25  C   UNL     1      40.647 -13.411   0.473  1.00  0.00     0.065 A 
BRANCH  24  26
HETATM   26  C   UNL     1      40.231 -14.021  -2.038  1.00  0.00     0.061 C 
BRANCH  26  27
HETATM   27  C   UNL     1      38.995 -14.572  -2.751  1.00  0.00     0.002 C 
HETATM   28  C   UNL     1      37.823 -13.608  -2.665  1.00  0.00     0.005 C 
ENDBRANCH  26  27
ENDBRANCH  24  26
ENDBRANCH   1  20
TORSDOF 8
ENDMDL
MODEL 2
REMARK VINA RESULT:      -8.2      2.841      6.428
REMARK  8 active torsions:
REMARK  status: ('A' for Active; 'I' for Inactive)
REMARK    1  A    between atoms: C_2  and  C_3 
REMARK    2  A    between atoms: C_3  and  C_4 
REMARK    3  A    between atoms: C_8  and  C_9 
REMARK       I    between atoms: C_9  and  N_10 
REMARK    4  A    between atoms: N_10  and  C_11 
REMARK    5  A    between atoms: N_10  and  C_17 
REMARK    6  A    between atoms: C_17  and  C_18 
REMARK    7  A    between atoms: C_18  and  O_19 
REMARK    8  A    between atoms: C_18  and  C_20 
ROOT
HETATM    1  C   UNL     1      41.879 -11.852   4.701  1.00  0.00     0.272 C 
HETATM    2  N   UNL     1      41.794 -13.011   3.923  1.00  0.00    -0.339 N 
HETATM    3  O   UNL     1      41.097 -10.916   4.555  1.00  0.00    -0.266 OA
ENDROOT
BRANCH   2   4
HETATM    4  C   UNL     1      40.692 -13.170   2.935  1.00  0.00     0.087 C 
HETATM    5  C   UNL     1      41.194 -13.110   1.481  1.00  0.00     0.025 C 
HETATM    6  C   UNL     1      41.370 -14.457   0.793  1.00  0.00     0.002 C 
HETATM    7  C   UNL     1      40.135 -15.329   0.955  1.00  0.00     0.000 C 
HETATM    8  C   UNL     1      39.827 -15.587   2.421  1.00  0.00     0.002 C 
HETATM    9  C   UNL     1      39.689 -14.302   3.236  1.00  0.00     0.025 C 
ENDBRANCH   2   4
BRANCH   2  10
HETATM   10  C   UNL     1      42.895 -13.994   3.807  1.00  0.00     0.163 C 
BRANCH  10  11
HETATM   11  C   UNL     1      42.789 -15.163   4.812  1.00  0.00     0.169 C 
BRANCH  11  12
HETATM   12  O   UNL     1      43.589 -14.901   5.970  1.00  0.00    -0.389 OA
HETATM   13  H   UNL     1      44.267 -14.256   5.700  1.00  0.00     0.210 HD
ENDBRANCH  11  12
BRANCH  11  14
HETATM   14  C   UNL     1      43.251 -16.467   4.191  1.00  0.00    -0.028 A 
HETATM   15  C   UNL     1      44.009 -17.379   4.939  1.00  0.00     0.010 A 
HETATM   16  C   UNL     1      44.432 -18.581   4.368  1.00  0.00     0.001 A 
HETATM   17  C   UNL     1      44.101 -18.886   3.049  1.00  0.00     0.000 A 
HETATM   18  C   UNL     1      43.341 -17.993   2.298  1.00  0.00     0.001 A 
HETATM   19  C   UNL     1      42.916 -16.792   2.866  1.00  0.00     0.010 A 
ENDBRANCH  11  14
ENDBRANCH  10  11
ENDBRANCH   2  10
BRANCH   1  20
HETATM   20  C   UNL     1      42.931 -11.705   5.678  1.00  0.00     0.119 A 
HETATM   21  N   UNL     1      42.854 -12.354   6.883  1.00  0.00    -0.273 N 
HETATM   22  N   UNL     1      43.899 -12.134   7.696  1.00  0.00    -0.179 NA
HETATM   23  H   UNL     1      42.102 -12.958   7.199  1.00  0.00     0.189 HD
HETATM   24  C   UNL     1      44.746 -11.425   6.942  1.00  0.00     0.057 A 
HETATM   25  C   UNL     1      44.189 -11.134   5.673  1.00  0.00     0.065 A 
BRANCH  24  26
HETATM   26  C   UNL     1      46.099 -11.069   7.461  1.00  0.00     0.061 C 
BRANCH  26  27
HETATM   27  C   UNL     1      46.178  -9.603   7.893  1.00  0.00     0.002 C 
HETATM   28  C   UNL     1      45.616  -9.401   9.291  1.00  0.00     0.005 C 
ENDBRANCH  26  27
ENDBRANCH  24  26
ENDBRANCH   1  20
TORSDOF 8
ENDMDL
MODEL 3
REMARK VINA RESULT:      -7.5     14.356     15.951
REMARK  8 active torsions:
REMARK  status: ('A' for Active; 'I' for Inactive)
REMARK    1  A    between atoms: C_2  and  C_3 
REMARK    2  A    between atoms: C_3  and  C_4 
REMARK    3  A    between atoms: C_8  and  C_9 
REMARK       I    between atoms: C_9  and  N_10 
REMARK    4  A    between atoms: N_10  and  C_11 
REMARK    5  A    between atoms: N_10  and  C_17 
REMARK    6  A    between atoms: C_17  and  C_18 
REMARK    7  A    between atoms: C_18  and  O_19 
REMARK    8  A    between atoms: C_18  and  C_20 
ROOT
HETATM    1  C   UNL     1      45.895 -29.192   1.794  1.00  0.00     0.272 C 
HETATM    2  N   UNL     1      47.183 -29.711   1.967  1.00  0.00    -0.339 N 
HETATM    3  O   UNL     1      45.189 -28.882   2.750  1.00  0.00    -0.266 OA
ENDROOT
BRANCH   2   4
HETATM    4  C   UNL     1      47.763 -29.833   3.333  1.00  0.00     0.087 C 
HETATM    5  C   UNL     1      47.858 -31.296   3.802  1.00  0.00     0.025 C 
HETATM    6  C   UNL     1      49.233 -31.937   3.673  1.00  0.00     0.002 C 
HETATM    7  C   UNL     1      50.316 -31.054   4.273  1.00  0.00     0.000 C 
HETATM    8  C   UNL     1      50.365 -29.697   3.591  1.00  0.00     0.002 C 
HETATM    9  C   UNL     1      49.018 -28.976   3.599  1.00  0.00     0.025 C 
ENDBRANCH   2   4
BRANCH   2  10
HETATM   10  C   UNL     1      47.924 -30.420   0.899  1.00  0.00     0.163 C 
BRANCH  10  11
HETATM   11  C   UNL     1      48.909 -29.516   0.125  1.00  0.00     0.169 C 
BRANCH  11  12
HETATM   12  O   UNL     1      48.238 -28.852  -0.951  1.00  0.00    -0.389 OA
HETATM   13  H   UNL     1      48.812 -28.936  -1.733  1.00  0.00     0.210 HD
ENDBRANCH  11  12
BRANCH  11  14
HETATM   14  C   UNL     1      50.060 -30.319  -0.447  1.00  0.00    -0.028 A 
HETATM   15  C   UNL     1      50.766 -31.221   0.361  1.00  0.00     0.010 A 
HETATM   16  C   UNL     1      51.825 -31.963  -0.167  1.00  0.00     0.001 A 
HETATM   17  C   UNL     1      52.187 -31.816  -1.505  1.00  0.00     0.000 A 
HETATM   18  C   UNL     1      51.488 -30.930  -2.321  1.00  0.00     0.001 A 
HETATM   19  C   UNL     1      50.429 -30.188  -1.797  1.00  0.00     0.010 A 
ENDBRANCH  11  14
ENDBRANCH  10  11
ENDBRANCH   2  10
BRANCH   1  20
HETATM   20  C   UNL     1      45.339 -29.050   0.470  1.00  0.00     0.119 A 
HETATM   21  N   UNL     1      45.615 -27.936  -0.281  1.00  0.00    -0.273 N 
HETATM   22  N   UNL     1      45.038 -27.932  -1.493  1.00  0.00    -0.179 NA
HETATM   23  H   UNL     1      46.192 -27.147  -0.007  1.00  0.00     0.189 HD
HETATM   24  C   UNL     1      44.477 -29.142  -1.584  1.00  0.00     0.057 A 
HETATM   25  C   UNL     1      44.639 -29.879  -0.385  1.00  0.00     0.065 A 
BRANCH  24  26
HETATM   26  C   UNL     1      43.816 -29.574  -2.850  1.00  0.00     0.061 C 
BRANCH  26  27
HETATM   27  C   UNL     1      44.627 -29.172  -4.084  1.00  0.00     0.002 C 
HETATM   28  C   UNL     1      44.461 -30.176  -5.214  1.00  0.00     0.005 C 
ENDBRANCH  26  27
ENDBRANCH  24  26
ENDBRANCH   1  20
TORSDOF 8
ENDMDL
MODEL 4
REMARK VINA RESULT:      -7.3     14.324     16.445
REMARK  8 active torsions:
REMARK  status: ('A' for Active; 'I' for Inactive)
REMARK    1  A    between atoms: C_2  and  C_3 
REMARK    2  A    between atoms: C_3  and  C_4 
REMARK    3  A    between atoms: C_8  and  C_9 
REMARK       I    between atoms: C_9  and  N_10 
REMARK    4  A    between atoms: N_10  and  C_11 
REMARK    5  A    between atoms: N_10  and  C_17 
REMARK    6  A    between atoms: C_17  and  C_18 
REMARK    7  A    between atoms: C_18  and  O_19 
REMARK    8  A    between atoms: C_18  and  C_20 
ROOT
HETATM    1  C   UNL     1      47.637 -29.044  -1.259  1.00  0.00     0.272 C 
HETATM    2  N   UNL     1      46.438 -29.516  -1.804  1.00  0.00    -0.339 N 
HETATM    3  O   UNL     1      48.588 -28.727  -1.968  1.00  0.00    -0.266 OA
ENDROOT
BRANCH   2   4
HETATM    4  C   UNL     1      46.260 -29.578  -3.280  1.00  0.00     0.087 C 
HETATM    5  C   UNL     1      46.278 -31.022  -3.814  1.00  0.00     0.025 C 
HETATM    6  C   UNL     1      44.913 -31.633  -4.098  1.00  0.00     0.002 C 
HETATM    7  C   UNL     1      44.053 -30.704  -4.940  1.00  0.00     0.000 C 
HETATM    8  C   UNL     1      43.835 -29.370  -4.246  1.00  0.00     0.002 C 
HETATM    9  C   UNL     1      45.141 -28.682  -3.851  1.00  0.00     0.025 C 
ENDBRANCH   2   4
BRANCH   2  10
HETATM   10  C   UNL     1      45.413 -30.234  -1.012  1.00  0.00     0.163 C 
BRANCH  10  11
HETATM   11  C   UNL     1      44.238 -29.337  -0.562  1.00  0.00     0.169 C 
BRANCH  11  12
HETATM   12  O   UNL     1      44.645 -27.965  -0.519  1.00  0.00    -0.389 OA
HETATM   13  H   UNL     1      45.574 -27.940  -0.810  1.00  0.00     0.210 HD
ENDBRANCH  11  12
BRANCH  11  14
HETATM   14  C   UNL     1      43.735 -29.734   0.811  1.00  0.00    -0.028 A 
HETATM   15  C   UNL     1      42.421 -29.438   1.198  1.00  0.00     0.010 A 
HETATM   16  C   UNL     1      41.957 -29.807   2.463  1.00  0.00     0.001 A 
HETATM   17  C   UNL     1      42.796 -30.478   3.350  1.00  0.00     0.000 A 
HETATM   18  C   UNL     1      44.101 -30.787   2.975  1.00  0.00     0.001 A 
HETATM   19  C   UNL     1      44.568 -30.420   1.712  1.00  0.00     0.010 A 
ENDBRANCH  11  14
ENDBRANCH  10  11
ENDBRANCH   2  10
BRANCH   1  20
HETATM   20  C   UNL     1      47.804 -28.959   0.172  1.00  0.00     0.119 A 
HETATM   21  N   UNL     1      47.260 -27.914   0.873  1.00  0.00    -0.273 N 
HETATM   22  N   UNL     1      47.487 -27.959   2.195  1.00  0.00    -0.179 NA
HETATM   23  H   UNL     1      46.726 -27.140   0.490  1.00  0.00     0.189 HD
HETATM   24  C   UNL     1      48.084 -29.141   2.376  1.00  0.00     0.057 A 
HETATM   25  C   UNL     1      48.302 -29.805   1.144  1.00  0.00     0.065 A 
BRANCH  24  26
HETATM   26  C   UNL     1      48.407 -29.620   3.753  1.00  0.00     0.061 C 
BRANCH  26  27
HETATM   27  C   UNL     1      49.910 -29.824   3.950  1.00  0.00     0.002 C 
HETATM   28  C   UNL     1      50.203 -31.067   4.774  1.00  0.00     0.005 C 
ENDBRANCH  26  27
ENDBRANCH  24  26
ENDBRANCH   1  20
TORSDOF 8
ENDMDL
MODEL 5
REMARK VINA RESULT:      -7.2     14.023     16.871
REMARK  8 active torsions:
REMARK  status: ('A' for Active; 'I' for Inactive)
REMARK    1  A    between atoms: C_2  and  C_3 
REMARK    2  A    between atoms: C_3  and  C_4 
REMARK    3  A    between atoms: C_8  and  C_9 
REMARK       I    between atoms: C_9  and  N_10 
REMARK    4  A    between atoms: N_10  and  C_11 
REMARK    5  A    between atoms: N_10  and  C_17 
REMARK    6  A    between atoms: C_17  and  C_18 
REMARK    7  A    between atoms: C_18  and  O_19 
REMARK    8  A    between atoms: C_18  and  C_20 
ROOT
HETATM    1  C   UNL     1      47.200 -29.920  -1.104  1.00  0.00     0.272 C 
HETATM    2  N   UNL     1      46.468 -28.835  -0.611  1.00  0.00    -0.339 N 
HETATM    3  O   UNL     1      46.791 -30.605  -2.038  1.00  0.00    -0.266 OA
ENDROOT
BRANCH   2   4
HETATM    4  C   UNL     1      45.192 -28.435  -1.263  1.00  0.00     0.087 C 
HETATM    5  C   UNL     1      45.419 -27.696  -2.595  1.00  0.00     0.025 C 
HETATM    6  C   UNL     1      45.248 -28.541  -3.850  1.00  0.00     0.002 C 
HETATM    7  C   UNL     1      43.942 -29.318  -3.823  1.00  0.00     0.000 C 
HETATM    8  C   UNL     1      43.874 -30.245  -2.621  1.00  0.00     0.002 C 
HETATM    9  C   UNL     1      44.094 -29.519  -1.294  1.00  0.00     0.025 C 
ENDBRANCH   2   4
BRANCH   2  10
HETATM   10  C   UNL     1      46.728 -28.211   0.707  1.00  0.00     0.163 C 
BRANCH  10  11
HETATM   11  C   UNL     1      46.140 -29.004   1.894  1.00  0.00     0.169 C 
BRANCH  11  12
HETATM   12  O   UNL     1      45.239 -28.184   2.646  1.00  0.00    -0.389 OA
HETATM   13  H   UNL     1      45.642 -27.298   2.692  1.00  0.00     0.210 HD
ENDBRANCH  11  12
BRANCH  11  14
HETATM   14  C   UNL     1      47.232 -29.498   2.822  1.00  0.00    -0.028 A 
HETATM   15  C   UNL     1      47.092 -30.720   3.495  1.00  0.00     0.010 A 
HETATM   16  C   UNL     1      48.100 -31.177   4.347  1.00  0.00     0.001 A 
HETATM   17  C   UNL     1      49.256 -30.422   4.534  1.00  0.00     0.000 A 
HETATM   18  C   UNL     1      49.412 -29.210   3.865  1.00  0.00     0.001 A 
HETATM   19  C   UNL     1      48.407 -28.752   3.012  1.00  0.00     0.010 A 
ENDBRANCH  11  14
ENDBRANCH  10  11
ENDBRANCH   2  10
BRANCH   1  20
HETATM   20  C   UNL     1      48.450 -30.296  -0.489  1.00  0.00     0.119 A 
HETATM   21  N   UNL     1      49.527 -29.449  -0.535  1.00  0.00    -0.273 N 
HETATM   22  N   UNL     1      50.625 -29.918   0.078  1.00  0.00    -0.179 NA
HETATM   23  H   UNL     1      49.563 -28.536  -0.978  1.00  0.00     0.189 HD
HETATM   24  C   UNL     1      50.208 -31.051   0.656  1.00  0.00     0.057 A 
HETATM   25  C   UNL     1      48.857 -31.329   0.333  1.00  0.00     0.065 A 
BRANCH  24  26
HETATM   26  C   UNL     1      51.127 -31.829   1.538  1.00  0.00     0.061 C 
BRANCH  26  27
HETATM   27  C   UNL     1      50.483 -33.126   2.032  1.00  0.00     0.002 C 
HETATM   28  C   UNL     1      50.966 -33.495   3.425  1.00  0.00     0.005 C 
ENDBRANCH  26  27
ENDBRANCH  24  26
ENDBRANCH   1  20
TORSDOF 8
ENDMDL
MODEL 6
REMARK VINA RESULT:      -7.2      1.959      6.263
REMARK  8 active torsions:
REMARK  status: ('A' for Active; 'I' for Inactive)
REMARK    1  A    between atoms: C_2  and  C_3 
REMARK    2  A    between atoms: C_3  and  C_4 
REMARK    3  A    between atoms: C_8  and  C_9 
REMARK       I    between atoms: C_9  and  N_10 
REMARK    4  A    between atoms: N_10  and  C_11 
REMARK    5  A    between atoms: N_10  and  C_17 
REMARK    6  A    between atoms: C_17  and  C_18 
REMARK    7  A    between atoms: C_18  and  O_19 
REMARK    8  A    between atoms: C_18  and  C_20 
ROOT
HETATM    1  C   UNL     1      40.103 -12.036   2.260  1.00  0.00     0.272 C 
HETATM    2  N   UNL     1      40.220 -12.902   1.167  1.00  0.00    -0.339 N 
HETATM    3  O   UNL     1      39.531 -10.953   2.168  1.00  0.00    -0.266 OA
ENDROOT
BRANCH   2   4
HETATM    4  C   UNL     1      39.582 -12.557  -0.132  1.00  0.00     0.087 C 
HETATM    5  C   UNL     1      40.313 -11.415  -0.862  1.00  0.00     0.025 C 
HETATM    6  C   UNL     1      41.255 -11.848  -1.977  1.00  0.00     0.002 C 
HETATM    7  C   UNL     1      40.576 -12.818  -2.932  1.00  0.00     0.000 C 
HETATM    8  C   UNL     1      40.101 -14.067  -2.208  1.00  0.00     0.002 C 
HETATM    9  C   UNL     1      39.192 -13.757  -1.019  1.00  0.00     0.025 C 
ENDBRANCH   2   4
BRANCH   2  10
HETATM   10  C   UNL     1      41.182 -14.026   1.121  1.00  0.00     0.163 C 
BRANCH  10  11
HETATM   11  C   UNL     1      40.580 -15.374   1.576  1.00  0.00     0.169 C 
BRANCH  11  12
HETATM   12  O   UNL     1      39.360 -15.160   2.294  1.00  0.00    -0.389 OA
HETATM   13  H   UNL     1      39.425 -15.680   3.115  1.00  0.00     0.210 HD
ENDBRANCH  11  12
BRANCH  11  14
HETATM   14  C   UNL     1      41.540 -16.133   2.471  1.00  0.00    -0.028 A 
HETATM   15  C   UNL     1      41.336 -16.173   3.857  1.00  0.00     0.010 A 
HETATM   16  C   UNL     1      42.218 -16.875   4.681  1.00  0.00     0.001 A 
HETATM   17  C   UNL     1      43.310 -17.544   4.131  1.00  0.00     0.000 A 
HETATM   18  C   UNL     1      43.520 -17.520   2.755  1.00  0.00     0.001 A 
HETATM   19  C   UNL     1      42.639 -16.821   1.929  1.00  0.00     0.010 A 
ENDBRANCH  11  14
ENDBRANCH  10  11
ENDBRANCH   2  10
BRANCH   1  20
HETATM   20  C   UNL     1      40.700 -12.379   3.529  1.00  0.00     0.119 A 
HETATM   21  N   UNL     1      39.950 -12.975   4.509  1.00  0.00    -0.273 N 
HETATM   22  N   UNL     1      40.627 -13.244   5.635  1.00  0.00    -0.179 NA
HETATM   23  H   UNL     1      38.965 -13.218   4.456  1.00  0.00     0.189 HD
HETATM   24  C   UNL     1      41.891 -12.931   5.330  1.00  0.00     0.057 A 
HETATM   25  C   UNL     1      41.989 -12.389   4.025  1.00  0.00     0.065 A 
BRANCH  24  26
HETATM   26  C   UNL     1      42.989 -13.194   6.306  1.00  0.00     0.061 C 
BRANCH  26  27
HETATM   27  C   UNL     1      43.583 -11.899   6.862  1.00  0.00     0.002 C 
HETATM   28  C   UNL     1      44.974 -11.636   6.307  1.00  0.00     0.005 C 
ENDBRANCH  26  27
ENDBRANCH  24  26
ENDBRANCH   1  20
TORSDOF 8
ENDMDL
MODEL 7
REMARK VINA RESULT:      -7.2      1.359      1.957
REMARK  8 active torsions:
REMARK  status: ('A' for Active; 'I' for Inactive)
REMARK    1  A    between atoms: C_2  and  C_3 
REMARK    2  A    between atoms: C_3  and  C_4 
REMARK    3  A    between atoms: C_8  and  C_9 
REMARK       I    between atoms: C_9  and  N_10 
REMARK    4  A    between atoms: N_10  and  C_11 
REMARK    5  A    between atoms: N_10  and  C_17 
REMARK    6  A    between atoms: C_17  and  C_18 
REMARK    7  A    between atoms: C_18  and  O_19 
REMARK    8  A    between atoms: C_18  and  C_20 
ROOT
HETATM    1  C   UNL     1      40.412 -13.128   2.775  1.00  0.00     0.272 C 
HETATM    2  N   UNL     1      41.480 -13.526   3.586  1.00  0.00    -0.339 N 
HETATM    3  O   UNL     1      39.492 -12.440   3.211  1.00  0.00    -0.266 OA
ENDROOT
BRANCH   2   4
HETATM    4  C   UNL     1      41.565 -13.060   4.996  1.00  0.00     0.087 C 
HETATM    5  C   UNL     1      42.091 -14.151   5.946  1.00  0.00     0.025 C 
HETATM    6  C   UNL     1      43.563 -14.042   6.318  1.00  0.00     0.002 C 
HETATM    7  C   UNL     1      43.916 -12.638   6.781  1.00  0.00     0.000 C 
HETATM    8  C   UNL     1      43.628 -11.609   5.700  1.00  0.00     0.002 C 
HETATM    9  C   UNL     1      42.186 -11.662   5.196  1.00  0.00     0.025 C 
ENDBRANCH   2   4
BRANCH   2  10
HETATM   10  C   UNL     1      42.408 -14.622   3.225  1.00  0.00     0.163 C 
BRANCH  10  11
HETATM   11  C   UNL     1      41.700 -15.970   2.962  1.00  0.00     0.169 C 
BRANCH  11  12
HETATM   12  O   UNL     1      40.539 -16.095   3.790  1.00  0.00    -0.389 OA
HETATM   13  H   UNL     1      40.825 -15.904   4.701  1.00  0.00     0.210 HD
ENDBRANCH  11  12
BRANCH  11  14
HETATM   14  C   UNL     1      42.622 -17.141   3.243  1.00  0.00    -0.028 A 
HETATM   15  C   UNL     1      42.797 -18.151   2.287  1.00  0.00     0.010 A 
HETATM   16  C   UNL     1      43.649 -19.228   2.545  1.00  0.00     0.001 A 
HETATM   17  C   UNL     1      44.336 -19.304   3.755  1.00  0.00     0.000 A 
HETATM   18  C   UNL     1      44.178 -18.302   4.710  1.00  0.00     0.001 A 
HETATM   19  C   UNL     1      43.329 -17.225   4.454  1.00  0.00     0.010 A 
ENDBRANCH  11  14
ENDBRANCH  10  11
ENDBRANCH   2  10
BRANCH   1  20
HETATM   20  C   UNL     1      40.339 -13.558   1.400  1.00  0.00     0.119 A 
HETATM   21  N   UNL     1      39.612 -14.669   1.059  1.00  0.00    -0.273 N 
HETATM   22  N   UNL     1      39.625 -14.957  -0.251  1.00  0.00    -0.179 NA
HETATM   23  H   UNL     1      39.088 -15.269   1.690  1.00  0.00     0.189 HD
HETATM   24  C   UNL     1      40.274 -13.923  -0.798  1.00  0.00     0.057 A 
HETATM   25  C   UNL     1      40.738 -13.022   0.191  1.00  0.00     0.065 A 
BRANCH  24  26
HETATM   26  C   UNL     1      40.406 -13.816  -2.281  1.00  0.00     0.061 C 
BRANCH  26  27
HETATM   27  C   UNL     1      40.884 -12.428  -2.713  1.00  0.00     0.002 C 
HETATM   28  C   UNL     1      39.716 -11.503  -3.016  1.00  0.00     0.005 C 
ENDBRANCH  26  27
ENDBRANCH  24  26
ENDBRANCH   1  20
TORSDOF 8
ENDMDL
MODEL 8
REMARK VINA RESULT:      -7.1      2.180      4.665
REMARK  8 active torsions:
REMARK  status: ('A' for Active; 'I' for Inactive)
REMARK    1  A    between atoms: C_2  and  C_3 
REMARK    2  A    between atoms: C_3  and  C_4 
REMARK    3  A    between atoms: C_8  and  C_9 
REMARK       I    between atoms: C_9  and  N_10 
REMARK    4  A    between atoms: N_10  and  C_11 
REMARK    5  A    between atoms: N_10  and  C_17 
REMARK    6  A    between atoms: C_17  and  C_18 
REMARK    7  A    between atoms: C_18  and  O_19 
REMARK    8  A    between atoms: C_18  and  C_20 
ROOT
HETATM    1  C   UNL     1      40.296 -15.072   2.143  1.00  0.00     0.272 C 
HETATM    2  N   UNL     1      41.049 -15.049   3.322  1.00  0.00    -0.339 N 
HETATM    3  O   UNL     1      39.764 -16.102   1.737  1.00  0.00    -0.266 OA
ENDROOT
BRANCH   2   4
HETATM    4  C   UNL     1      41.164 -16.273   4.161  1.00  0.00     0.087 C 
HETATM    5  C   UNL     1      42.572 -16.893   4.107  1.00  0.00     0.025 C 
HETATM    6  C   UNL     1      43.477 -16.569   5.288  1.00  0.00     0.002 C 
HETATM    7  C   UNL     1      42.772 -16.822   6.612  1.00  0.00     0.000 C 
HETATM    8  C   UNL     1      41.514 -15.980   6.739  1.00  0.00     0.002 C 
HETATM    9  C   UNL     1      40.547 -16.171   5.571  1.00  0.00     0.025 C 
ENDBRANCH   2   4
BRANCH   2  10
HETATM   10  C   UNL     1      41.987 -13.956   3.665  1.00  0.00     0.163 C 
BRANCH  10  11
HETATM   11  C   UNL     1      41.361 -12.859   4.555  1.00  0.00     0.169 C 
BRANCH  11  12
HETATM   12  O   UNL     1      40.885 -11.774   3.750  1.00  0.00    -0.389 OA
HETATM   13  H   UNL     1      41.307 -11.869   2.877  1.00  0.00     0.210 HD
ENDBRANCH  11  12
BRANCH  11  14
HETATM   14  C   UNL     1      42.366 -12.316   5.551  1.00  0.00    -0.028 A 
HETATM   15  C   UNL     1      42.128 -11.101   6.208  1.00  0.00     0.010 A 
HETATM   16  C   UNL     1      43.053 -10.603   7.128  1.00  0.00     0.001 A 
HETATM   17  C   UNL     1      44.221 -11.312   7.403  1.00  0.00     0.000 A 
HETATM   18  C   UNL     1      44.466 -12.525   6.763  1.00  0.00     0.001 A 
HETATM   19  C   UNL     1      43.543 -13.025   5.845  1.00  0.00     0.010 A 
ENDBRANCH  11  14
ENDBRANCH  10  11
ENDBRANCH   2  10
BRANCH   1  20
HETATM   20  C   UNL     1      40.162 -13.881   1.340  1.00  0.00     0.119 A 
HETATM   21  N   UNL     1      39.173 -12.971   1.610  1.00  0.00    -0.273 N 
HETATM   22  N   UNL     1      39.163 -11.908   0.791  1.00  0.00    -0.179 NA
HETATM   23  H   UNL     1      38.475 -13.033   2.345  1.00  0.00     0.189 HD
HETATM   24  C   UNL     1      40.263 -12.067   0.048  1.00  0.00     0.057 A 
HETATM   25  C   UNL     1      40.922 -13.283   0.354  1.00  0.00     0.065 A 
BRANCH  24  26
HETATM   26  C   UNL     1      40.670 -11.016  -0.930  1.00  0.00     0.061 C 
BRANCH  26  27
HETATM   27  C   UNL     1      40.143 -11.307  -2.337  1.00  0.00     0.002 C 
HETATM   28  C   UNL     1      41.098 -12.191  -3.122  1.00  0.00     0.005 C 
ENDBRANCH  26  27
ENDBRANCH  24  26
ENDBRANCH   1  20
TORSDOF 8
ENDMDL
MODEL 9
REMARK VINA RESULT:      -7.1     14.181     15.958
REMARK  8 active torsions:
REMARK  status: ('A' for Active; 'I' for Inactive)
REMARK    1  A    between atoms: C_2  and  C_3 
REMARK    2  A    between atoms: C_3  and  C_4 
REMARK    3  A    between atoms: C_8  and  C_9 
REMARK       I    between atoms: C_9  and  N_10 
REMARK    4  A    between atoms: N_10  and  C_11 
REMARK    5  A    between atoms: N_10  and  C_17 
REMARK    6  A    between atoms: C_17  and  C_18 
REMARK    7  A    between atoms: C_18  and  O_19 
REMARK    8  A    between atoms: C_18  and  C_20 
ROOT
HETATM    1  C   UNL     1      47.575 -28.449   1.270  1.00  0.00     0.272 C 
HETATM    2  N   UNL     1      48.410 -29.541   1.529  1.00  0.00    -0.339 N 
HETATM    3  O   UNL     1      47.506 -27.492   2.036  1.00  0.00    -0.266 OA
ENDROOT
BRANCH   2   4
HETATM    4  C   UNL     1      49.302 -29.535   2.720  1.00  0.00     0.087 C 
HETATM    5  C   UNL     1      48.528 -29.737   4.035  1.00  0.00     0.025 C 
HETATM    6  C   UNL     1      48.561 -31.149   4.605  1.00  0.00     0.002 C 
HETATM    7  C   UNL     1      49.982 -31.688   4.668  1.00  0.00     0.000 C 
HETATM    8  C   UNL     1      50.623 -31.722   3.291  1.00  0.00     0.002 C 
HETATM    9  C   UNL     1      50.594 -30.367   2.586  1.00  0.00     0.025 C 
ENDBRANCH   2   4
BRANCH   2  10
HETATM   10  C   UNL     1      48.272 -30.849   0.848  1.00  0.00     0.163 C 
BRANCH  10  11
HETATM   11  C   UNL     1      47.083 -31.691   1.361  1.00  0.00     0.169 C 
BRANCH  11  12
HETATM   12  O   UNL     1      47.524 -33.001   1.737  1.00  0.00    -0.389 OA
HETATM   13  H   UNL     1      46.761 -33.444   2.148  1.00  0.00     0.210 HD
ENDBRANCH  11  12
BRANCH  11  14
HETATM   14  C   UNL     1      46.008 -31.829   0.302  1.00  0.00    -0.028 A 
HETATM   15  C   UNL     1      46.357 -32.017  -1.042  1.00  0.00     0.010 A 
HETATM   16  C   UNL     1      45.365 -32.147  -2.018  1.00  0.00     0.001 A 
HETATM   17  C   UNL     1      44.019 -32.095  -1.662  1.00  0.00     0.000 A 
HETATM   18  C   UNL     1      43.658 -31.918  -0.328  1.00  0.00     0.001 A 
HETATM   19  C   UNL     1      44.647 -31.789   0.649  1.00  0.00     0.010 A 
ENDBRANCH  11  14
ENDBRANCH  10  11
ENDBRANCH   2  10
BRANCH   1  20
HETATM   20  C   UNL     1      46.726 -28.441   0.102  1.00  0.00     0.119 A 
HETATM   21  N   UNL     1      45.365 -28.345   0.235  1.00  0.00    -0.273 N 
HETATM   22  N   UNL     1      44.696 -28.345  -0.927  1.00  0.00    -0.179 NA
HETATM   23  H   UNL     1      44.844 -28.279   1.104  1.00  0.00     0.189 HD
HETATM   24  C   UNL     1      45.662 -28.308  -1.852  1.00  0.00     0.057 A 
HETATM   25  C   UNL     1      46.947 -28.364  -1.259  1.00  0.00     0.065 A 
BRANCH  24  26
HETATM   26  C   UNL     1      45.316 -28.188  -3.299  1.00  0.00     0.061 C 
BRANCH  26  27
HETATM   27  C   UNL     1      44.098 -29.037  -3.668  1.00  0.00     0.002 C 
HETATM   28  C   UNL     1      44.372 -29.911  -4.881  1.00  0.00     0.005 C 
ENDBRANCH  26  27
ENDBRANCH  24  26
ENDBRANCH   1  20
TORSDOF 8
ENDMDL
MODEL 10
REMARK VINA RESULT:      -7.1      1.685      6.604
REMARK  8 active torsions:
REMARK  status: ('A' for Active; 'I' for Inactive)
REMARK    1  A    between atoms: C_2  and  C_3 
REMARK    2  A    between atoms: C_3  and  C_4 
REMARK    3  A    between atoms: C_8  and  C_9 
REMARK       I    between atoms: C_9  and  N_10 
REMARK    4  A    between atoms: N_10  and  C_11 
REMARK    5  A    between atoms: N_10  and  C_17 
REMARK    6  A    between atoms: C_17  and  C_18 
REMARK    7  A    between atoms: C_18  and  O_19 
REMARK    8  A    between atoms: C_18  and  C_20 
ROOT
HETATM    1  C   UNL     1      40.659 -15.368   1.231  1.00  0.00     0.272 C 
HETATM    2  N   UNL     1      40.956 -14.066   0.816  1.00  0.00    -0.339 N 
HETATM    3  O   UNL     1      39.622 -15.934   0.892  1.00  0.00    -0.266 OA
ENDROOT
BRANCH   2   4
HETATM    4  C   UNL     1      40.045 -13.353  -0.120  1.00  0.00     0.087 C 
HETATM    5  C   UNL     1      40.572 -11.959  -0.507  1.00  0.00     0.025 C 
HETATM    6  C   UNL     1      41.263 -11.873  -1.861  1.00  0.00     0.002 C 
HETATM    7  C   UNL     1      40.419 -12.508  -2.955  1.00  0.00     0.000 C 
HETATM    8  C   UNL     1      40.143 -13.974  -2.662  1.00  0.00     0.002 C 
HETATM    9  C   UNL     1      39.503 -14.197  -1.292  1.00  0.00     0.025 C 
ENDBRANCH   2   4
BRANCH   2  10
HETATM   10  C   UNL     1      41.986 -13.222   1.463  1.00  0.00     0.163 C 
BRANCH  10  11
HETATM   11  C   UNL     1      41.438 -12.354   2.617  1.00  0.00     0.169 C 
BRANCH  11  12
HETATM   12  O   UNL     1      42.087 -11.077   2.633  1.00  0.00    -0.389 OA
HETATM   13  H   UNL     1      42.708 -11.090   3.384  1.00  0.00     0.210 HD
ENDBRANCH  11  12
BRANCH  11  14
HETATM   14  C   UNL     1      41.654 -13.022   3.961  1.00  0.00    -0.028 A 
HETATM   15  C   UNL     1      42.941 -13.404   4.364  1.00  0.00     0.010 A 
HETATM   16  C   UNL     1      43.140 -14.017   5.603  1.00  0.00     0.001 A 
HETATM   17  C   UNL     1      42.059 -14.251   6.452  1.00  0.00     0.000 A 
HETATM   18  C   UNL     1      40.776 -13.868   6.067  1.00  0.00     0.001 A 
HETATM   19  C   UNL     1      40.575 -13.254   4.830  1.00  0.00     0.010 A 
ENDBRANCH  11  14
ENDBRANCH  10  11
ENDBRANCH   2  10
BRANCH   1  20
HETATM   20  C   UNL     1      41.552 -16.073   2.119  1.00  0.00     0.119 A 
HETATM   21  N   UNL     1      41.142 -16.426   3.378  1.00  0.00    -0.273 N 
HETATM   22  N   UNL     1      42.068 -17.078   4.097  1.00  0.00    -0.179 NA
HETATM   23  H   UNL     1      40.235 -16.241   3.795  1.00  0.00     0.189 HD
HETATM   24  C   UNL     1      43.068 -17.271   3.230  1.00  0.00     0.057 A 
HETATM   25  C   UNL     1      42.793 -16.664   1.980  1.00  0.00     0.065 A 
BRANCH  24  26
HETATM   26  C   UNL     1      44.264 -18.072   3.625  1.00  0.00     0.061 C 
BRANCH  26  27
HETATM   27  C   UNL     1      43.957 -19.569   3.685  1.00  0.00     0.002 C 
HETATM   28  C   UNL     1      43.682 -20.140   2.303  1.00  0.00     0.005 C 
ENDBRANCH  26  27
ENDBRANCH  24  26
ENDBRANCH   1  20
TORSDOF 8
ENDMDL
