MODEL 1
REMARK VINA RESULT:      -7.8      0.000      0.000
REMARK  7 active torsions:
REMARK  status: ('A' for Active; 'I' for Inactive)
REMARK    1  A    between atoms: C_2  and  N_3 
REMARK    2  A    between atoms: C_6  and  C_7 
REMARK    3  A    between atoms: C_7  and  O_8 
REMARK    4  A    between atoms: O_8  and  C_9 
REMARK    5  A    between atoms: C_9  and  C_10 
REMARK    6  A    between atoms: C_12  and  N_13 
REMARK    7  A    between atoms: C_22  and  N_23 
ROOT
HETATM    1  O   UNL     1      42.962 -12.428   5.225  1.00  0.00    -0.310 OA
ENDROOT
BRANCH   1   2
HETATM    2  C   UNL     1      44.042 -11.611   5.398  1.00  0.00     0.299 C 
HETATM    3  O   UNL     1      44.818 -11.297   4.502  1.00  0.00    -0.259 OA
BRANCH   2   4
HETATM    4  C   UNL     1      44.209 -11.163   6.765  1.00  0.00     0.103 A 
HETATM    5  C   UNL     1      45.409 -11.209   7.511  1.00  0.00     0.160 A 
HETATM    6  N   UNL     1      45.271 -10.740   8.752  1.00  0.00    -0.182 NA
HETATM    7  N   UNL     1      43.958 -10.435   8.834  1.00  0.00    -0.250 N 
HETATM    8  C   UNL     1      43.286 -10.614   7.639  1.00  0.00     0.136 A 
BRANCH   7   9
HETATM    9  C   UNL     1      43.407  -9.979  10.108  1.00  0.00     0.104 C 
HETATM   10  C   UNL     1      43.716  -8.500  10.334  1.00  0.00     0.034 C 
HETATM   11  C   UNL     1      43.880 -10.829  11.291  1.00  0.00     0.034 C 
ENDBRANCH   7   9
BRANCH   8  12
HETATM   12  N   UNL     1      41.978 -10.308   7.469  1.00  0.00    -0.383 N 
HETATM   13  H   UNL     1      41.633 -10.171   6.518  1.00  0.00     0.157 HD
HETATM   14  H   UNL     1      41.464  -9.751   8.146  1.00  0.00     0.157 HD
ENDBRANCH   8  12
ENDBRANCH   2   4
ENDBRANCH   1   2
BRANCH   1  15
HETATM   15  C   UNL     1      43.110 -13.736   5.800  1.00  0.00     0.259 C 
BRANCH  15  16
HETATM   16  C   UNL     1      43.184 -14.864   4.791  1.00  0.00     0.152 A 
HETATM   17  N   UNL     1      42.835 -14.609   3.517  1.00  0.00    -0.219 NA
HETATM   18  C   UNL     1      42.903 -15.637   2.661  1.00  0.00     0.115 A 
HETATM   19  C   UNL     1      43.270 -16.935   3.038  1.00  0.00     0.033 A 
HETATM   20  C   UNL     1      43.592 -17.088   4.390  1.00  0.00     0.072 A 
HETATM   21  C   UNL     1      43.324 -18.053   2.170  1.00  0.00     0.017 A 
HETATM   22  N   UNL     1      43.544 -16.074   5.261  1.00  0.00    -0.231 NA
HETATM   23  C   UNL     1      43.972 -18.346   4.841  1.00  0.00     0.032 A 
HETATM   24  C   UNL     1      44.036 -19.451   3.987  1.00  0.00     0.002 A 
HETATM   25  C   UNL     1      43.709 -19.305   2.646  1.00  0.00     0.001 A 
BRANCH  18  26
HETATM   26  N   UNL     1      42.560 -15.324   1.339  1.00  0.00    -0.286 NA
HETATM   27  H   UNL     1      43.352 -15.594   0.759  1.00  0.00     0.125 HD
HETATM   28  H   UNL     1      41.719 -15.818   1.061  1.00  0.00     0.125 HD
ENDBRANCH  18  26
ENDBRANCH  15  16
ENDBRANCH   1  15
TORSDOF 7
ENDMDL
MODEL 2
REMARK VINA RESULT:      -7.7      3.887      7.272
REMARK  7 active torsions:
REMARK  status: ('A' for Active; 'I' for Inactive)
REMARK    1  A    between atoms: C_2  and  N_3 
REMARK    2  A    between atoms: C_6  and  C_7 
REMARK    3  A    between atoms: C_7  and  O_8 
REMARK    4  A    between atoms: O_8  and  C_9 
REMARK    5  A    between atoms: C_9  and  C_10 
REMARK    6  A    between atoms: C_12  and  N_13 
REMARK    7  A    between atoms: C_22  and  N_23 
ROOT
HETATM    1  O   UNL     1      41.619 -12.962   3.188  1.00  0.00    -0.310 OA
ENDROOT
BRANCH   1   2
HETATM    2  C   UNL     1      40.289 -12.872   2.897  1.00  0.00     0.299 C 
HETATM    3  O   UNL     1      39.404 -12.777   3.739  1.00  0.00    -0.259 OA
BRANCH   2   4
HETATM    4  C   UNL     1      40.008 -12.929   1.476  1.00  0.00     0.103 A 
HETATM    5  C   UNL     1      39.018 -12.183   0.797  1.00  0.00     0.160 A 
HETATM    6  N   UNL     1      38.971 -12.445  -0.510  1.00  0.00    -0.182 NA
HETATM    7  N   UNL     1      39.904 -13.407  -0.676  1.00  0.00    -0.250 N 
HETATM    8  C   UNL     1      40.601 -13.691   0.484  1.00  0.00     0.136 A 
BRANCH   7   9
HETATM    9  C   UNL     1      40.068 -14.026  -1.990  1.00  0.00     0.104 C 
HETATM   10  C   UNL     1      40.626 -13.021  -2.996  1.00  0.00     0.034 C 
HETATM   11  C   UNL     1      38.775 -14.664  -2.505  1.00  0.00     0.034 C 
ENDBRANCH   7   9
BRANCH   8  12
HETATM   12  N   UNL     1      41.626 -14.573   0.538  1.00  0.00    -0.383 N 
HETATM   13  H   UNL     1      41.542 -15.375   1.165  1.00  0.00     0.157 HD
HETATM   14  H   UNL     1      42.592 -14.284   0.416  1.00  0.00     0.157 HD
ENDBRANCH   8  12
ENDBRANCH   2   4
ENDBRANCH   1   2
BRANCH   1  15
HETATM   15  C   UNL     1      41.905 -13.442   4.511  1.00  0.00     0.259 C 
BRANCH  15  16
HETATM   16  C   UNL     1      42.509 -14.831   4.562  1.00  0.00     0.152 A 
HETATM   17  N   UNL     1      43.210 -15.187   5.654  1.00  0.00    -0.219 NA
HETATM   18  C   UNL     1      43.736 -16.418   5.653  1.00  0.00     0.115 A 
HETATM   19  C   UNL     1      43.626 -17.305   4.576  1.00  0.00     0.033 A 
HETATM   20  C   UNL     1      42.893 -16.823   3.486  1.00  0.00     0.072 A 
HETATM   21  C   UNL     1      44.194 -18.602   4.524  1.00  0.00     0.017 A 
HETATM   22  N   UNL     1      42.347 -15.603   3.469  1.00  0.00    -0.231 NA
HETATM   23  C   UNL     1      42.733 -17.648   2.380  1.00  0.00     0.032 A 
HETATM   24  C   UNL     1      43.283 -18.933   2.328  1.00  0.00     0.002 A 
HETATM   25  C   UNL     1      44.019 -19.411   3.403  1.00  0.00     0.001 A 
BRANCH  18  26
HETATM   26  N   UNL     1      44.434 -16.760   6.819  1.00  0.00    -0.286 NA
HETATM   27  H   UNL     1      44.088 -16.148   7.555  1.00  0.00     0.125 HD
HETATM   28  H   UNL     1      44.285 -17.734   7.053  1.00  0.00     0.125 HD
ENDBRANCH  18  26
ENDBRANCH  15  16
ENDBRANCH   1  15
TORSDOF 7
ENDMDL
MODEL 3
REMARK VINA RESULT:      -7.6      4.952      7.376
REMARK  7 active torsions:
REMARK  status: ('A' for Active; 'I' for Inactive)
REMARK    1  A    between atoms: C_2  and  N_3 
REMARK    2  A    between atoms: C_6  and  C_7 
REMARK    3  A    between atoms: C_7  and  O_8 
REMARK    4  A    between atoms: O_8  and  C_9 
REMARK    5  A    between atoms: C_9  and  C_10 
REMARK    6  A    between atoms: C_12  and  N_13 
REMARK    7  A    between atoms: C_22  and  N_23 
ROOT
HETATM    1  O   UNL     1      41.447 -14.093   2.865  1.00  0.00    -0.310 OA
ENDROOT
BRANCH   1   2
HETATM    2  C   UNL     1      40.415 -14.703   2.213  1.00  0.00     0.299 C 
HETATM    3  O   UNL     1      39.745 -15.615   2.684  1.00  0.00    -0.259 OA
BRANCH   2   4
HETATM    4  C   UNL     1      40.196 -14.187   0.877  1.00  0.00     0.103 A 
HETATM    5  C   UNL     1      39.779 -14.939  -0.244  1.00  0.00     0.160 A 
HETATM    6  N   UNL     1      39.670 -14.208  -1.354  1.00  0.00    -0.182 NA
HETATM    7  N   UNL     1      40.071 -12.978  -0.966  1.00  0.00    -0.250 N 
HETATM    8  C   UNL     1      40.341 -12.900   0.388  1.00  0.00     0.136 A 
BRANCH   7   9
HETATM    9  C   UNL     1      40.183 -11.914  -1.962  1.00  0.00     0.104 C 
HETATM   10  C   UNL     1      38.811 -11.558  -2.530  1.00  0.00     0.034 C 
HETATM   11  C   UNL     1      41.172 -12.256  -3.079  1.00  0.00     0.034 C 
ENDBRANCH   7   9
BRANCH   8  12
HETATM   12  N   UNL     1      40.693 -11.750   1.009  1.00  0.00    -0.383 N 
HETATM   13  H   UNL     1      41.613 -11.701   1.451  1.00  0.00     0.157 HD
HETATM   14  H   UNL     1      40.012 -11.162   1.481  1.00  0.00     0.157 HD
ENDBRANCH   8  12
ENDBRANCH   2   4
ENDBRANCH   1   2
BRANCH   1  15
HETATM   15  C   UNL     1      42.747 -14.602   2.526  1.00  0.00     0.259 C 
BRANCH  15  16
HETATM   16  C   UNL     1      43.102 -15.917   3.188  1.00  0.00     0.152 A 
HETATM   17  N   UNL     1      43.509 -15.901   4.471  1.00  0.00    -0.219 NA
HETATM   18  C   UNL     1      43.825 -17.085   5.013  1.00  0.00     0.115 A 
HETATM   19  C   UNL     1      43.792 -18.292   4.307  1.00  0.00     0.033 A 
HETATM   20  C   UNL     1      43.375 -18.187   2.976  1.00  0.00     0.072 A 
HETATM   21  C   UNL     1      44.148 -19.558   4.836  1.00  0.00     0.017 A 
HETATM   22  N   UNL     1      43.041 -17.020   2.417  1.00  0.00    -0.231 NA
HETATM   23  C   UNL     1      43.309 -19.345   2.210  1.00  0.00     0.032 A 
HETATM   24  C   UNL     1      43.650 -20.597   2.730  1.00  0.00     0.002 A 
HETATM   25  C   UNL     1      44.074 -20.704   4.048  1.00  0.00     0.001 A 
BRANCH  18  26
HETATM   26  N   UNL     1      44.216 -17.028   6.358  1.00  0.00    -0.286 NA
HETATM   27  H   UNL     1      43.390 -17.245   6.911  1.00  0.00     0.125 HD
HETATM   28  H   UNL     1      44.963 -17.688   6.542  1.00  0.00     0.125 HD
ENDBRANCH  18  26
ENDBRANCH  15  16
ENDBRANCH   1  15
TORSDOF 7
ENDMDL
MODEL 4
REMARK VINA RESULT:      -7.5      2.840      4.064
REMARK  7 active torsions:
REMARK  status: ('A' for Active; 'I' for Inactive)
REMARK    1  A    between atoms: C_2  and  N_3 
REMARK    2  A    between atoms: C_6  and  C_7 
REMARK    3  A    between atoms: C_7  and  O_8 
REMARK    4  A    between atoms: O_8  and  C_9 
REMARK    5  A    between atoms: C_9  and  C_10 
REMARK    6  A    between atoms: C_12  and  N_13 
REMARK    7  A    between atoms: C_22  and  N_23 
ROOT
HETATM    1  O   UNL     1      41.652 -14.662   1.495  1.00  0.00    -0.310 OA
ENDROOT
BRANCH   1   2
HETATM    2  C   UNL     1      41.429 -13.316   1.510  1.00  0.00     0.299 C 
HETATM    3  O   UNL     1      40.919 -12.692   0.587  1.00  0.00    -0.259 OA
BRANCH   2   4
HETATM    4  C   UNL     1      41.885 -12.673   2.726  1.00  0.00     0.103 A 
HETATM    5  C   UNL     1      42.682 -11.508   2.799  1.00  0.00     0.160 A 
HETATM    6  N   UNL     1      42.963 -11.143   4.051  1.00  0.00    -0.182 NA
HETATM    7  N   UNL     1      42.389 -12.110   4.800  1.00  0.00    -0.250 N 
HETATM    8  C   UNL     1      41.674 -13.023   4.049  1.00  0.00     0.136 A 
BRANCH   7   9
HETATM    9  C   UNL     1      42.579 -12.099   6.249  1.00  0.00     0.104 C 
HETATM   10  C   UNL     1      42.716 -10.669   6.767  1.00  0.00     0.034 C 
HETATM   11  C   UNL     1      43.762 -12.964   6.693  1.00  0.00     0.034 C 
ENDBRANCH   7   9
BRANCH   8  12
HETATM   12  N   UNL     1      40.962 -14.037   4.594  1.00  0.00    -0.383 N 
HETATM   13  H   UNL     1      41.084 -14.235   5.589  1.00  0.00     0.157 HD
HETATM   14  H   UNL     1      40.723 -14.872   4.066  1.00  0.00     0.157 HD
ENDBRANCH   8  12
ENDBRANCH   2   4
ENDBRANCH   1   2
BRANCH   1  15
HETATM   15  C   UNL     1      43.032 -15.037   1.638  1.00  0.00     0.259 C 
BRANCH  15  16
HETATM   16  C   UNL     1      43.280 -16.178   2.603  1.00  0.00     0.152 A 
HETATM   17  N   UNL     1      43.527 -15.885   3.894  1.00  0.00    -0.219 NA
HETATM   18  C   UNL     1      43.753 -16.923   4.710  1.00  0.00     0.115 A 
HETATM   19  C   UNL     1      43.784 -18.254   4.278  1.00  0.00     0.033 A 
HETATM   20  C   UNL     1      43.535 -18.439   2.914  1.00  0.00     0.072 A 
HETATM   21  C   UNL     1      44.050 -19.374   5.104  1.00  0.00     0.017 A 
HETATM   22  N   UNL     1      43.294 -17.420   2.083  1.00  0.00    -0.231 NA
HETATM   23  C   UNL     1      43.542 -19.733   2.410  1.00  0.00     0.032 A 
HETATM   24  C   UNL     1      43.795 -20.843   3.223  1.00  0.00     0.002 A 
HETATM   25  C   UNL     1      44.052 -20.663   4.574  1.00  0.00     0.001 A 
BRANCH  18  26
HETATM   26  N   UNL     1      43.977 -16.578   6.049  1.00  0.00    -0.286 NA
HETATM   27  H   UNL     1      44.064 -17.451   6.565  1.00  0.00     0.125 HD
HETATM   28  H   UNL     1      44.815 -16.015   6.139  1.00  0.00     0.125 HD
ENDBRANCH  18  26
ENDBRANCH  15  16
ENDBRANCH   1  15
TORSDOF 7
ENDMDL
MODEL 5
REMARK VINA RESULT:      -7.5      1.483      2.413
REMARK  7 active torsions:
REMARK  status: ('A' for Active; 'I' for Inactive)
REMARK    1  A    between atoms: C_2  and  N_3 
REMARK    2  A    between atoms: C_6  and  C_7 
REMARK    3  A    between atoms: C_7  and  O_8 
REMARK    4  A    between atoms: O_8  and  C_9 
REMARK    5  A    between atoms: C_9  and  C_10 
REMARK    6  A    between atoms: C_12  and  N_13 
REMARK    7  A    between atoms: C_22  and  N_23 
ROOT
HETATM    1  O   UNL     1      42.079 -13.538   5.238  1.00  0.00    -0.310 OA
ENDROOT
BRANCH   1   2
HETATM    2  C   UNL     1      42.285 -12.190   5.183  1.00  0.00     0.299 C 
HETATM    3  O   UNL     1      41.863 -11.464   4.291  1.00  0.00    -0.259 OA
BRANCH   2   4
HETATM    4  C   UNL     1      43.088 -11.688   6.280  1.00  0.00     0.103 A 
HETATM    5  C   UNL     1      44.111 -12.396   6.951  1.00  0.00     0.160 A 
HETATM    6  N   UNL     1      44.677 -11.693   7.932  1.00  0.00    -0.182 NA
HETATM    7  N   UNL     1      43.982 -10.535   7.936  1.00  0.00    -0.250 N 
HETATM    8  C   UNL     1      43.052 -10.459   6.917  1.00  0.00     0.136 A 
BRANCH   7   9
HETATM    9  C   UNL     1      44.261  -9.536   8.967  1.00  0.00     0.104 C 
HETATM   10  C   UNL     1      45.419  -8.634   8.547  1.00  0.00     0.034 C 
HETATM   11  C   UNL     1      44.519 -10.165  10.339  1.00  0.00     0.034 C 
ENDBRANCH   7   9
BRANCH   8  12
HETATM   12  N   UNL     1      42.289  -9.364   6.687  1.00  0.00    -0.383 N 
HETATM   13  H   UNL     1      41.389  -9.491   6.223  1.00  0.00     0.157 HD
HETATM   14  H   UNL     1      42.698  -8.456   6.486  1.00  0.00     0.157 HD
ENDBRANCH   8  12
ENDBRANCH   2   4
ENDBRANCH   1   2
BRANCH   1  15
HETATM   15  C   UNL     1      42.752 -14.283   4.211  1.00  0.00     0.259 C 
BRANCH  15  16
HETATM   16  C   UNL     1      43.029 -15.731   4.559  1.00  0.00     0.152 A 
HETATM   17  N   UNL     1      43.160 -16.066   5.856  1.00  0.00    -0.219 NA
HETATM   18  C   UNL     1      43.416 -17.354   6.119  1.00  0.00     0.115 A 
HETATM   19  C   UNL     1      43.590 -18.326   5.127  1.00  0.00     0.033 A 
HETATM   20  C   UNL     1      43.452 -17.862   3.814  1.00  0.00     0.072 A 
HETATM   21  C   UNL     1      43.892 -19.690   5.363  1.00  0.00     0.017 A 
HETATM   22  N   UNL     1      43.184 -16.584   3.528  1.00  0.00    -0.231 NA
HETATM   23  C   UNL     1      43.604 -18.768   2.773  1.00  0.00     0.032 A 
HETATM   24  C   UNL     1      43.892 -20.118   3.001  1.00  0.00     0.002 A 
HETATM   25  C   UNL     1      44.040 -20.580   4.301  1.00  0.00     0.001 A 
BRANCH  18  26
HETATM   26  N   UNL     1      43.518 -17.666   7.481  1.00  0.00    -0.286 NA
HETATM   27  H   UNL     1      42.574 -17.625   7.860  1.00  0.00     0.125 HD
HETATM   28  H   UNL     1      43.923 -18.586   7.608  1.00  0.00     0.125 HD
ENDBRANCH  18  26
ENDBRANCH  15  16
ENDBRANCH   1  15
TORSDOF 7
ENDMDL
MODEL 6
REMARK VINA RESULT:      -7.1      3.627      5.931
REMARK  7 active torsions:
REMARK  status: ('A' for Active; 'I' for Inactive)
REMARK    1  A    between atoms: C_2  and  N_3 
REMARK    2  A    between atoms: C_6  and  C_7 
REMARK    3  A    between atoms: C_7  and  O_8 
REMARK    4  A    between atoms: O_8  and  C_9 
REMARK    5  A    between atoms: C_9  and  C_10 
REMARK    6  A    between atoms: C_12  and  N_13 
REMARK    7  A    between atoms: C_22  and  N_23 
ROOT
HETATM    1  O   UNL     1      42.223 -14.003   6.228  1.00  0.00    -0.310 OA
ENDROOT
BRANCH   1   2
HETATM    2  C   UNL     1      42.148 -12.955   5.357  1.00  0.00     0.299 C 
HETATM    3  O   UNL     1      42.633 -11.849   5.566  1.00  0.00    -0.259 OA
BRANCH   2   4
HETATM    4  C   UNL     1      41.405 -13.263   4.152  1.00  0.00     0.103 A 
HETATM    5  C   UNL     1      40.026 -13.030   3.946  1.00  0.00     0.160 A 
HETATM    6  N   UNL     1      39.603 -13.423   2.744  1.00  0.00    -0.182 NA
HETATM    7  N   UNL     1      40.704 -13.967   2.180  1.00  0.00    -0.250 N 
HETATM    8  C   UNL     1      41.833 -13.839   2.967  1.00  0.00     0.136 A 
BRANCH   7   9
HETATM    9  C   UNL     1      40.595 -14.608   0.872  1.00  0.00     0.104 C 
HETATM   10  C   UNL     1      39.931 -13.673  -0.137  1.00  0.00     0.034 C 
HETATM   11  C   UNL     1      39.871 -15.956   0.936  1.00  0.00     0.034 C 
ENDBRANCH   7   9
BRANCH   8  12
HETATM   12  N   UNL     1      43.062 -14.250   2.575  1.00  0.00    -0.383 N 
HETATM   13  H   UNL     1      43.156 -14.687   1.657  1.00  0.00     0.157 HD
HETATM   14  H   UNL     1      43.748 -14.602   3.237  1.00  0.00     0.157 HD
ENDBRANCH   8  12
ENDBRANCH   2   4
ENDBRANCH   1   2
BRANCH   1  15
HETATM   15  C   UNL     1      43.522 -14.609   6.316  1.00  0.00     0.259 C 
BRANCH  15  16
HETATM   16  C   UNL     1      43.554 -16.088   5.989  1.00  0.00     0.152 A 
HETATM   17  N   UNL     1      43.524 -16.970   7.005  1.00  0.00    -0.219 NA
HETATM   18  C   UNL     1      43.565 -18.267   6.672  1.00  0.00     0.115 A 
HETATM   19  C   UNL     1      43.679 -18.724   5.354  1.00  0.00     0.033 A 
HETATM   20  C   UNL     1      43.723 -17.719   4.382  1.00  0.00     0.072 A 
HETATM   21  C   UNL     1      43.757 -20.084   4.965  1.00  0.00     0.017 A 
HETATM   22  N   UNL     1      43.669 -16.419   4.689  1.00  0.00    -0.231 NA
HETATM   23  C   UNL     1      43.829 -18.093   3.049  1.00  0.00     0.032 A 
HETATM   24  C   UNL     1      43.896 -19.435   2.659  1.00  0.00     0.002 A 
HETATM   25  C   UNL     1      43.863 -20.435   3.621  1.00  0.00     0.001 A 
BRANCH  18  26
HETATM   26  N   UNL     1      43.503 -19.153   7.756  1.00  0.00    -0.286 NA
HETATM   27  H   UNL     1      43.418 -20.089   7.364  1.00  0.00     0.125 HD
HETATM   28  H   UNL     1      44.333 -19.073   8.332  1.00  0.00     0.125 HD
ENDBRANCH  18  26
ENDBRANCH  15  16
ENDBRANCH   1  15
TORSDOF 7
ENDMDL
MODEL 7
REMARK VINA RESULT:      -7.1      1.569      2.527
REMARK  7 active torsions:
REMARK  status: ('A' for Active; 'I' for Inactive)
REMARK    1  A    between atoms: C_2  and  N_3 
REMARK    2  A    between atoms: C_6  and  C_7 
REMARK    3  A    between atoms: C_7  and  O_8 
REMARK    4  A    between atoms: O_8  and  C_9 
REMARK    5  A    between atoms: C_9  and  C_10 
REMARK    6  A    between atoms: C_12  and  N_13 
REMARK    7  A    between atoms: C_22  and  N_23 
ROOT
HETATM    1  O   UNL     1      43.474 -12.148   7.042  1.00  0.00    -0.310 OA
ENDROOT
BRANCH   1   2
HETATM    2  C   UNL     1      44.587 -11.358   7.021  1.00  0.00     0.299 C 
HETATM    3  O   UNL     1      45.640 -11.666   6.473  1.00  0.00    -0.259 OA
BRANCH   2   4
HETATM    4  C   UNL     1      44.420 -10.113   7.743  1.00  0.00     0.103 A 
HETATM    5  C   UNL     1      45.424  -9.143   7.964  1.00  0.00     0.160 A 
HETATM    6  N   UNL     1      44.994  -8.098   8.672  1.00  0.00    -0.182 NA
HETATM    7  N   UNL     1      43.712  -8.414   8.960  1.00  0.00    -0.250 N 
HETATM    8  C   UNL     1      43.301  -9.593   8.369  1.00  0.00     0.136 A 
BRANCH   7   9
HETATM    9  C   UNL     1      42.935  -7.531   9.828  1.00  0.00     0.104 C 
HETATM   10  C   UNL     1      43.257  -6.067   9.539  1.00  0.00     0.034 C 
HETATM   11  C   UNL     1      43.121  -7.855  11.313  1.00  0.00     0.034 C 
ENDBRANCH   7   9
BRANCH   8  12
HETATM   12  N   UNL     1      42.037 -10.071   8.466  1.00  0.00    -0.383 N 
HETATM   13  H   UNL     1      41.889 -10.949   8.965  1.00  0.00     0.157 HD
HETATM   14  H   UNL     1      41.351  -9.930   7.730  1.00  0.00     0.157 HD
ENDBRANCH   8  12
ENDBRANCH   2   4
ENDBRANCH   1   2
BRANCH   1  15
HETATM   15  C   UNL     1      42.999 -12.538   5.744  1.00  0.00     0.259 C 
BRANCH  15  16
HETATM   16  C   UNL     1      43.184 -14.007   5.419  1.00  0.00     0.152 A 
HETATM   17  N   UNL     1      43.582 -14.836   6.401  1.00  0.00    -0.219 NA
HETATM   18  C   UNL     1      43.745 -16.123   6.067  1.00  0.00     0.115 A 
HETATM   19  C   UNL     1      43.564 -16.615   4.769  1.00  0.00     0.033 A 
HETATM   20  C   UNL     1      43.170 -15.660   3.826  1.00  0.00     0.072 A 
HETATM   21  C   UNL     1      43.756 -17.961   4.371  1.00  0.00     0.017 A 
HETATM   22  N   UNL     1      42.989 -14.373   4.137  1.00  0.00    -0.231 NA
HETATM   23  C   UNL     1      42.964 -16.072   2.515  1.00  0.00     0.032 A 
HETATM   24  C   UNL     1      43.142 -17.401   2.119  1.00  0.00     0.002 A 
HETATM   25  C   UNL     1      43.543 -18.349   3.050  1.00  0.00     0.001 A 
BRANCH  18  26
HETATM   26  N   UNL     1      44.132 -16.959   7.123  1.00  0.00    -0.286 NA
HETATM   27  H   UNL     1      43.667 -16.608   7.958  1.00  0.00     0.125 HD
HETATM   28  H   UNL     1      43.870 -17.920   6.935  1.00  0.00     0.125 HD
ENDBRANCH  18  26
ENDBRANCH  15  16
ENDBRANCH   1  15
TORSDOF 7
ENDMDL
MODEL 8
REMARK VINA RESULT:      -6.9      3.149      4.527
REMARK  7 active torsions:
REMARK  status: ('A' for Active; 'I' for Inactive)
REMARK    1  A    between atoms: C_2  and  N_3 
REMARK    2  A    between atoms: C_6  and  C_7 
REMARK    3  A    between atoms: C_7  and  O_8 
REMARK    4  A    between atoms: O_8  and  C_9 
REMARK    5  A    between atoms: C_9  and  C_10 
REMARK    6  A    between atoms: C_12  and  N_13 
REMARK    7  A    between atoms: C_22  and  N_23 
ROOT
HETATM    1  O   UNL     1      42.676 -14.118   6.002  1.00  0.00    -0.310 OA
ENDROOT
BRANCH   1   2
HETATM    2  C   UNL     1      43.148 -12.864   5.742  1.00  0.00     0.299 C 
HETATM    3  O   UNL     1      44.134 -12.374   6.280  1.00  0.00    -0.259 OA
BRANCH   2   4
HETATM    4  C   UNL     1      42.347 -12.138   4.777  1.00  0.00     0.103 A 
HETATM    5  C   UNL     1      41.465 -11.072   5.067  1.00  0.00     0.160 A 
HETATM    6  N   UNL     1      40.846 -10.597   3.985  1.00  0.00    -0.182 NA
HETATM    7  N   UNL     1      41.289 -11.394   2.989  1.00  0.00    -0.250 N 
HETATM    8  C   UNL     1      42.245 -12.301   3.406  1.00  0.00     0.136 A 
BRANCH   7   9
HETATM    9  C   UNL     1      40.738 -11.233   1.644  1.00  0.00     0.104 C 
HETATM   10  C   UNL     1      41.556 -10.224   0.841  1.00  0.00     0.034 C 
HETATM   11  C   UNL     1      39.254 -10.855   1.660  1.00  0.00     0.034 C 
ENDBRANCH   7   9
BRANCH   8  12
HETATM   12  N   UNL     1      42.877 -13.154   2.566  1.00  0.00    -0.383 N 
HETATM   13  H   UNL     1      42.751 -14.157   2.709  1.00  0.00     0.157 HD
HETATM   14  H   UNL     1      43.784 -12.938   2.161  1.00  0.00     0.157 HD
ENDBRANCH   8  12
ENDBRANCH   2   4
ENDBRANCH   1   2
BRANCH   1  15
HETATM   15  C   UNL     1      43.691 -15.131   6.069  1.00  0.00     0.259 C 
BRANCH  15  16
HETATM   16  C   UNL     1      43.613 -16.176   4.974  1.00  0.00     0.152 A 
HETATM   17  N   UNL     1      43.253 -15.785   3.738  1.00  0.00    -0.219 NA
HETATM   18  C   UNL     1      43.186 -16.743   2.803  1.00  0.00     0.115 A 
HETATM   19  C   UNL     1      43.425 -18.097   3.065  1.00  0.00     0.033 A 
HETATM   20  C   UNL     1      43.771 -18.391   4.388  1.00  0.00     0.072 A 
HETATM   21  C   UNL     1      43.333 -19.141   2.112  1.00  0.00     0.017 A 
HETATM   22  N   UNL     1      43.858 -17.451   5.335  1.00  0.00    -0.231 NA
HETATM   23  C   UNL     1      44.030 -19.713   4.725  1.00  0.00     0.032 A 
HETATM   24  C   UNL     1      43.951 -20.747   3.786  1.00  0.00     0.002 A 
HETATM   25  C   UNL     1      43.598 -20.460   2.475  1.00  0.00     0.001 A 
BRANCH  18  26
HETATM   26  N   UNL     1      42.835 -16.290   1.524  1.00  0.00    -0.286 NA
HETATM   27  H   UNL     1      42.887 -15.274   1.550  1.00  0.00     0.125 HD
HETATM   28  H   UNL     1      43.463 -16.671   0.825  1.00  0.00     0.125 HD
ENDBRANCH  18  26
ENDBRANCH  15  16
ENDBRANCH   1  15
TORSDOF 7
ENDMDL
MODEL 9
REMARK VINA RESULT:      -6.9     22.717     23.585
REMARK  7 active torsions:
REMARK  status: ('A' for Active; 'I' for Inactive)
REMARK    1  A    between atoms: C_2  and  N_3 
REMARK    2  A    between atoms: C_6  and  C_7 
REMARK    3  A    between atoms: C_7  and  O_8 
REMARK    4  A    between atoms: O_8  and  C_9 
REMARK    5  A    between atoms: C_9  and  C_10 
REMARK    6  A    between atoms: C_12  and  N_13 
REMARK    7  A    between atoms: C_22  and  N_23 
ROOT
HETATM    1  O   UNL     1      31.129 -30.678  14.962  1.00  0.00    -0.310 OA
ENDROOT
BRANCH   1   2
HETATM    2  C   UNL     1      30.982 -30.210  16.235  1.00  0.00     0.299 C 
HETATM    3  O   UNL     1      29.931 -29.777  16.693  1.00  0.00    -0.259 OA
BRANCH   2   4
HETATM    4  C   UNL     1      32.210 -30.245  17.004  1.00  0.00     0.103 A 
HETATM    5  C   UNL     1      33.462 -30.715  16.546  1.00  0.00     0.160 A 
HETATM    6  N   UNL     1      34.419 -30.641  17.471  1.00  0.00    -0.182 NA
HETATM    7  N   UNL     1      33.774 -30.168  18.560  1.00  0.00    -0.250 N 
HETATM    8  C   UNL     1      32.451 -29.854  18.310  1.00  0.00     0.136 A 
BRANCH   7   9
HETATM    9  C   UNL     1      34.497 -30.049  19.825  1.00  0.00     0.104 C 
HETATM   10  C   UNL     1      35.751 -29.195  19.654  1.00  0.00     0.034 C 
HETATM   11  C   UNL     1      34.834 -31.411  20.438  1.00  0.00     0.034 C 
ENDBRANCH   7   9
BRANCH   8  12
HETATM   12  N   UNL     1      31.631 -29.303  19.236  1.00  0.00    -0.383 N 
HETATM   13  H   UNL     1      30.957 -28.600  18.927  1.00  0.00     0.157 HD
HETATM   14  H   UNL     1      31.928 -29.151  20.196  1.00  0.00     0.157 HD
ENDBRANCH   8  12
ENDBRANCH   2   4
ENDBRANCH   1   2
BRANCH   1  15
HETATM   15  C   UNL     1      30.252 -31.764  14.624  1.00  0.00     0.259 C 
BRANCH  15  16
HETATM   16  C   UNL     1      30.748 -32.652  13.501  1.00  0.00     0.152 A 
HETATM   17  N   UNL     1      29.874 -33.036  12.553  1.00  0.00    -0.219 NA
HETATM   18  C   UNL     1      30.351 -33.831  11.586  1.00  0.00     0.115 A 
HETATM   19  C   UNL     1      31.670 -34.297  11.548  1.00  0.00     0.033 A 
HETATM   20  C   UNL     1      32.484 -33.850  12.594  1.00  0.00     0.072 A 
HETATM   21  C   UNL     1      32.203 -35.161  10.560  1.00  0.00     0.017 A 
HETATM   22  N   UNL     1      32.034 -33.047  13.564  1.00  0.00    -0.231 NA
HETATM   23  C   UNL     1      33.810 -34.264  12.624  1.00  0.00     0.032 A 
HETATM   24  C   UNL     1      34.344 -35.110  11.646  1.00  0.00     0.002 A 
HETATM   25  C   UNL     1      33.537 -35.562  10.611  1.00  0.00     0.001 A 
BRANCH  18  26
HETATM   26  N   UNL     1      29.417 -34.185  10.603  1.00  0.00    -0.286 NA
HETATM   27  H   UNL     1      28.874 -34.958  10.982  1.00  0.00     0.125 HD
HETATM   28  H   UNL     1      28.821 -33.397  10.375  1.00  0.00     0.125 HD
ENDBRANCH  18  26
ENDBRANCH  15  16
ENDBRANCH   1  15
TORSDOF 7
ENDMDL
MODEL 10
REMARK VINA RESULT:      -6.8      1.661      7.919
REMARK  7 active torsions:
REMARK  status: ('A' for Active; 'I' for Inactive)
REMARK    1  A    between atoms: C_2  and  N_3 
REMARK    2  A    between atoms: C_6  and  C_7 
REMARK    3  A    between atoms: C_7  and  O_8 
REMARK    4  A    between atoms: O_8  and  C_9 
REMARK    5  A    between atoms: C_9  and  C_10 
REMARK    6  A    between atoms: C_12  and  N_13 
REMARK    7  A    between atoms: C_22  and  N_23 
ROOT
HETATM    1  O   UNL     1      42.346 -12.374   4.101  1.00  0.00    -0.310 OA
ENDROOT
BRANCH   1   2
HETATM    2  C   UNL     1      41.354 -13.291   4.289  1.00  0.00     0.299 C 
HETATM    3  O   UNL     1      40.177 -13.005   4.476  1.00  0.00    -0.259 OA
BRANCH   2   4
HETATM    4  C   UNL     1      41.829 -14.660   4.278  1.00  0.00     0.103 A 
HETATM    5  C   UNL     1      41.486 -15.664   5.212  1.00  0.00     0.160 A 
HETATM    6  N   UNL     1      42.081 -16.832   4.967  1.00  0.00    -0.182 NA
HETATM    7  N   UNL     1      42.860 -16.574   3.894  1.00  0.00    -0.250 N 
HETATM    8  C   UNL     1      42.696 -15.292   3.403  1.00  0.00     0.136 A 
BRANCH   7   9
HETATM    9  C   UNL     1      43.755 -17.615   3.392  1.00  0.00     0.104 C 
HETATM   10  C   UNL     1      43.056 -18.468   2.336  1.00  0.00     0.034 C 
HETATM   11  C   UNL     1      44.331 -18.484   4.513  1.00  0.00     0.034 C 
ENDBRANCH   7   9
BRANCH   8  12
HETATM   12  N   UNL     1      43.324 -14.835   2.294  1.00  0.00    -0.383 N 
HETATM   13  H   UNL     1      43.430 -13.826   2.179  1.00  0.00     0.157 HD
HETATM   14  H   UNL     1      43.258 -15.316   1.401  1.00  0.00     0.157 HD
ENDBRANCH   8  12
ENDBRANCH   2   4
ENDBRANCH   1   2
BRANCH   1  15
HETATM   15  C   UNL     1      42.151 -11.136   4.802  1.00  0.00     0.259 C 
BRANCH  15  16
HETATM   16  C   UNL     1      43.164 -10.863   5.896  1.00  0.00     0.152 A 
HETATM   17  N   UNL     1      44.459 -11.138   5.654  1.00  0.00    -0.219 NA
HETATM   18  C   UNL     1      45.319 -10.893   6.652  1.00  0.00     0.115 A 
HETATM   19  C   UNL     1      44.929 -10.418   7.909  1.00  0.00     0.033 A 
HETATM   20  C   UNL     1      43.557 -10.187   8.054  1.00  0.00     0.072 A 
HETATM   21  C   UNL     1      45.803 -10.176   8.998  1.00  0.00     0.017 A 
HETATM   22  N   UNL     1      42.682 -10.411   7.070  1.00  0.00    -0.231 NA
HETATM   23  C   UNL     1      43.093  -9.708   9.273  1.00  0.00     0.032 A 
HETATM   24  C   UNL     1      43.953  -9.458  10.347  1.00  0.00     0.002 A 
HETATM   25  C   UNL     1      45.313  -9.696  10.210  1.00  0.00     0.001 A 
BRANCH  18  26
HETATM   26  N   UNL     1      46.660 -11.167   6.351  1.00  0.00    -0.286 NA
HETATM   27  H   UNL     1      46.661 -11.980   5.738  1.00  0.00     0.125 HD
HETATM   28  H   UNL     1      47.096 -10.370   5.902  1.00  0.00     0.125 HD
ENDBRANCH  18  26
ENDBRANCH  15  16
ENDBRANCH   1  15
TORSDOF 7
ENDMDL
