MODEL 1
REMARK VINA RESULT:      -8.7      0.000      0.000
REMARK  5 active torsions:
REMARK  status: ('A' for Active; 'I' for Inactive)
REMARK    1  A    between atoms: O_2  and  C_3 
REMARK    2  A    between atoms: C_7  and  C_9 
REMARK    3  A    between atoms: C_9  and  N_11 
REMARK       I    between atoms: N_11  and  C_12 
REMARK    4  A    between atoms: C_12  and  C_14 
REMARK    5  A    between atoms: C_17  and  C_20 
ROOT
HETATM    1  N   UNL     1      41.620 -12.343   1.757  1.00  0.00    -0.349 N 
HETATM    2  C   UNL     1      42.691 -12.653   2.564  1.00  0.00     0.252 C 
HETATM    3  O   UNL     1      43.437 -11.826   3.073  1.00  0.00    -0.268 OA
HETATM    4  H   UNL     1      41.195 -13.083   1.214  1.00  0.00     0.163 HD
ENDROOT
BRANCH   2   5
HETATM    5  C   UNL     1      42.934 -14.105   2.753  1.00  0.00     0.032 A 
HETATM    6  C   UNL     1      43.277 -14.881   1.645  1.00  0.00     0.018 A 
HETATM    7  C   UNL     1      43.471 -16.258   1.791  1.00  0.00     0.013 A 
HETATM    8  C   UNL     1      43.348 -16.887   3.046  1.00  0.00    -0.023 A 
HETATM    9  C   UNL     1      43.035 -16.076   4.152  1.00  0.00     0.013 A 
HETATM   10  C   UNL     1      42.827 -14.700   4.012  1.00  0.00     0.018 A 
BRANCH   8  11
HETATM   11  C   UNL     1      43.543 -18.342   3.195  1.00  0.00     0.016 A 
HETATM   12  C   UNL     1      43.184 -19.233   2.171  1.00  0.00     0.034 A 
HETATM   13  C   UNL     1      43.376 -20.597   2.349  1.00  0.00     0.117 A 
HETATM   14  N   UNL     1      43.901 -21.143   3.466  1.00  0.00    -0.270 NA
HETATM   15  C   UNL     1      44.245 -20.278   4.447  1.00  0.00     0.159 A 
HETATM   16  C   UNL     1      44.088 -18.904   4.356  1.00  0.00     0.144 A 
HETATM   17  F   UNL     1      44.454 -18.139   5.395  1.00  0.00    -0.204 F 
ENDBRANCH   8  11
ENDBRANCH   2   5
BRANCH   1  18
HETATM   18  C   UNL     1      41.289 -10.970   1.407  1.00  0.00     0.114 C 
HETATM   19  C   UNL     1      40.043 -10.491   2.156  1.00  0.00     0.037 C 
BRANCH  18  20
HETATM   20  C   UNL     1      41.119 -10.848  -0.098  1.00  0.00    -0.033 A 
HETATM   21  C   UNL     1      41.142  -9.582  -0.701  1.00  0.00     0.009 A 
HETATM   22  C   UNL     1      41.007  -9.454  -2.082  1.00  0.00     0.003 A 
HETATM   23  C   UNL     1      40.859 -10.591  -2.875  1.00  0.00     0.037 A 
HETATM   24  C   UNL     1      40.847 -11.862  -2.300  1.00  0.00     0.068 A 
HETATM   25  C   UNL     1      40.965 -11.986  -0.914  1.00  0.00     0.046 A 
BRANCH  24  26
HETATM   26  O   UNL     1      40.712 -12.892  -3.191  1.00  0.00    -0.356 OA
HETATM   27  C   UNL     1      39.944 -14.011  -2.767  1.00  0.00     0.210 C 
ENDBRANCH  24  26
ENDBRANCH  18  20
ENDBRANCH   1  18
TORSDOF 5
ENDMDL
MODEL 2
REMARK VINA RESULT:      -8.3      3.567      8.645
REMARK  5 active torsions:
REMARK  status: ('A' for Active; 'I' for Inactive)
REMARK    1  A    between atoms: O_2  and  C_3 
REMARK    2  A    between atoms: C_7  and  C_9 
REMARK    3  A    between atoms: C_9  and  N_11 
REMARK       I    between atoms: N_11  and  C_12 
REMARK    4  A    between atoms: C_12  and  C_14 
REMARK    5  A    between atoms: C_17  and  C_20 
ROOT
HETATM    1  N   UNL     1      42.752 -16.089   4.602  1.00  0.00    -0.349 N 
HETATM    2  C   UNL     1      41.398 -15.941   4.407  1.00  0.00     0.252 C 
HETATM    3  O   UNL     1      40.539 -16.348   5.177  1.00  0.00    -0.268 OA
HETATM    4  H   UNL     1      43.374 -15.916   3.824  1.00  0.00     0.163 HD
ENDROOT
BRANCH   2   5
HETATM    5  C   UNL     1      41.017 -15.276   3.135  1.00  0.00     0.032 A 
HETATM    6  C   UNL     1      40.109 -14.217   3.175  1.00  0.00     0.018 A 
HETATM    7  C   UNL     1      39.703 -13.601   1.986  1.00  0.00     0.013 A 
HETATM    8  C   UNL     1      40.208 -14.014   0.738  1.00  0.00    -0.023 A 
HETATM    9  C   UNL     1      41.147 -15.062   0.729  1.00  0.00     0.013 A 
HETATM   10  C   UNL     1      41.549 -15.691   1.912  1.00  0.00     0.018 A 
BRANCH   8  11
HETATM   11  C   UNL     1      39.769 -13.371  -0.517  1.00  0.00     0.016 A 
HETATM   12  C   UNL     1      39.926 -11.990  -0.719  1.00  0.00     0.034 A 
HETATM   13  C   UNL     1      39.497 -11.418  -1.910  1.00  0.00     0.117 A 
HETATM   14  N   UNL     1      38.927 -12.114  -2.916  1.00  0.00    -0.270 NA
HETATM   15  C   UNL     1      38.781 -13.443  -2.714  1.00  0.00     0.159 A 
HETATM   16  C   UNL     1      39.179 -14.097  -1.558  1.00  0.00     0.144 A 
HETATM   17  F   UNL     1      38.978 -15.419  -1.458  1.00  0.00    -0.204 F 
ENDBRANCH   8  11
ENDBRANCH   2   5
BRANCH   1  18
HETATM   18  C   UNL     1      43.293 -16.785   5.759  1.00  0.00     0.114 C 
HETATM   19  C   UNL     1      44.563 -16.103   6.275  1.00  0.00     0.037 C 
BRANCH  18  20
HETATM   20  C   UNL     1      43.543 -18.244   5.413  1.00  0.00    -0.033 A 
HETATM   21  C   UNL     1      43.493 -19.217   6.421  1.00  0.00     0.009 A 
HETATM   22  C   UNL     1      43.700 -20.561   6.118  1.00  0.00     0.003 A 
HETATM   23  C   UNL     1      43.949 -20.947   4.801  1.00  0.00     0.037 A 
HETATM   24  C   UNL     1      43.989 -19.999   3.778  1.00  0.00     0.068 A 
HETATM   25  C   UNL     1      43.799 -18.650   4.088  1.00  0.00     0.046 A 
BRANCH  24  26
HETATM   26  O   UNL     1      44.225 -20.511   2.532  1.00  0.00    -0.356 OA
HETATM   27  C   UNL     1      43.222 -20.292   1.548  1.00  0.00     0.210 C 
ENDBRANCH  24  26
ENDBRANCH  18  20
ENDBRANCH   1  18
TORSDOF 5
ENDMDL
MODEL 3
REMARK VINA RESULT:      -8.2      2.436      3.003
REMARK  5 active torsions:
REMARK  status: ('A' for Active; 'I' for Inactive)
REMARK    1  A    between atoms: O_2  and  C_3 
REMARK    2  A    between atoms: C_7  and  C_9 
REMARK    3  A    between atoms: C_9  and  N_11 
REMARK       I    between atoms: N_11  and  C_12 
REMARK    4  A    between atoms: C_12  and  C_14 
REMARK    5  A    between atoms: C_17  and  C_20 
ROOT
HETATM    1  N   UNL     1      39.691 -13.177   1.017  1.00  0.00    -0.349 N 
HETATM    2  C   UNL     1      41.003 -13.144   1.434  1.00  0.00     0.252 C 
HETATM    3  O   UNL     1      41.690 -12.132   1.475  1.00  0.00    -0.268 OA
HETATM    4  H   UNL     1      39.272 -14.076   0.815  1.00  0.00     0.163 HD
ENDROOT
BRANCH   2   5
HETATM    5  C   UNL     1      41.579 -14.462   1.799  1.00  0.00     0.032 A 
HETATM    6  C   UNL     1      40.756 -15.413   2.405  1.00  0.00     0.018 A 
HETATM    7  C   UNL     1      41.287 -16.647   2.795  1.00  0.00     0.013 A 
HETATM    8  C   UNL     1      42.640 -16.966   2.573  1.00  0.00    -0.023 A 
HETATM    9  C   UNL     1      43.440 -16.003   1.931  1.00  0.00     0.013 A 
HETATM   10  C   UNL     1      42.920 -14.761   1.548  1.00  0.00     0.018 A 
BRANCH   8  11
HETATM   11  C   UNL     1      43.200 -18.265   2.997  1.00  0.00     0.016 A 
HETATM   12  C   UNL     1      43.142 -19.390   2.158  1.00  0.00     0.034 A 
HETATM   13  C   UNL     1      43.675 -20.597   2.592  1.00  0.00     0.117 A 
HETATM   14  N   UNL     1      44.262 -20.771   3.795  1.00  0.00    -0.270 NA
HETATM   15  C   UNL     1      44.315 -19.682   4.596  1.00  0.00     0.159 A 
HETATM   16  C   UNL     1      43.809 -18.440   4.245  1.00  0.00     0.144 A 
HETATM   17  F   UNL     1      43.905 -17.429   5.121  1.00  0.00    -0.204 F 
ENDBRANCH   8  11
ENDBRANCH   2   5
BRANCH   1  18
HETATM   18  C   UNL     1      38.998 -11.986   0.552  1.00  0.00     0.114 C 
HETATM   19  C   UNL     1      37.998 -11.482   1.595  1.00  0.00     0.037 C 
BRANCH  18  20
HETATM   20  C   UNL     1      38.323 -12.270  -0.780  1.00  0.00    -0.033 A 
HETATM   21  C   UNL     1      38.577 -13.477  -1.446  1.00  0.00     0.009 A 
HETATM   22  C   UNL     1      37.952 -13.761  -2.659  1.00  0.00     0.003 A 
HETATM   23  C   UNL     1      37.058 -12.845  -3.212  1.00  0.00     0.037 A 
HETATM   24  C   UNL     1      36.778 -11.643  -2.560  1.00  0.00     0.068 A 
HETATM   25  C   UNL     1      37.420 -11.353  -1.355  1.00  0.00     0.046 A 
BRANCH  24  26
HETATM   26  O   UNL     1      35.873 -10.843  -3.201  1.00  0.00    -0.356 OA
HETATM   27  C   UNL     1      35.508  -9.634  -2.546  1.00  0.00     0.210 C 
ENDBRANCH  24  26
ENDBRANCH  18  20
ENDBRANCH   1  18
TORSDOF 5
ENDMDL
MODEL 4
REMARK VINA RESULT:      -8.2      4.212      6.843
REMARK  5 active torsions:
REMARK  status: ('A' for Active; 'I' for Inactive)
REMARK    1  A    between atoms: O_2  and  C_3 
REMARK    2  A    between atoms: C_7  and  C_9 
REMARK    3  A    between atoms: C_9  and  N_11 
REMARK       I    between atoms: N_11  and  C_12 
REMARK    4  A    between atoms: C_12  and  C_14 
REMARK    5  A    between atoms: C_17  and  C_20 
ROOT
HETATM    1  N   UNL     1      42.720 -12.398   5.609  1.00  0.00    -0.349 N 
HETATM    2  C   UNL     1      41.676 -13.215   5.241  1.00  0.00     0.252 C 
HETATM    3  O   UNL     1      40.494 -12.905   5.317  1.00  0.00    -0.268 OA
HETATM    4  H   UNL     1      43.640 -12.808   5.713  1.00  0.00     0.163 HD
ENDROOT
BRANCH   2   5
HETATM    5  C   UNL     1      42.071 -14.567   4.773  1.00  0.00     0.032 A 
HETATM    6  C   UNL     1      41.605 -15.684   5.469  1.00  0.00     0.018 A 
HETATM    7  C   UNL     1      41.998 -16.967   5.071  1.00  0.00     0.013 A 
HETATM    8  C   UNL     1      42.843 -17.164   3.963  1.00  0.00    -0.023 A 
HETATM    9  C   UNL     1      43.272 -16.024   3.259  1.00  0.00     0.013 A 
HETATM   10  C   UNL     1      42.894 -14.737   3.657  1.00  0.00     0.018 A 
BRANCH   8  11
HETATM   11  C   UNL     1      43.265 -18.518   3.553  1.00  0.00     0.016 A 
HETATM   12  C   UNL     1      43.064 -18.976   2.241  1.00  0.00     0.034 A 
HETATM   13  C   UNL     1      43.469 -20.259   1.892  1.00  0.00     0.117 A 
HETATM   14  N   UNL     1      44.060 -21.119   2.747  1.00  0.00    -0.270 NA
HETATM   15  C   UNL     1      44.251 -20.670   4.008  1.00  0.00     0.159 A 
HETATM   16  C   UNL     1      43.879 -19.408   4.443  1.00  0.00     0.144 A 
HETATM   17  F   UNL     1      44.107 -19.068   5.720  1.00  0.00    -0.204 F 
ENDBRANCH   8  11
ENDBRANCH   2   5
BRANCH   1  18
HETATM   18  C   UNL     1      42.504 -11.070   6.160  1.00  0.00     0.114 C 
HETATM   19  C   UNL     1      42.351 -10.026   5.051  1.00  0.00     0.037 C 
BRANCH  18  20
HETATM   20  C   UNL     1      43.636 -10.716   7.110  1.00  0.00    -0.033 A 
HETATM   21  C   UNL     1      44.960 -11.018   6.760  1.00  0.00     0.009 A 
HETATM   22  C   UNL     1      46.011 -10.683   7.612  1.00  0.00     0.003 A 
HETATM   23  C   UNL     1      45.750 -10.033   8.817  1.00  0.00     0.037 A 
HETATM   24  C   UNL     1      44.442  -9.708   9.181  1.00  0.00     0.068 A 
HETATM   25  C   UNL     1      43.389 -10.062   8.334  1.00  0.00     0.046 A 
BRANCH  24  26
HETATM   26  O   UNL     1      44.327  -9.057  10.378  1.00  0.00    -0.356 OA
HETATM   27  C   UNL     1      43.430  -9.618  11.329  1.00  0.00     0.210 C 
ENDBRANCH  24  26
ENDBRANCH  18  20
ENDBRANCH   1  18
TORSDOF 5
ENDMDL
MODEL 5
REMARK VINA RESULT:      -8.2      1.361      2.084
REMARK  5 active torsions:
REMARK  status: ('A' for Active; 'I' for Inactive)
REMARK    1  A    between atoms: O_2  and  C_3 
REMARK    2  A    between atoms: C_7  and  C_9 
REMARK    3  A    between atoms: C_9  and  N_11 
REMARK       I    between atoms: N_11  and  C_12 
REMARK    4  A    between atoms: C_12  and  C_14 
REMARK    5  A    between atoms: C_17  and  C_20 
ROOT
HETATM    1  N   UNL     1      40.915 -12.428   2.330  1.00  0.00    -0.349 N 
HETATM    2  C   UNL     1      42.219 -12.697   2.680  1.00  0.00     0.252 C 
HETATM    3  O   UNL     1      43.086 -11.845   2.828  1.00  0.00    -0.268 OA
HETATM    4  H   UNL     1      40.330 -13.195   2.024  1.00  0.00     0.163 HD
ENDROOT
BRANCH   2   5
HETATM    5  C   UNL     1      42.546 -14.138   2.826  1.00  0.00     0.032 A 
HETATM    6  C   UNL     1      43.234 -14.780   1.796  1.00  0.00     0.018 A 
HETATM    7  C   UNL     1      43.517 -16.147   1.893  1.00  0.00     0.013 A 
HETATM    8  C   UNL     1      43.139 -16.895   3.025  1.00  0.00    -0.023 A 
HETATM    9  C   UNL     1      42.476 -16.216   4.063  1.00  0.00     0.013 A 
HETATM   10  C   UNL     1      42.178 -14.852   3.969  1.00  0.00     0.018 A 
BRANCH   8  11
HETATM   11  C   UNL     1      43.429 -18.339   3.120  1.00  0.00     0.016 A 
HETATM   12  C   UNL     1      43.090 -19.219   2.079  1.00  0.00     0.034 A 
HETATM   13  C   UNL     1      43.374 -20.573   2.206  1.00  0.00     0.117 A 
HETATM   14  N   UNL     1      43.970 -21.119   3.286  1.00  0.00    -0.270 NA
HETATM   15  C   UNL     1      44.295 -20.265   4.283  1.00  0.00     0.159 A 
HETATM   16  C   UNL     1      44.049 -18.901   4.243  1.00  0.00     0.144 A 
HETATM   17  F   UNL     1      44.404 -18.146   5.293  1.00  0.00    -0.204 F 
ENDBRANCH   8  11
ENDBRANCH   2   5
BRANCH   1  18
HETATM   18  C   UNL     1      40.448 -11.075   2.073  1.00  0.00     0.114 C 
HETATM   19  C   UNL     1      38.966 -10.923   2.421  1.00  0.00     0.037 C 
BRANCH  18  20
HETATM   20  C   UNL     1      40.725 -10.700   0.626  1.00  0.00    -0.033 A 
HETATM   21  C   UNL     1      39.908 -11.208  -0.394  1.00  0.00     0.009 A 
HETATM   22  C   UNL     1      40.136 -10.859  -1.723  1.00  0.00     0.003 A 
HETATM   23  C   UNL     1      41.178  -9.990  -2.045  1.00  0.00     0.037 A 
HETATM   24  C   UNL     1      41.997  -9.461  -1.047  1.00  0.00     0.068 A 
HETATM   25  C   UNL     1      41.776  -9.827   0.283  1.00  0.00     0.046 A 
BRANCH  24  26
HETATM   26  O   UNL     1      42.968  -8.610  -1.496  1.00  0.00    -0.356 OA
HETATM   27  C   UNL     1      42.890  -7.258  -1.060  1.00  0.00     0.210 C 
ENDBRANCH  24  26
ENDBRANCH  18  20
ENDBRANCH   1  18
TORSDOF 5
ENDMDL
MODEL 6
REMARK VINA RESULT:      -8.1      8.382     11.168
REMARK  5 active torsions:
REMARK  status: ('A' for Active; 'I' for Inactive)
REMARK    1  A    between atoms: O_2  and  C_3 
REMARK    2  A    between atoms: C_7  and  C_9 
REMARK    3  A    between atoms: C_9  and  N_11 
REMARK       I    between atoms: N_11  and  C_12 
REMARK    4  A    between atoms: C_12  and  C_14 
REMARK    5  A    between atoms: C_17  and  C_20 
ROOT
HETATM    1  N   UNL     1      43.652 -11.635   7.886  1.00  0.00    -0.349 N 
HETATM    2  C   UNL     1      44.554 -10.889   8.609  1.00  0.00     0.252 C 
HETATM    3  O   UNL     1      45.731 -10.742   8.307  1.00  0.00    -0.268 OA
HETATM    4  H   UNL     1      42.768 -11.874   8.317  1.00  0.00     0.163 HD
ENDROOT
BRANCH   2   5
HETATM    5  C   UNL     1      44.015 -10.285   9.854  1.00  0.00     0.032 A 
HETATM    6  C   UNL     1      43.728  -8.919   9.870  1.00  0.00     0.018 A 
HETATM    7  C   UNL     1      43.257  -8.320  11.043  1.00  0.00     0.013 A 
HETATM    8  C   UNL     1      43.044  -9.071  12.216  1.00  0.00    -0.023 A 
HETATM    9  C   UNL     1      43.310 -10.451  12.162  1.00  0.00     0.013 A 
HETATM   10  C   UNL     1      43.793 -11.056  10.997  1.00  0.00     0.018 A 
BRANCH   8  11
HETATM   11  C   UNL     1      42.558  -8.433  13.455  1.00  0.00     0.016 A 
HETATM   12  C   UNL     1      43.233  -7.342  14.025  1.00  0.00     0.034 A 
HETATM   13  C   UNL     1      42.750  -6.771  15.195  1.00  0.00     0.117 A 
HETATM   14  N   UNL     1      41.646  -7.200  15.841  1.00  0.00    -0.270 NA
HETATM   15  C   UNL     1      41.001  -8.251  15.286  1.00  0.00     0.159 A 
HETATM   16  C   UNL     1      41.411  -8.882  14.122  1.00  0.00     0.144 A 
HETATM   17  F   UNL     1      40.702  -9.924  13.663  1.00  0.00    -0.204 F 
ENDBRANCH   8  11
ENDBRANCH   2   5
BRANCH   1  18
HETATM   18  C   UNL     1      44.035 -12.356   6.683  1.00  0.00     0.114 C 
HETATM   19  C   UNL     1      43.950 -11.459   5.446  1.00  0.00     0.037 C 
BRANCH  18  20
HETATM   20  C   UNL     1      43.176 -13.601   6.531  1.00  0.00    -0.033 A 
HETATM   21  C   UNL     1      43.231 -14.608   7.506  1.00  0.00     0.009 A 
HETATM   22  C   UNL     1      42.436 -15.746   7.392  1.00  0.00     0.003 A 
HETATM   23  C   UNL     1      41.570 -15.885   6.308  1.00  0.00     0.037 A 
HETATM   24  C   UNL     1      41.487 -14.890   5.333  1.00  0.00     0.068 A 
HETATM   25  C   UNL     1      42.299 -13.758   5.440  1.00  0.00     0.046 A 
BRANCH  24  26
HETATM   26  O   UNL     1      40.587 -15.142   4.334  1.00  0.00    -0.356 OA
HETATM   27  C   UNL     1      40.917 -16.181   3.421  1.00  0.00     0.210 C 
ENDBRANCH  24  26
ENDBRANCH  18  20
ENDBRANCH   1  18
TORSDOF 5
ENDMDL
MODEL 7
REMARK VINA RESULT:      -8.1      5.734      8.929
REMARK  5 active torsions:
REMARK  status: ('A' for Active; 'I' for Inactive)
REMARK    1  A    between atoms: O_2  and  C_3 
REMARK    2  A    between atoms: C_7  and  C_9 
REMARK    3  A    between atoms: C_9  and  N_11 
REMARK       I    between atoms: N_11  and  C_12 
REMARK    4  A    between atoms: C_12  and  C_14 
REMARK    5  A    between atoms: C_17  and  C_20 
ROOT
HETATM    1  N   UNL     1      42.985 -12.787   4.000  1.00  0.00    -0.349 N 
HETATM    2  C   UNL     1      43.883 -11.789   4.302  1.00  0.00     0.252 C 
HETATM    3  O   UNL     1      44.758 -11.391   3.544  1.00  0.00    -0.268 OA
HETATM    4  H   UNL     1      42.444 -13.193   4.752  1.00  0.00     0.163 HD
ENDROOT
BRANCH   2   5
HETATM    5  C   UNL     1      43.763 -11.230   5.673  1.00  0.00     0.032 A 
HETATM    6  C   UNL     1      44.795 -11.455   6.585  1.00  0.00     0.018 A 
HETATM    7  C   UNL     1      44.686 -10.973   7.894  1.00  0.00     0.013 A 
HETATM    8  C   UNL     1      43.558 -10.242   8.314  1.00  0.00    -0.023 A 
HETATM    9  C   UNL     1      42.547 -10.002   7.365  1.00  0.00     0.013 A 
HETATM   10  C   UNL     1      42.642 -10.490   6.058  1.00  0.00     0.018 A 
BRANCH   8  11
HETATM   11  C   UNL     1      43.440  -9.745   9.699  1.00  0.00     0.016 A 
HETATM   12  C   UNL     1      43.336 -10.631  10.783  1.00  0.00     0.034 A 
HETATM   13  C   UNL     1      43.221 -10.127  12.073  1.00  0.00     0.117 A 
HETATM   14  N   UNL     1      43.205  -8.810  12.367  1.00  0.00    -0.270 NA
HETATM   15  C   UNL     1      43.307  -7.963  11.317  1.00  0.00     0.159 A 
HETATM   16  C   UNL     1      43.424  -8.377  10.000  1.00  0.00     0.144 A 
HETATM   17  F   UNL     1      43.510  -7.451   9.033  1.00  0.00    -0.204 F 
ENDBRANCH   8  11
ENDBRANCH   2   5
BRANCH   1  18
HETATM   18  C   UNL     1      43.015 -13.492   2.729  1.00  0.00     0.114 C 
HETATM   19  C   UNL     1      41.820 -13.111   1.853  1.00  0.00     0.037 C 
BRANCH  18  20
HETATM   20  C   UNL     1      43.074 -14.991   2.972  1.00  0.00    -0.033 A 
HETATM   21  C   UNL     1      43.218 -15.868   1.888  1.00  0.00     0.009 A 
HETATM   22  C   UNL     1      43.293 -17.244   2.095  1.00  0.00     0.003 A 
HETATM   23  C   UNL     1      43.236 -17.756   3.391  1.00  0.00     0.037 A 
HETATM   24  C   UNL     1      43.107 -16.903   4.488  1.00  0.00     0.068 A 
HETATM   25  C   UNL     1      43.014 -15.526   4.275  1.00  0.00     0.046 A 
BRANCH  24  26
HETATM   26  O   UNL     1      43.081 -17.532   5.701  1.00  0.00    -0.356 OA
HETATM   27  C   UNL     1      43.940 -17.017   6.711  1.00  0.00     0.210 C 
ENDBRANCH  24  26
ENDBRANCH  18  20
ENDBRANCH   1  18
TORSDOF 5
ENDMDL
MODEL 8
REMARK VINA RESULT:      -8.0      2.269      3.005
REMARK  5 active torsions:
REMARK  status: ('A' for Active; 'I' for Inactive)
REMARK    1  A    between atoms: O_2  and  C_3 
REMARK    2  A    between atoms: C_7  and  C_9 
REMARK    3  A    between atoms: C_9  and  N_11 
REMARK       I    between atoms: N_11  and  C_12 
REMARK    4  A    between atoms: C_12  and  C_14 
REMARK    5  A    between atoms: C_17  and  C_20 
ROOT
HETATM    1  N   UNL     1      39.428 -12.885  -0.208  1.00  0.00    -0.349 N 
HETATM    2  C   UNL     1      39.600 -12.915   1.157  1.00  0.00     0.252 C 
HETATM    3  O   UNL     1      39.158 -12.074   1.929  1.00  0.00    -0.268 OA
HETATM    4  H   UNL     1      40.000 -13.493  -0.780  1.00  0.00     0.163 HD
ENDROOT
BRANCH   2   5
HETATM    5  C   UNL     1      40.426 -14.040   1.662  1.00  0.00     0.032 A 
HETATM    6  C   UNL     1      41.807 -14.005   1.461  1.00  0.00     0.018 A 
HETATM    7  C   UNL     1      42.602 -15.073   1.891  1.00  0.00     0.013 A 
HETATM    8  C   UNL     1      42.041 -16.186   2.546  1.00  0.00    -0.023 A 
HETATM    9  C   UNL     1      40.651 -16.181   2.766  1.00  0.00     0.013 A 
HETATM   10  C   UNL     1      39.847 -15.123   2.328  1.00  0.00     0.018 A 
BRANCH   8  11
HETATM   11  C   UNL     1      42.880 -17.317   2.989  1.00  0.00     0.016 A 
HETATM   12  C   UNL     1      42.941 -18.510   2.251  1.00  0.00     0.034 A 
HETATM   13  C   UNL     1      43.739 -19.555   2.701  1.00  0.00     0.117 A 
HETATM   14  N   UNL     1      44.480 -19.504   3.827  1.00  0.00    -0.270 NA
HETATM   15  C   UNL     1      44.417 -18.351   4.531  1.00  0.00     0.159 A 
HETATM   16  C   UNL     1      43.649 -17.259   4.158  1.00  0.00     0.144 A 
HETATM   17  F   UNL     1      43.652 -16.167   4.937  1.00  0.00    -0.204 F 
ENDBRANCH   8  11
ENDBRANCH   2   5
BRANCH   1  18
HETATM   18  C   UNL     1      38.709 -11.810  -0.872  1.00  0.00     0.114 C 
HETATM   19  C   UNL     1      37.651 -12.358  -1.832  1.00  0.00     0.037 C 
BRANCH  18  20
HETATM   20  C   UNL     1      39.693 -10.896  -1.585  1.00  0.00    -0.033 A 
HETATM   21  C   UNL     1      39.441 -10.497  -2.906  1.00  0.00     0.009 A 
HETATM   22  C   UNL     1      40.323  -9.645  -3.568  1.00  0.00     0.003 A 
HETATM   23  C   UNL     1      41.459  -9.174  -2.912  1.00  0.00     0.037 A 
HETATM   24  C   UNL     1      41.724  -9.545  -1.593  1.00  0.00     0.068 A 
HETATM   25  C   UNL     1      40.848 -10.414  -0.939  1.00  0.00     0.046 A 
BRANCH  24  26
HETATM   26  O   UNL     1      42.861  -9.000  -1.063  1.00  0.00    -0.356 OA
HETATM   27  C   UNL     1      43.068  -7.610  -1.280  1.00  0.00     0.210 C 
ENDBRANCH  24  26
ENDBRANCH  18  20
ENDBRANCH   1  18
TORSDOF 5
ENDMDL
MODEL 9
REMARK VINA RESULT:      -8.0      1.868      2.205
REMARK  5 active torsions:
REMARK  status: ('A' for Active; 'I' for Inactive)
REMARK    1  A    between atoms: O_2  and  C_3 
REMARK    2  A    between atoms: C_7  and  C_9 
REMARK    3  A    between atoms: C_9  and  N_11 
REMARK       I    between atoms: N_11  and  C_12 
REMARK    4  A    between atoms: C_12  and  C_14 
REMARK    5  A    between atoms: C_17  and  C_20 
ROOT
HETATM    1  N   UNL     1      40.936 -13.265   1.657  1.00  0.00    -0.349 N 
HETATM    2  C   UNL     1      42.161 -13.342   2.279  1.00  0.00     0.252 C 
HETATM    3  O   UNL     1      42.910 -12.390   2.456  1.00  0.00    -0.268 OA
HETATM    4  H   UNL     1      40.487 -14.123   1.367  1.00  0.00     0.163 HD
ENDROOT
BRANCH   2   5
HETATM    5  C   UNL     1      42.567 -14.707   2.699  1.00  0.00     0.032 A 
HETATM    6  C   UNL     1      42.599 -15.724   1.743  1.00  0.00     0.018 A 
HETATM    7  C   UNL     1      42.939 -17.027   2.123  1.00  0.00     0.013 A 
HETATM    8  C   UNL     1      43.271 -17.339   3.455  1.00  0.00    -0.023 A 
HETATM    9  C   UNL     1      43.263 -16.289   4.392  1.00  0.00     0.013 A 
HETATM   10  C   UNL     1      42.913 -14.986   4.023  1.00  0.00     0.018 A 
BRANCH   8  11
HETATM   11  C   UNL     1      43.618 -18.717   3.855  1.00  0.00     0.016 A 
HETATM   12  C   UNL     1      43.926 -19.032   5.189  1.00  0.00     0.034 A 
HETATM   13  C   UNL     1      44.252 -20.339   5.528  1.00  0.00     0.117 A 
HETATM   14  N   UNL     1      44.294 -21.357   4.643  1.00  0.00    -0.270 NA
HETATM   15  C   UNL     1      43.995 -21.046   3.361  1.00  0.00     0.159 A 
HETATM   16  C   UNL     1      43.659 -19.771   2.934  1.00  0.00     0.144 A 
HETATM   17  F   UNL     1      43.389 -19.571   1.636  1.00  0.00    -0.204 F 
ENDBRANCH   8  11
ENDBRANCH   2   5
BRANCH   1  18
HETATM   18  C   UNL     1      40.423 -12.016   1.117  1.00  0.00     0.114 C 
HETATM   19  C   UNL     1      39.749 -11.175   2.204  1.00  0.00     0.037 C 
BRANCH  18  20
HETATM   20  C   UNL     1      39.475 -12.304  -0.036  1.00  0.00    -0.033 A 
HETATM   21  C   UNL     1      38.530 -11.341  -0.417  1.00  0.00     0.009 A 
HETATM   22  C   UNL     1      37.666 -11.581  -1.484  1.00  0.00     0.003 A 
HETATM   23  C   UNL     1      37.747 -12.782  -2.188  1.00  0.00     0.037 A 
HETATM   24  C   UNL     1      38.689 -13.750  -1.836  1.00  0.00     0.068 A 
HETATM   25  C   UNL     1      39.540 -13.514  -0.755  1.00  0.00     0.046 A 
BRANCH  24  26
HETATM   26  O   UNL     1      38.673 -14.873  -2.616  1.00  0.00    -0.356 OA
HETATM   27  C   UNL     1      38.006 -14.775  -3.869  1.00  0.00     0.210 C 
ENDBRANCH  24  26
ENDBRANCH  18  20
ENDBRANCH   1  18
TORSDOF 5
ENDMDL
MODEL 10
REMARK VINA RESULT:      -7.8      5.825      8.465
REMARK  5 active torsions:
REMARK  status: ('A' for Active; 'I' for Inactive)
REMARK    1  A    between atoms: O_2  and  C_3 
REMARK    2  A    between atoms: C_7  and  C_9 
REMARK    3  A    between atoms: C_9  and  N_11 
REMARK       I    between atoms: N_11  and  C_12 
REMARK    4  A    between atoms: C_12  and  C_14 
REMARK    5  A    between atoms: C_17  and  C_20 
ROOT
HETATM    1  N   UNL     1      43.592 -11.055   7.738  1.00  0.00    -0.349 N 
HETATM    2  C   UNL     1      42.749 -11.419   6.713  1.00  0.00     0.252 C 
HETATM    3  O   UNL     1      41.887 -10.693   6.235  1.00  0.00    -0.268 OA
HETATM    4  H   UNL     1      44.121 -11.778   8.207  1.00  0.00     0.163 HD
ENDROOT
BRANCH   2   5
HETATM    5  C   UNL     1      42.914 -12.812   6.229  1.00  0.00     0.032 A 
HETATM    6  C   UNL     1      43.765 -13.671   6.927  1.00  0.00     0.018 A 
HETATM    7  C   UNL     1      43.968 -14.977   6.466  1.00  0.00     0.013 A 
HETATM    8  C   UNL     1      43.315 -15.459   5.316  1.00  0.00    -0.023 A 
HETATM    9  C   UNL     1      42.437 -14.583   4.650  1.00  0.00     0.013 A 
HETATM   10  C   UNL     1      42.238 -13.272   5.096  1.00  0.00     0.018 A 
BRANCH   8  11
HETATM   11  C   UNL     1      43.540 -16.833   4.826  1.00  0.00     0.016 A 
HETATM   12  C   UNL     1      43.694 -17.906   5.717  1.00  0.00     0.034 A 
HETATM   13  C   UNL     1      43.910 -19.186   5.220  1.00  0.00     0.117 A 
HETATM   14  N   UNL     1      43.981 -19.479   3.905  1.00  0.00    -0.270 NA
HETATM   15  C   UNL     1      43.830 -18.440   3.053  1.00  0.00     0.159 A 
HETATM   16  C   UNL     1      43.613 -17.133   3.460  1.00  0.00     0.144 A 
HETATM   17  F   UNL     1      43.487 -16.175   2.529  1.00  0.00    -0.204 F 
ENDBRANCH   8  11
ENDBRANCH   2   5
BRANCH   1  18
HETATM   18  C   UNL     1      43.511  -9.752   8.378  1.00  0.00     0.114 C 
HETATM   19  C   UNL     1      44.837  -8.996   8.270  1.00  0.00     0.037 C 
BRANCH  18  20
HETATM   20  C   UNL     1      43.076  -9.914   9.825  1.00  0.00    -0.033 A 
HETATM   21  C   UNL     1      43.907 -10.588  10.731  1.00  0.00     0.009 A 
HETATM   22  C   UNL     1      43.531 -10.730  12.065  1.00  0.00     0.003 A 
HETATM   23  C   UNL     1      42.325 -10.189  12.510  1.00  0.00     0.037 A 
HETATM   24  C   UNL     1      41.488  -9.501  11.630  1.00  0.00     0.068 A 
HETATM   25  C   UNL     1      41.858  -9.377  10.290  1.00  0.00     0.046 A 
BRANCH  24  26
HETATM   26  O   UNL     1      40.345  -9.007  12.197  1.00  0.00    -0.356 OA
HETATM   27  C   UNL     1      39.494  -9.943  12.847  1.00  0.00     0.210 C 
ENDBRANCH  24  26
ENDBRANCH  18  20
ENDBRANCH   1  18
TORSDOF 5
ENDMDL
