MODEL 1
REMARK VINA RESULT:      -8.6      0.000      0.000
REMARK  4 active torsions:
REMARK  status: ('A' for Active; 'I' for Inactive)
REMARK    1  A    between atoms: C_2  and  N_3 
REMARK    2  A    between atoms: C_4  and  C_5 
REMARK    3  A    between atoms: C_6  and  O_7 
REMARK    4  A    between atoms: C_19  and  C_20 
REMARK       I    between atoms: C_20  and  N_21 
ROOT
HETATM    1  C   UNL     1      40.440 -12.708   1.241  1.00  0.00     0.034 A 
HETATM    2  C   UNL     1      40.755 -13.985   0.758  1.00  0.00     0.057 A 
HETATM    3  C   UNL     1      40.125 -14.464  -0.397  1.00  0.00     0.048 A 
HETATM    4  C   UNL     1      39.164 -13.667  -1.051  1.00  0.00     0.030 A 
HETATM    5  C   UNL     1      38.866 -12.416  -0.526  1.00  0.00     0.063 A 
HETATM    6  N   UNL     1      37.920 -11.890  -1.362  1.00  0.00    -0.277 N 
HETATM    7  H   UNL     1      37.469 -10.985  -1.288  1.00  0.00     0.189 HD
HETATM    8  N   UNL     1      37.585 -12.685  -2.393  1.00  0.00    -0.168 NA
HETATM    9  C   UNL     1      38.349 -13.786  -2.215  1.00  0.00     0.156 A 
HETATM   10  C   UNL     1      39.479 -11.902   0.620  1.00  0.00     0.034 A 
ENDROOT
BRANCH   2  11
HETATM   11  N   UNL     1      41.748 -14.778   1.357  1.00  0.00    -0.260 NA
HETATM   12  C   UNL     1      41.359 -15.752   2.120  1.00  0.00     0.131 C 
BRANCH  12  13
HETATM   13  C   UNL     1      42.341 -16.629   2.790  1.00  0.00     0.016 A 
HETATM   14  C   UNL     1      43.030 -16.224   3.940  1.00  0.00     0.077 A 
HETATM   15  C   UNL     1      43.953 -17.074   4.544  1.00  0.00     0.039 A 
HETATM   16  C   UNL     1      44.185 -18.342   4.007  1.00  0.00     0.022 A 
HETATM   17  C   UNL     1      43.493 -18.746   2.865  1.00  0.00     0.012 A 
HETATM   18 BR   UNL     1      43.801 -20.468   2.147  1.00  0.00    -0.051 Br
HETATM   19  C   UNL     1      42.574 -17.896   2.247  1.00  0.00     0.034 A 
BRANCH  14  20
HETATM   20  O   UNL     1      42.850 -15.002   4.526  1.00  0.00    -0.360 OA
HETATM   21  H   UNL     1      41.891 -14.917   4.737  1.00  0.00     0.217 HD
ENDBRANCH  14  20
ENDBRANCH  12  13
ENDBRANCH   2  11
BRANCH   9  22
HETATM   22  C   UNL     1      38.295 -14.915  -3.154  1.00  0.00     0.270 C 
HETATM   23  N   UNL     1      38.262 -16.143  -2.551  1.00  0.00    -0.365 N 
HETATM   24  H   UNL     1      38.262 -16.186  -1.540  1.00  0.00     0.159 HD
HETATM   25  H   UNL     1      38.198 -16.975  -3.115  1.00  0.00     0.159 HD
HETATM   26  O   UNL     1      38.275 -14.804  -4.376  1.00  0.00    -0.266 OA
ENDBRANCH   9  22
TORSDOF 4
ENDMDL
MODEL 2
REMARK VINA RESULT:      -8.2      3.623      8.131
REMARK  4 active torsions:
REMARK  status: ('A' for Active; 'I' for Inactive)
REMARK    1  A    between atoms: C_2  and  N_3 
REMARK    2  A    between atoms: C_4  and  C_5 
REMARK    3  A    between atoms: C_6  and  O_7 
REMARK    4  A    between atoms: C_19  and  C_20 
REMARK       I    between atoms: C_20  and  N_21 
ROOT
HETATM    1  C   UNL     1      43.401 -17.608   2.116  1.00  0.00     0.034 A 
HETATM    2  C   UNL     1      42.704 -16.442   2.458  1.00  0.00     0.057 A 
HETATM    3  C   UNL     1      42.446 -16.158   3.805  1.00  0.00     0.048 A 
HETATM    4  C   UNL     1      42.872 -17.058   4.802  1.00  0.00     0.030 A 
HETATM    5  C   UNL     1      43.541 -18.213   4.418  1.00  0.00     0.063 A 
HETATM    6  N   UNL     1      43.823 -18.872   5.583  1.00  0.00    -0.277 N 
HETATM    7  H   UNL     1      44.308 -19.756   5.687  1.00  0.00     0.189 HD
HETATM    8  N   UNL     1      43.407 -18.240   6.694  1.00  0.00    -0.168 NA
HETATM    9  C   UNL     1      42.820 -17.116   6.227  1.00  0.00     0.156 A 
HETATM   10  C   UNL     1      43.822 -18.526   3.085  1.00  0.00     0.034 A 
ENDROOT
BRANCH   2  11
HETATM   11  N   UNL     1      42.317 -15.500   1.490  1.00  0.00    -0.260 NA
HETATM   12  C   UNL     1      41.047 -15.291   1.330  1.00  0.00     0.131 C 
BRANCH  12  13
HETATM   13  C   UNL     1      40.559 -14.321   0.328  1.00  0.00     0.016 A 
HETATM   14  C   UNL     1      40.856 -12.955   0.416  1.00  0.00     0.077 A 
HETATM   15  C   UNL     1      40.375 -12.067  -0.543  1.00  0.00     0.039 A 
HETATM   16  C   UNL     1      39.603 -12.543  -1.604  1.00  0.00     0.022 A 
HETATM   17  C   UNL     1      39.313 -13.904  -1.694  1.00  0.00     0.012 A 
HETATM   18 BR   UNL     1      38.276 -14.546  -3.139  1.00  0.00    -0.051 Br
HETATM   19  C   UNL     1      39.782 -14.800  -0.731  1.00  0.00     0.034 A 
BRANCH  14  20
HETATM   20  O   UNL     1      41.611 -12.420   1.422  1.00  0.00    -0.360 OA
HETATM   21  H   UNL     1      42.382 -13.018   1.559  1.00  0.00     0.217 HD
ENDBRANCH  14  20
ENDBRANCH  12  13
ENDBRANCH   2  11
BRANCH   9  22
HETATM   22  C   UNL     1      42.235 -16.123   7.138  1.00  0.00     0.270 C 
HETATM   23  N   UNL     1      43.002 -15.853   8.238  1.00  0.00    -0.365 N 
HETATM   24  H   UNL     1      43.892 -16.326   8.337  1.00  0.00     0.159 HD
HETATM   25  H   UNL     1      42.694 -15.165   8.907  1.00  0.00     0.159 HD
HETATM   26  O   UNL     1      41.159 -15.561   6.959  1.00  0.00    -0.266 OA
ENDBRANCH   9  22
TORSDOF 4
ENDMDL
MODEL 3
REMARK VINA RESULT:      -8.0      3.644      7.696
REMARK  4 active torsions:
REMARK  status: ('A' for Active; 'I' for Inactive)
REMARK    1  A    between atoms: C_2  and  N_3 
REMARK    2  A    between atoms: C_4  and  C_5 
REMARK    3  A    between atoms: C_6  and  O_7 
REMARK    4  A    between atoms: C_19  and  C_20 
REMARK       I    between atoms: C_20  and  N_21 
ROOT
HETATM    1  C   UNL     1      42.299 -15.071   3.434  1.00  0.00     0.034 A 
HETATM    2  C   UNL     1      41.884 -15.890   2.376  1.00  0.00     0.057 A 
HETATM    3  C   UNL     1      42.332 -17.215   2.308  1.00  0.00     0.048 A 
HETATM    4  C   UNL     1      43.212 -17.706   3.292  1.00  0.00     0.030 A 
HETATM    5  C   UNL     1      43.616 -16.853   4.312  1.00  0.00     0.063 A 
HETATM    6  N   UNL     1      44.448 -17.601   5.099  1.00  0.00    -0.277 N 
HETATM    7  H   UNL     1      44.930 -17.303   5.940  1.00  0.00     0.189 HD
HETATM    8  N   UNL     1      44.613 -18.869   4.687  1.00  0.00    -0.168 NA
HETATM    9  C   UNL     1      43.852 -18.949   3.572  1.00  0.00     0.156 A 
HETATM   10  C   UNL     1      43.184 -15.529   4.416  1.00  0.00     0.034 A 
ENDROOT
BRANCH   2  11
HETATM   11  N   UNL     1      40.964 -15.444   1.412  1.00  0.00    -0.260 NA
HETATM   12  C   UNL     1      40.805 -14.164   1.281  1.00  0.00     0.131 C 
BRANCH  12  13
HETATM   13  C   UNL     1      39.852 -13.616   0.294  1.00  0.00     0.016 A 
HETATM   14  C   UNL     1      39.216 -12.383   0.485  1.00  0.00     0.077 A 
HETATM   15  C   UNL     1      38.320 -11.898  -0.464  1.00  0.00     0.039 A 
HETATM   16  C   UNL     1      38.062 -12.640  -1.618  1.00  0.00     0.022 A 
HETATM   17  C   UNL     1      38.700 -13.865  -1.810  1.00  0.00     0.012 A 
HETATM   18 BR   UNL     1      38.357 -14.862  -3.380  1.00  0.00    -0.051 Br
HETATM   19  C   UNL     1      39.593 -14.363  -0.859  1.00  0.00     0.034 A 
BRANCH  14  20
HETATM   20  O   UNL     1      39.425 -11.599   1.586  1.00  0.00    -0.360 OA
HETATM   21  H   UNL     1      39.754 -10.727   1.266  1.00  0.00     0.217 HD
ENDBRANCH  14  20
ENDBRANCH  12  13
ENDBRANCH   2  11
BRANCH   9  22
HETATM   22  C   UNL     1      43.743 -20.200   2.809  1.00  0.00     0.270 C 
HETATM   23  N   UNL     1      43.959 -21.329   3.551  1.00  0.00    -0.365 N 
HETATM   24  H   UNL     1      44.158 -21.229   4.539  1.00  0.00     0.159 HD
HETATM   25  H   UNL     1      43.880 -22.236   3.118  1.00  0.00     0.159 HD
HETATM   26  O   UNL     1      43.477 -20.266   1.613  1.00  0.00    -0.266 OA
ENDBRANCH   9  22
TORSDOF 4
ENDMDL
MODEL 4
REMARK VINA RESULT:      -7.8      3.700      8.342
REMARK  4 active torsions:
REMARK  status: ('A' for Active; 'I' for Inactive)
REMARK    1  A    between atoms: C_2  and  N_3 
REMARK    2  A    between atoms: C_4  and  C_5 
REMARK    3  A    between atoms: C_6  and  O_7 
REMARK    4  A    between atoms: C_19  and  C_20 
REMARK       I    between atoms: C_20  and  N_21 
ROOT
HETATM    1  C   UNL     1      43.155 -16.850   1.935  1.00  0.00     0.034 A 
HETATM    2  C   UNL     1      42.432 -15.788   2.495  1.00  0.00     0.057 A 
HETATM    3  C   UNL     1      42.236 -15.737   3.881  1.00  0.00     0.048 A 
HETATM    4  C   UNL     1      42.750 -16.765   4.697  1.00  0.00     0.030 A 
HETATM    5  C   UNL     1      43.442 -17.810   4.099  1.00  0.00     0.063 A 
HETATM    6  N   UNL     1      43.813 -18.632   5.126  1.00  0.00    -0.277 N 
HETATM    7  H   UNL     1      44.337 -19.498   5.062  1.00  0.00     0.189 HD
HETATM    8  N   UNL     1      43.432 -18.209   6.344  1.00  0.00    -0.168 NA
HETATM    9  C   UNL     1      42.776 -17.053   6.094  1.00  0.00     0.156 A 
HETATM   10  C   UNL     1      43.663 -17.890   2.721  1.00  0.00     0.034 A 
ENDROOT
BRANCH   2  11
HETATM   11  N   UNL     1      41.957 -14.723   1.713  1.00  0.00    -0.260 NA
HETATM   12  C   UNL     1      41.040 -14.986   0.834  1.00  0.00     0.131 C 
BRANCH  12  13
HETATM   13  C   UNL     1      40.492 -13.921  -0.032  1.00  0.00     0.016 A 
HETATM   14  C   UNL     1      39.475 -14.173  -0.960  1.00  0.00     0.077 A 
HETATM   15  C   UNL     1      38.985 -13.147  -1.764  1.00  0.00     0.039 A 
HETATM   16  C   UNL     1      39.502 -11.857  -1.635  1.00  0.00     0.022 A 
HETATM   17  C   UNL     1      40.511 -11.606  -0.705  1.00  0.00     0.012 A 
HETATM   18 BR   UNL     1      41.201  -9.854  -0.525  1.00  0.00    -0.051 Br
HETATM   19  C   UNL     1      41.016 -12.631   0.097  1.00  0.00     0.034 A 
BRANCH  14  20
HETATM   20  O   UNL     1      38.916 -15.408  -1.137  1.00  0.00    -0.360 OA
HETATM   21  H   UNL     1      39.561 -15.952  -1.647  1.00  0.00     0.217 HD
ENDBRANCH  14  20
ENDBRANCH  12  13
ENDBRANCH   2  11
BRANCH   9  22
HETATM   22  C   UNL     1      42.202 -16.249   7.181  1.00  0.00     0.270 C 
HETATM   23  N   UNL     1      43.089 -15.942   8.178  1.00  0.00    -0.365 N 
HETATM   24  H   UNL     1      44.044 -16.265   8.093  1.00  0.00     0.159 HD
HETATM   25  H   UNL     1      42.791 -15.371   8.953  1.00  0.00     0.159 HD
HETATM   26  O   UNL     1      41.038 -15.863   7.223  1.00  0.00    -0.266 OA
ENDBRANCH   9  22
TORSDOF 4
ENDMDL
MODEL 5
REMARK VINA RESULT:      -7.7      5.802      8.046
REMARK  4 active torsions:
REMARK  status: ('A' for Active; 'I' for Inactive)
REMARK    1  A    between atoms: C_2  and  N_3 
REMARK    2  A    between atoms: C_4  and  C_5 
REMARK    3  A    between atoms: C_6  and  O_7 
REMARK    4  A    between atoms: C_19  and  C_20 
REMARK       I    between atoms: C_20  and  N_21 
ROOT
HETATM    1  C   UNL     1      44.233 -15.586   6.362  1.00  0.00     0.034 A 
HETATM    2  C   UNL     1      43.535 -14.391   6.145  1.00  0.00     0.057 A 
HETATM    3  C   UNL     1      42.616 -14.306   5.091  1.00  0.00     0.048 A 
HETATM    4  C   UNL     1      42.418 -15.416   4.245  1.00  0.00     0.030 A 
HETATM    5  C   UNL     1      43.148 -16.574   4.483  1.00  0.00     0.063 A 
HETATM    6  N   UNL     1      42.744 -17.458   3.521  1.00  0.00    -0.277 N 
HETATM    7  H   UNL     1      43.066 -18.410   3.387  1.00  0.00     0.189 HD
HETATM    8  N   UNL     1      41.807 -16.981   2.683  1.00  0.00    -0.168 NA
HETATM    9  C   UNL     1      41.594 -15.720   3.122  1.00  0.00     0.156 A 
HETATM   10  C   UNL     1      44.066 -16.698   5.528  1.00  0.00     0.034 A 
ENDROOT
BRANCH   2  11
HETATM   11  N   UNL     1      43.670 -13.288   7.004  1.00  0.00    -0.260 NA
HETATM   12  C   UNL     1      44.564 -12.398   6.702  1.00  0.00     0.131 C 
BRANCH  12  13
HETATM   13  C   UNL     1      44.773 -11.212   7.558  1.00  0.00     0.016 A 
HETATM   14  C   UNL     1      45.988 -10.518   7.577  1.00  0.00     0.077 A 
HETATM   15  C   UNL     1      46.152  -9.406   8.400  1.00  0.00     0.039 A 
HETATM   16  C   UNL     1      45.094  -8.974   9.202  1.00  0.00     0.022 A 
HETATM   17  C   UNL     1      43.881  -9.663   9.177  1.00  0.00     0.012 A 
HETATM   18 BR   UNL     1      42.446  -9.069  10.256  1.00  0.00    -0.051 Br
HETATM   19  C   UNL     1      43.712 -10.785   8.364  1.00  0.00     0.034 A 
BRANCH  14  20
HETATM   20  O   UNL     1      47.064 -10.878   6.815  1.00  0.00    -0.360 OA
HETATM   21  H   UNL     1      47.875 -10.655   7.329  1.00  0.00     0.217 HD
ENDBRANCH  14  20
ENDBRANCH  12  13
ENDBRANCH   2  11
BRANCH   9  22
HETATM   22  C   UNL     1      40.611 -14.841   2.474  1.00  0.00     0.270 C 
HETATM   23  N   UNL     1      39.335 -15.335   2.472  1.00  0.00    -0.365 N 
HETATM   24  H   UNL     1      39.161 -16.230   2.912  1.00  0.00     0.159 HD
HETATM   25  H   UNL     1      38.588 -14.789   2.072  1.00  0.00     0.159 HD
HETATM   26  O   UNL     1      40.873 -13.751   1.974  1.00  0.00    -0.266 OA
ENDBRANCH   9  22
TORSDOF 4
ENDMDL
MODEL 6
REMARK VINA RESULT:      -7.7      5.997      7.323
REMARK  4 active torsions:
REMARK  status: ('A' for Active; 'I' for Inactive)
REMARK    1  A    between atoms: C_2  and  N_3 
REMARK    2  A    between atoms: C_4  and  C_5 
REMARK    3  A    between atoms: C_6  and  O_7 
REMARK    4  A    between atoms: C_19  and  C_20 
REMARK       I    between atoms: C_20  and  N_21 
ROOT
HETATM    1  C   UNL     1      40.614 -13.620   5.216  1.00  0.00     0.034 A 
HETATM    2  C   UNL     1      41.824 -14.274   5.483  1.00  0.00     0.057 A 
HETATM    3  C   UNL     1      42.904 -13.547   5.999  1.00  0.00     0.048 A 
HETATM    4  C   UNL     1      42.772 -12.162   6.224  1.00  0.00     0.030 A 
HETATM    5  C   UNL     1      41.561 -11.551   5.925  1.00  0.00     0.063 A 
HETATM    6  N   UNL     1      41.734 -10.232   6.246  1.00  0.00    -0.277 N 
HETATM    7  H   UNL     1      41.055  -9.485   6.159  1.00  0.00     0.189 HD
HETATM    8  N   UNL     1      42.948  -9.934   6.739  1.00  0.00    -0.168 NA
HETATM    9  C   UNL     1      43.599 -11.119   6.734  1.00  0.00     0.156 A 
HETATM   10  C   UNL     1      40.459 -12.244   5.417  1.00  0.00     0.034 A 
ENDROOT
BRANCH   2  11
HETATM   11  N   UNL     1      41.967 -15.661   5.322  1.00  0.00    -0.260 NA
HETATM   12  C   UNL     1      43.167 -16.151   5.373  1.00  0.00     0.131 C 
BRANCH  12  13
HETATM   13  C   UNL     1      43.402 -17.600   5.206  1.00  0.00     0.016 A 
HETATM   14  C   UNL     1      43.526 -18.460   6.304  1.00  0.00     0.077 A 
HETATM   15  C   UNL     1      43.752 -19.821   6.111  1.00  0.00     0.039 A 
HETATM   16  C   UNL     1      43.844 -20.332   4.815  1.00  0.00     0.022 A 
HETATM   17  C   UNL     1      43.714 -19.475   3.722  1.00  0.00     0.012 A 
HETATM   18 BR   UNL     1      43.828 -20.173   1.968  1.00  0.00    -0.051 Br
HETATM   19  C   UNL     1      43.498 -18.108   3.907  1.00  0.00     0.034 A 
BRANCH  14  20
HETATM   20  O   UNL     1      43.440 -18.033   7.600  1.00  0.00    -0.360 OA
HETATM   21  H   UNL     1      43.150 -18.802   8.143  1.00  0.00     0.217 HD
ENDBRANCH  14  20
ENDBRANCH  12  13
ENDBRANCH   2  11
BRANCH   9  22
HETATM   22  C   UNL     1      44.981 -11.234   7.220  1.00  0.00     0.270 C 
HETATM   23  N   UNL     1      45.922 -11.270   6.228  1.00  0.00    -0.365 N 
HETATM   24  H   UNL     1      45.615 -11.203   5.265  1.00  0.00     0.159 HD
HETATM   25  H   UNL     1      46.900 -11.323   6.467  1.00  0.00     0.159 HD
HETATM   26  O   UNL     1      45.301 -11.290   8.403  1.00  0.00    -0.266 OA
ENDBRANCH   9  22
TORSDOF 4
ENDMDL
MODEL 7
REMARK VINA RESULT:      -7.5      5.345      8.023
REMARK  4 active torsions:
REMARK  status: ('A' for Active; 'I' for Inactive)
REMARK    1  A    between atoms: C_2  and  N_3 
REMARK    2  A    between atoms: C_4  and  C_5 
REMARK    3  A    between atoms: C_6  and  O_7 
REMARK    4  A    between atoms: C_19  and  C_20 
REMARK       I    between atoms: C_20  and  N_21 
ROOT
HETATM    1  C   UNL     1      41.638 -12.706   5.276  1.00  0.00     0.034 A 
HETATM    2  C   UNL     1      42.830 -13.349   5.634  1.00  0.00     0.057 A 
HETATM    3  C   UNL     1      43.766 -12.681   6.433  1.00  0.00     0.048 A 
HETATM    4  C   UNL     1      43.510 -11.360   6.852  1.00  0.00     0.030 A 
HETATM    5  C   UNL     1      42.326 -10.752   6.457  1.00  0.00     0.063 A 
HETATM    6  N   UNL     1      42.360  -9.502   7.010  1.00  0.00    -0.277 N 
HETATM    7  H   UNL     1      41.656  -8.776   6.933  1.00  0.00     0.189 HD
HETATM    8  N   UNL     1      43.459  -9.246   7.741  1.00  0.00    -0.168 NA
HETATM    9  C   UNL     1      44.177 -10.388   7.655  1.00  0.00     0.156 A 
HETATM   10  C   UNL     1      41.366 -11.390   5.667  1.00  0.00     0.034 A 
ENDROOT
BRANCH   2  11
HETATM   11  N   UNL     1      43.086 -14.684   5.277  1.00  0.00    -0.260 NA
HETATM   12  C   UNL     1      42.959 -15.006   4.027  1.00  0.00     0.131 C 
BRANCH  12  13
HETATM   13  C   UNL     1      43.205 -16.390   3.572  1.00  0.00     0.016 A 
HETATM   14  C   UNL     1      43.216 -16.731   2.214  1.00  0.00     0.077 A 
HETATM   15  C   UNL     1      43.447 -18.047   1.821  1.00  0.00     0.039 A 
HETATM   16  C   UNL     1      43.679 -19.029   2.784  1.00  0.00     0.022 A 
HETATM   17  C   UNL     1      43.674 -18.687   4.137  1.00  0.00     0.012 A 
HETATM   18 BR   UNL     1      44.001 -20.018   5.439  1.00  0.00    -0.051 Br
HETATM   19  C   UNL     1      43.433 -17.372   4.541  1.00  0.00     0.034 A 
BRANCH  14  20
HETATM   20  O   UNL     1      43.003 -15.822   1.216  1.00  0.00    -0.360 OA
HETATM   21  H   UNL     1      42.314 -16.198   0.620  1.00  0.00     0.217 HD
ENDBRANCH  14  20
ENDBRANCH  12  13
ENDBRANCH   2  11
BRANCH   9  22
HETATM   22  C   UNL     1      45.469 -10.533   8.341  1.00  0.00     0.270 C 
HETATM   23  N   UNL     1      46.556 -10.370   7.526  1.00  0.00    -0.365 N 
HETATM   24  H   UNL     1      46.402 -10.155   6.548  1.00  0.00     0.159 HD
HETATM   25  H   UNL     1      47.485 -10.426   7.913  1.00  0.00     0.159 HD
HETATM   26  O   UNL     1      45.600 -10.772   9.537  1.00  0.00    -0.266 OA
ENDBRANCH   9  22
TORSDOF 4
ENDMDL
MODEL 8
REMARK VINA RESULT:      -7.4      6.366      9.324
REMARK  4 active torsions:
REMARK  status: ('A' for Active; 'I' for Inactive)
REMARK    1  A    between atoms: C_2  and  N_3 
REMARK    2  A    between atoms: C_4  and  C_5 
REMARK    3  A    between atoms: C_6  and  O_7 
REMARK    4  A    between atoms: C_19  and  C_20 
REMARK       I    between atoms: C_20  and  N_21 
ROOT
HETATM    1  C   UNL     1      45.557 -11.589   6.392  1.00  0.00     0.034 A 
HETATM    2  C   UNL     1      44.175 -11.819   6.407  1.00  0.00     0.057 A 
HETATM    3  C   UNL     1      43.383 -11.219   7.394  1.00  0.00     0.048 A 
HETATM    4  C   UNL     1      43.986 -10.405   8.374  1.00  0.00     0.030 A 
HETATM    5  C   UNL     1      45.363 -10.221   8.334  1.00  0.00     0.063 A 
HETATM    6  N   UNL     1      45.648  -9.399   9.389  1.00  0.00    -0.277 N 
HETATM    7  H   UNL     1      46.558  -9.050   9.668  1.00  0.00     0.189 HD
HETATM    8  N   UNL     1      44.575  -9.022  10.107  1.00  0.00    -0.168 NA
HETATM    9  C   UNL     1      43.541  -9.634   9.488  1.00  0.00     0.156 A 
HETATM   10  C   UNL     1      46.183 -10.798   7.362  1.00  0.00     0.034 A 
ENDROOT
BRANCH   2  11
HETATM   11  N   UNL     1      43.540 -12.579   5.411  1.00  0.00    -0.260 NA
HETATM   12  C   UNL     1      43.127 -13.766   5.733  1.00  0.00     0.131 C 
BRANCH  12  13
HETATM   13  C   UNL     1      42.454 -14.630   4.741  1.00  0.00     0.016 A 
HETATM   14  C   UNL     1      41.181 -14.331   4.243  1.00  0.00     0.077 A 
HETATM   15  C   UNL     1      40.574 -15.170   3.312  1.00  0.00     0.039 A 
HETATM   16  C   UNL     1      41.244 -16.310   2.863  1.00  0.00     0.022 A 
HETATM   17  C   UNL     1      42.516 -16.603   3.356  1.00  0.00     0.012 A 
HETATM   18 BR   UNL     1      43.426 -18.141   2.737  1.00  0.00    -0.051 Br
HETATM   19  C   UNL     1      43.127 -15.773   4.297  1.00  0.00     0.034 A 
BRANCH  14  20
HETATM   20  O   UNL     1      40.468 -13.231   4.630  1.00  0.00    -0.360 OA
HETATM   21  H   UNL     1      41.086 -12.638   5.117  1.00  0.00     0.217 HD
ENDBRANCH  14  20
ENDBRANCH  12  13
ENDBRANCH   2  11
BRANCH   9  22
HETATM   22  C   UNL     1      42.159  -9.466   9.960  1.00  0.00     0.270 C 
HETATM   23  N   UNL     1      41.871 -10.158  11.105  1.00  0.00    -0.365 N 
HETATM   24  H   UNL     1      42.605 -10.705  11.539  1.00  0.00     0.159 HD
HETATM   25  H   UNL     1      40.955 -10.083  11.518  1.00  0.00     0.159 HD
HETATM   26  O   UNL     1      41.314  -8.771   9.407  1.00  0.00    -0.266 OA
ENDBRANCH   9  22
TORSDOF 4
ENDMDL
MODEL 9
REMARK VINA RESULT:      -7.4      5.847      7.331
REMARK  4 active torsions:
REMARK  status: ('A' for Active; 'I' for Inactive)
REMARK    1  A    between atoms: C_2  and  N_3 
REMARK    2  A    between atoms: C_4  and  C_5 
REMARK    3  A    between atoms: C_6  and  O_7 
REMARK    4  A    between atoms: C_19  and  C_20 
REMARK       I    between atoms: C_20  and  N_21 
ROOT
HETATM    1  C   UNL     1      40.812 -12.144   4.947  1.00  0.00     0.034 A 
HETATM    2  C   UNL     1      42.073 -12.751   5.000  1.00  0.00     0.057 A 
HETATM    3  C   UNL     1      42.339 -13.869   4.199  1.00  0.00     0.048 A 
HETATM    4  C   UNL     1      41.329 -14.385   3.363  1.00  0.00     0.030 A 
HETATM    5  C   UNL     1      40.086 -13.765   3.357  1.00  0.00     0.063 A 
HETATM    6  N   UNL     1      39.333 -14.476   2.464  1.00  0.00    -0.277 N 
HETATM    7  H   UNL     1      38.368 -14.307   2.202  1.00  0.00     0.189 HD
HETATM    8  N   UNL     1      39.980 -15.498   1.879  1.00  0.00    -0.168 NA
HETATM    9  C   UNL     1      41.217 -15.452   2.423  1.00  0.00     0.156 A 
HETATM   10  C   UNL     1      39.786 -12.645   4.136  1.00  0.00     0.034 A 
ENDROOT
BRANCH   2  11
HETATM   11  N   UNL     1      43.115 -12.225   5.782  1.00  0.00    -0.260 NA
HETATM   12  C   UNL     1      42.824 -11.260   6.598  1.00  0.00     0.131 C 
BRANCH  12  13
HETATM   13  C   UNL     1      43.865 -10.649   7.450  1.00  0.00     0.016 A 
HETATM   14  C   UNL     1      45.196 -10.538   7.029  1.00  0.00     0.077 A 
HETATM   15  C   UNL     1      46.152  -9.960   7.860  1.00  0.00     0.039 A 
HETATM   16  C   UNL     1      45.780  -9.479   9.117  1.00  0.00     0.022 A 
HETATM   17  C   UNL     1      44.453  -9.585   9.533  1.00  0.00     0.012 A 
HETATM   18 BR   UNL     1      43.951  -8.921  11.231  1.00  0.00    -0.051 Br
HETATM   19  C   UNL     1      43.490 -10.172   8.710  1.00  0.00     0.034 A 
BRANCH  14  20
HETATM   20  O   UNL     1      45.631 -10.980   5.811  1.00  0.00    -0.360 OA
HETATM   21  H   UNL     1      45.240 -10.387   5.127  1.00  0.00     0.217 HD
ENDBRANCH  14  20
ENDBRANCH  12  13
ENDBRANCH   2  11
BRANCH   9  22
HETATM   22  C   UNL     1      42.261 -16.410   2.033  1.00  0.00     0.270 C 
HETATM   23  N   UNL     1      43.237 -15.879   1.235  1.00  0.00    -0.365 N 
HETATM   24  H   UNL     1      43.182 -14.898   0.989  1.00  0.00     0.159 HD
HETATM   25  H   UNL     1      44.009 -16.455   0.938  1.00  0.00     0.159 HD
HETATM   26  O   UNL     1      42.291 -17.587   2.378  1.00  0.00    -0.266 OA
ENDBRANCH   9  22
TORSDOF 4
ENDMDL
MODEL 10
REMARK VINA RESULT:      -7.3      6.065      8.253
REMARK  4 active torsions:
REMARK  status: ('A' for Active; 'I' for Inactive)
REMARK    1  A    between atoms: C_2  and  N_3 
REMARK    2  A    between atoms: C_4  and  C_5 
REMARK    3  A    between atoms: C_6  and  O_7 
REMARK    4  A    between atoms: C_19  and  C_20 
REMARK       I    between atoms: C_20  and  N_21 
ROOT
HETATM    1  C   UNL     1      42.937 -15.612   2.684  1.00  0.00     0.034 A 
HETATM    2  C   UNL     1      42.999 -15.711   4.081  1.00  0.00     0.057 A 
HETATM    3  C   UNL     1      43.260 -16.951   4.677  1.00  0.00     0.048 A 
HETATM    4  C   UNL     1      43.437 -18.091   3.869  1.00  0.00     0.030 A 
HETATM    5  C   UNL     1      43.346 -17.953   2.490  1.00  0.00     0.063 A 
HETATM    6  N   UNL     1      43.562 -19.206   1.986  1.00  0.00    -0.277 N 
HETATM    7  H   UNL     1      43.570 -19.483   1.011  1.00  0.00     0.189 HD
HETATM    8  N   UNL     1      43.797 -20.147   2.917  1.00  0.00    -0.168 NA
HETATM    9  C   UNL     1      43.726 -19.471   4.086  1.00  0.00     0.156 A 
HETATM   10  C   UNL     1      43.094 -16.732   1.859  1.00  0.00     0.034 A 
ENDROOT
BRANCH   2  11
HETATM   11  N   UNL     1      42.882 -14.582   4.908  1.00  0.00    -0.260 NA
HETATM   12  C   UNL     1      42.939 -13.416   4.343  1.00  0.00     0.131 C 
BRANCH  12  13
HETATM   13  C   UNL     1      42.830 -12.179   5.145  1.00  0.00     0.016 A 
HETATM   14  C   UNL     1      43.426 -12.060   6.406  1.00  0.00     0.077 A 
HETATM   15  C   UNL     1      43.299 -10.881   7.136  1.00  0.00     0.039 A 
HETATM   16  C   UNL     1      42.583  -9.808   6.604  1.00  0.00     0.022 A 
HETATM   17  C   UNL     1      41.994  -9.926   5.344  1.00  0.00     0.012 A 
HETATM   18 BR   UNL     1      41.035  -8.466   4.621  1.00  0.00    -0.051 Br
HETATM   19  C   UNL     1      42.108 -11.108   4.610  1.00  0.00     0.034 A 
BRANCH  14  20
HETATM   20  O   UNL     1      44.147 -13.065   6.988  1.00  0.00    -0.360 OA
HETATM   21  H   UNL     1      44.442 -13.669   6.267  1.00  0.00     0.217 HD
ENDBRANCH  14  20
ENDBRANCH  12  13
ENDBRANCH   2  11
BRANCH   9  22
HETATM   22  C   UNL     1      43.943 -20.145   5.373  1.00  0.00     0.270 C 
HETATM   23  N   UNL     1      44.708 -21.277   5.291  1.00  0.00    -0.365 N 
HETATM   24  H   UNL     1      45.069 -21.552   4.386  1.00  0.00     0.159 HD
HETATM   25  H   UNL     1      44.931 -21.791   6.128  1.00  0.00     0.159 HD
HETATM   26  O   UNL     1      43.498 -19.754   6.448  1.00  0.00    -0.266 OA
ENDBRANCH   9  22
TORSDOF 4
ENDMDL
