MODEL 1
REMARK VINA RESULT:      -8.6      0.000      0.000
REMARK  10 active torsions:
REMARK  status: ('A' for Active; 'I' for Inactive)
REMARK    1  A    between atoms: C_4  and  N_5 
REMARK    2  A    between atoms: N_5  and  C_6 
REMARK    3  A    between atoms: C_6  and  N_7 
REMARK    4  A    between atoms: N_7  and  N_8 
REMARK       I    between atoms: N_8  and  C_9 
REMARK    5  A    between atoms: C_9  and  C_10 
REMARK    6  A    between atoms: C_10  and  O_11 
REMARK    7  A    between atoms: O_11  and  C_12 
REMARK    8  A    between atoms: C_23  and  C_24 
REMARK    9  A    between atoms: C_24  and  O_25 
REMARK   10  A    between atoms: C_28  and  C_29 
ROOT
HETATM    1  C   UNL     1      40.275 -12.096   5.712  1.00  0.00     0.191 C 
HETATM    2  S   UNL     1      39.000 -11.037   5.999  1.00  0.00    -0.039 SA
ENDROOT
BRANCH   1   3
HETATM    3  N   UNL     1      40.201 -12.869   4.586  1.00  0.00    -0.325 N 
HETATM    4  H   UNL     1      39.239 -13.034   4.304  1.00  0.00     0.169 HD
BRANCH   3   5
HETATM    5  C   UNL     1      41.104 -13.807   4.125  1.00  0.00     0.094 C 
HETATM    6  S   UNL     1      42.144 -13.124   2.961  1.00  0.00    -0.075 SA
HETATM    7  C   UNL     1      42.887 -14.625   2.633  1.00  0.00    -0.007 C 
HETATM    8  C   UNL     1      43.892 -14.717   1.529  1.00  0.00     0.057 C 
HETATM    9  C   UNL     1      42.443 -15.606   3.504  1.00  0.00     0.006 C 
HETATM   10  C   UNL     1      41.448 -15.109   4.442  1.00  0.00     0.085 C 
BRANCH   9  11
HETATM   11  C   UNL     1      42.941 -16.977   3.419  1.00  0.00    -0.024 A 
HETATM   12  C   UNL     1      42.481 -17.816   2.395  1.00  0.00     0.012 A 
HETATM   13  C   UNL     1      42.937 -19.134   2.311  1.00  0.00     0.001 A 
HETATM   14  C   UNL     1      43.850 -19.618   3.247  1.00  0.00     0.000 A 
HETATM   15  C   UNL     1      44.310 -18.787   4.268  1.00  0.00     0.001 A 
HETATM   16  C   UNL     1      43.855 -17.469   4.357  1.00  0.00     0.012 A 
ENDBRANCH   9  11
BRANCH  10  17
HETATM   17  C   UNL     1      40.944 -15.857   5.591  1.00  0.00     0.296 C 
HETATM   18  O   UNL     1      40.152 -16.785   5.500  1.00  0.00    -0.259 OA
BRANCH  17  19
HETATM   19  O   UNL     1      41.429 -15.382   6.774  1.00  0.00    -0.322 OA
HETATM   20  C   UNL     1      42.472 -16.167   7.348  1.00  0.00     0.213 C 
ENDBRANCH  17  19
ENDBRANCH  10  17
ENDBRANCH   3   5
ENDBRANCH   1   3
BRANCH   1  21
HETATM   21  N   UNL     1      41.279 -12.326   6.608  1.00  0.00    -0.273 N 
HETATM   22  H   UNL     1      41.543 -13.281   6.849  1.00  0.00     0.189 HD
BRANCH  21  23
HETATM   23  N   UNL     1      42.281 -11.376   6.865  1.00  0.00    -0.266 N 
HETATM   24  C   UNL     1      43.573 -11.835   7.060  1.00  0.00     0.265 C 
HETATM   25  O   UNL     1      43.853 -13.034   6.990  1.00  0.00    -0.269 OA
HETATM   26  H   UNL     1      41.974 -10.426   7.054  1.00  0.00     0.190 HD
BRANCH  24  27
HETATM   27  C   UNL     1      44.606 -10.747   7.419  1.00  0.00     0.218 C 
HETATM   28  C   UNL     1      46.005 -11.097   6.917  1.00  0.00     0.050 C 
BRANCH  27  29
HETATM   29  O   UNL     1      44.651 -10.672   8.851  1.00  0.00    -0.335 OA
BRANCH  29  30
HETATM   30  C   UNL     1      44.164  -9.529   9.422  1.00  0.00     0.091 A 
HETATM   31  C   UNL     1      43.676  -9.596  10.736  1.00  0.00     0.068 A 
HETATM   32 CL   UNL     1      43.790 -11.051  11.660  1.00  0.00    -0.081 Cl
HETATM   33  C   UNL     1      43.092  -8.478  11.333  1.00  0.00     0.046 A 
HETATM   34  C   UNL     1      42.983  -7.294  10.608  1.00  0.00     0.012 A 
HETATM   35 BR   UNL     1      42.179  -5.780  11.405  1.00  0.00    -0.051 Br
HETATM   36  C   UNL     1      43.444  -7.222   9.294  1.00  0.00     0.022 A 
HETATM   37  C   UNL     1      44.026  -8.343   8.695  1.00  0.00     0.040 A 
ENDBRANCH  29  30
ENDBRANCH  27  29
ENDBRANCH  24  27
ENDBRANCH  21  23
ENDBRANCH   1  21
TORSDOF 10
ENDMDL
MODEL 2
REMARK VINA RESULT:      -8.4      4.159      9.626
REMARK  10 active torsions:
REMARK  status: ('A' for Active; 'I' for Inactive)
REMARK    1  A    between atoms: C_4  and  N_5 
REMARK    2  A    between atoms: N_5  and  C_6 
REMARK    3  A    between atoms: C_6  and  N_7 
REMARK    4  A    between atoms: N_7  and  N_8 
REMARK       I    between atoms: N_8  and  C_9 
REMARK    5  A    between atoms: C_9  and  C_10 
REMARK    6  A    between atoms: C_10  and  O_11 
REMARK    7  A    between atoms: O_11  and  C_12 
REMARK    8  A    between atoms: C_23  and  C_24 
REMARK    9  A    between atoms: C_24  and  O_25 
REMARK   10  A    between atoms: C_28  and  C_29 
ROOT
HETATM    1  C   UNL     1      41.916 -10.823   5.760  1.00  0.00     0.191 C 
HETATM    2  S   UNL     1      42.357 -10.894   4.137  1.00  0.00    -0.039 SA
ENDROOT
BRANCH   1   3
HETATM    3  N   UNL     1      42.240  -9.684   6.444  1.00  0.00    -0.325 N 
HETATM    4  H   UNL     1      42.571  -8.952   5.823  1.00  0.00     0.169 HD
BRANCH   3   5
HETATM    5  C   UNL     1      42.655  -9.557   7.755  1.00  0.00     0.094 C 
HETATM    6  S   UNL     1      44.286 -10.019   7.921  1.00  0.00    -0.075 SA
HETATM    7  C   UNL     1      44.244  -9.840   9.618  1.00  0.00    -0.007 C 
HETATM    8  C   UNL     1      45.439 -10.238  10.425  1.00  0.00     0.057 C 
HETATM    9  C   UNL     1      43.040  -9.297  10.035  1.00  0.00     0.006 C 
HETATM   10  C   UNL     1      42.127  -9.051   8.930  1.00  0.00     0.085 C 
BRANCH   9  11
HETATM   11  C   UNL     1      42.771  -9.048  11.450  1.00  0.00    -0.024 A 
HETATM   12  C   UNL     1      43.294  -7.900  12.060  1.00  0.00     0.012 A 
HETATM   13  C   UNL     1      43.059  -7.658  13.415  1.00  0.00     0.001 A 
HETATM   14  C   UNL     1      42.302  -8.558  14.164  1.00  0.00     0.000 A 
HETATM   15  C   UNL     1      41.780  -9.701  13.561  1.00  0.00     0.001 A 
HETATM   16  C   UNL     1      42.015  -9.949  12.207  1.00  0.00     0.012 A 
ENDBRANCH   9  11
BRANCH  10  17
HETATM   17  C   UNL     1      40.871  -8.314   9.039  1.00  0.00     0.296 C 
HETATM   18  O   UNL     1      40.745  -7.282   9.684  1.00  0.00    -0.259 OA
BRANCH  17  19
HETATM   19  O   UNL     1      39.850  -8.925   8.371  1.00  0.00    -0.322 OA
HETATM   20  C   UNL     1      39.188  -8.101   7.414  1.00  0.00     0.213 C 
ENDBRANCH  17  19
ENDBRANCH  10  17
ENDBRANCH   3   5
ENDBRANCH   1   3
BRANCH   1  21
HETATM   21  N   UNL     1      41.401 -11.885   6.447  1.00  0.00    -0.273 N 
HETATM   22  H   UNL     1      40.392 -12.003   6.527  1.00  0.00     0.189 HD
BRANCH  21  23
HETATM   23  N   UNL     1      42.131 -13.067   6.647  1.00  0.00    -0.266 N 
HETATM   24  C   UNL     1      41.601 -14.247   6.151  1.00  0.00     0.265 C 
HETATM   25  O   UNL     1      40.536 -14.268   5.530  1.00  0.00    -0.269 OA
HETATM   26  H   UNL     1      42.922 -13.016   7.283  1.00  0.00     0.190 HD
BRANCH  24  27
HETATM   27  C   UNL     1      42.413 -15.517   6.477  1.00  0.00     0.218 C 
HETATM   28  C   UNL     1      42.942 -15.507   7.909  1.00  0.00     0.050 C 
BRANCH  27  29
HETATM   29  O   UNL     1      43.537 -15.532   5.585  1.00  0.00    -0.335 OA
BRANCH  29  30
HETATM   30  C   UNL     1      43.659 -16.623   4.769  1.00  0.00     0.091 A 
HETATM   31  C   UNL     1      43.280 -16.494   3.424  1.00  0.00     0.068 A 
HETATM   32 CL   UNL     1      42.780 -14.973   2.777  1.00  0.00    -0.081 Cl
HETATM   33  C   UNL     1      43.307 -17.599   2.571  1.00  0.00     0.046 A 
HETATM   34  C   UNL     1      43.699 -18.838   3.070  1.00  0.00     0.012 A 
HETATM   35 BR   UNL     1      43.722 -20.342   1.925  1.00  0.00    -0.051 Br
HETATM   36  C   UNL     1      44.058 -18.983   4.410  1.00  0.00     0.022 A 
HETATM   37  C   UNL     1      44.027 -17.876   5.264  1.00  0.00     0.040 A 
ENDBRANCH  29  30
ENDBRANCH  27  29
ENDBRANCH  24  27
ENDBRANCH  21  23
ENDBRANCH   1  21
TORSDOF 10
ENDMDL
MODEL 3
REMARK VINA RESULT:      -8.2      2.309      3.558
REMARK  10 active torsions:
REMARK  status: ('A' for Active; 'I' for Inactive)
REMARK    1  A    between atoms: C_4  and  N_5 
REMARK    2  A    between atoms: N_5  and  C_6 
REMARK    3  A    between atoms: C_6  and  N_7 
REMARK    4  A    between atoms: N_7  and  N_8 
REMARK       I    between atoms: N_8  and  C_9 
REMARK    5  A    between atoms: C_9  and  C_10 
REMARK    6  A    between atoms: C_10  and  O_11 
REMARK    7  A    between atoms: O_11  and  C_12 
REMARK    8  A    between atoms: C_23  and  C_24 
REMARK    9  A    between atoms: C_24  and  O_25 
REMARK   10  A    between atoms: C_28  and  C_29 
ROOT
HETATM    1  C   UNL     1      40.968 -10.101   7.018  1.00  0.00     0.191 C 
HETATM    2  S   UNL     1      39.974  -8.752   6.868  1.00  0.00    -0.039 SA
ENDROOT
BRANCH   1   3
HETATM    3  N   UNL     1      40.416 -11.317   6.724  1.00  0.00    -0.325 N 
HETATM    4  H   UNL     1      40.135 -11.817   7.562  1.00  0.00     0.169 HD
BRANCH   3   5
HETATM    5  C   UNL     1      40.641 -12.121   5.623  1.00  0.00     0.094 C 
HETATM    6  S   UNL     1      39.540 -11.758   4.374  1.00  0.00    -0.075 SA
HETATM    7  C   UNL     1      40.106 -13.039   3.399  1.00  0.00    -0.007 C 
HETATM    8  C   UNL     1      39.409 -13.342   2.111  1.00  0.00     0.057 C 
HETATM    9  C   UNL     1      41.217 -13.646   3.963  1.00  0.00     0.006 C 
HETATM   10  C   UNL     1      41.588 -13.054   5.239  1.00  0.00     0.085 C 
BRANCH   9  11
HETATM   11  C   UNL     1      41.882 -14.770   3.306  1.00  0.00    -0.024 A 
HETATM   12  C   UNL     1      42.897 -14.523   2.373  1.00  0.00     0.012 A 
HETATM   13  C   UNL     1      43.529 -15.587   1.726  1.00  0.00     0.001 A 
HETATM   14  C   UNL     1      43.151 -16.899   2.008  1.00  0.00     0.000 A 
HETATM   15  C   UNL     1      42.140 -17.150   2.935  1.00  0.00     0.001 A 
HETATM   16  C   UNL     1      41.504 -16.088   3.582  1.00  0.00     0.012 A 
ENDBRANCH   9  11
BRANCH  10  17
HETATM   17  C   UNL     1      42.817 -13.354   5.967  1.00  0.00     0.296 C 
HETATM   18  O   UNL     1      43.785 -12.607   5.999  1.00  0.00    -0.259 OA
BRANCH  17  19
HETATM   19  O   UNL     1      42.776 -14.574   6.576  1.00  0.00    -0.322 OA
HETATM   20  C   UNL     1      43.924 -15.390   6.351  1.00  0.00     0.213 C 
ENDBRANCH  17  19
ENDBRANCH  10  17
ENDBRANCH   3   5
ENDBRANCH   1   3
BRANCH   1  21
HETATM   21  N   UNL     1      42.222 -10.056   7.556  1.00  0.00    -0.273 N 
HETATM   22  H   UNL     1      43.033  -9.918   6.955  1.00  0.00     0.189 HD
BRANCH  21  23
HETATM   23  N   UNL     1      42.444  -9.716   8.900  1.00  0.00    -0.266 N 
HETATM   24  C   UNL     1      43.445 -10.388   9.581  1.00  0.00     0.265 C 
HETATM   25  O   UNL     1      44.143 -11.243   9.030  1.00  0.00    -0.269 OA
HETATM   26  H   UNL     1      41.754  -9.115   9.341  1.00  0.00     0.190 HD
BRANCH  24  27
HETATM   27  C   UNL     1      43.580 -10.023  11.073  1.00  0.00     0.218 C 
HETATM   28  C   UNL     1      43.773 -11.258  11.950  1.00  0.00     0.050 C 
BRANCH  27  29
HETATM   29  O   UNL     1      42.353  -9.388  11.459  1.00  0.00    -0.335 OA
BRANCH  29  30
HETATM   30  C   UNL     1      42.323  -8.808  12.697  1.00  0.00     0.091 A 
HETATM   31  C   UNL     1      41.282  -9.156  13.571  1.00  0.00     0.068 A 
HETATM   32 CL   UNL     1      40.127 -10.369  13.150  1.00  0.00    -0.081 Cl
HETATM   33  C   UNL     1      41.161  -8.530  14.813  1.00  0.00     0.046 A 
HETATM   34  C   UNL     1      42.074  -7.544  15.174  1.00  0.00     0.012 A 
HETATM   35 BR   UNL     1      41.907  -6.681  16.847  1.00  0.00    -0.051 Br
HETATM   36  C   UNL     1      43.101  -7.175  14.305  1.00  0.00     0.022 A 
HETATM   37  C   UNL     1      43.220  -7.800  13.060  1.00  0.00     0.040 A 
ENDBRANCH  29  30
ENDBRANCH  27  29
ENDBRANCH  24  27
ENDBRANCH  21  23
ENDBRANCH   1  21
TORSDOF 10
ENDMDL
MODEL 4
REMARK VINA RESULT:      -8.2      3.880     10.040
REMARK  10 active torsions:
REMARK  status: ('A' for Active; 'I' for Inactive)
REMARK    1  A    between atoms: C_4  and  N_5 
REMARK    2  A    between atoms: N_5  and  C_6 
REMARK    3  A    between atoms: C_6  and  N_7 
REMARK    4  A    between atoms: N_7  and  N_8 
REMARK       I    between atoms: N_8  and  C_9 
REMARK    5  A    between atoms: C_9  and  C_10 
REMARK    6  A    between atoms: C_10  and  O_11 
REMARK    7  A    between atoms: O_11  and  C_12 
REMARK    8  A    between atoms: C_23  and  C_24 
REMARK    9  A    between atoms: C_24  and  O_25 
REMARK   10  A    between atoms: C_28  and  C_29 
ROOT
HETATM    1  C   UNL     1      42.917 -10.911   6.679  1.00  0.00     0.191 C 
HETATM    2  S   UNL     1      44.441 -11.356   6.119  1.00  0.00    -0.039 SA
ENDROOT
BRANCH   1   3
HETATM    3  N   UNL     1      42.779  -9.640   7.164  1.00  0.00    -0.325 N 
HETATM    4  H   UNL     1      43.427  -8.995   6.722  1.00  0.00     0.169 HD
BRANCH   3   5
HETATM    5  C   UNL     1      42.323  -9.237   8.403  1.00  0.00     0.094 C 
HETATM    6  S   UNL     1      40.748  -8.597   8.289  1.00  0.00    -0.075 SA
HETATM    7  C   UNL     1      40.730  -8.141   9.933  1.00  0.00    -0.007 C 
HETATM    8  C   UNL     1      39.567  -7.366  10.465  1.00  0.00     0.057 C 
HETATM    9  C   UNL     1      41.858  -8.601  10.593  1.00  0.00     0.006 C 
HETATM   10  C   UNL     1      42.765  -9.320   9.712  1.00  0.00     0.085 C 
BRANCH   9  11
HETATM   11  C   UNL     1      42.065  -8.335  12.015  1.00  0.00    -0.024 A 
HETATM   12  C   UNL     1      41.609  -9.260  12.964  1.00  0.00     0.012 A 
HETATM   13  C   UNL     1      41.785  -9.011  14.327  1.00  0.00     0.001 A 
HETATM   14  C   UNL     1      42.417  -7.841  14.747  1.00  0.00     0.000 A 
HETATM   15  C   UNL     1      42.871  -6.917  13.806  1.00  0.00     0.001 A 
HETATM   16  C   UNL     1      42.695  -7.161  12.443  1.00  0.00     0.012 A 
ENDBRANCH   9  11
BRANCH  10  17
HETATM   17  C   UNL     1      43.931 -10.077  10.159  1.00  0.00     0.296 C 
HETATM   18  O   UNL     1      43.895 -11.262  10.460  1.00  0.00    -0.259 OA
BRANCH  17  19
HETATM   19  O   UNL     1      45.053  -9.305  10.238  1.00  0.00    -0.322 OA
HETATM   20  C   UNL     1      45.846  -9.286   9.053  1.00  0.00     0.213 C 
ENDBRANCH  17  19
ENDBRANCH  10  17
ENDBRANCH   3   5
ENDBRANCH   1   3
BRANCH   1  21
HETATM   21  N   UNL     1      41.879 -11.787   6.813  1.00  0.00    -0.273 N 
HETATM   22  H   UNL     1      40.933 -11.441   6.966  1.00  0.00     0.189 HD
BRANCH  21  23
HETATM   23  N   UNL     1      41.933 -13.091   6.294  1.00  0.00    -0.266 N 
HETATM   24  C   UNL     1      40.863 -13.527   5.529  1.00  0.00     0.265 C 
HETATM   25  O   UNL     1      39.901 -12.796   5.284  1.00  0.00    -0.269 OA
HETATM   26  H   UNL     1      42.673 -13.693   6.642  1.00  0.00     0.190 HD
BRANCH  24  27
HETATM   27  C   UNL     1      40.950 -14.994   5.060  1.00  0.00     0.218 C 
HETATM   28  C   UNL     1      40.568 -15.973   6.167  1.00  0.00     0.050 C 
BRANCH  27  29
HETATM   29  O   UNL     1      42.319 -15.235   4.702  1.00  0.00    -0.335 OA
BRANCH  29  30
HETATM   30  C   UNL     1      42.589 -16.420   4.075  1.00  0.00     0.091 A 
HETATM   31  C   UNL     1      43.609 -17.232   4.596  1.00  0.00     0.068 A 
HETATM   32 CL   UNL     1      44.429 -16.811   6.057  1.00  0.00    -0.081 Cl
HETATM   33  C   UNL     1      43.979 -18.410   3.946  1.00  0.00     0.046 A 
HETATM   34  C   UNL     1      43.339 -18.768   2.763  1.00  0.00     0.012 A 
HETATM   35 BR   UNL     1      43.846 -20.354   1.868  1.00  0.00    -0.051 Br
HETATM   36  C   UNL     1      42.338 -17.959   2.224  1.00  0.00     0.022 A 
HETATM   37  C   UNL     1      41.970 -16.778   2.874  1.00  0.00     0.040 A 
ENDBRANCH  29  30
ENDBRANCH  27  29
ENDBRANCH  24  27
ENDBRANCH  21  23
ENDBRANCH   1  21
TORSDOF 10
ENDMDL
MODEL 5
REMARK VINA RESULT:      -8.0      5.915      8.275
REMARK  10 active torsions:
REMARK  status: ('A' for Active; 'I' for Inactive)
REMARK    1  A    between atoms: C_4  and  N_5 
REMARK    2  A    between atoms: N_5  and  C_6 
REMARK    3  A    between atoms: C_6  and  N_7 
REMARK    4  A    between atoms: N_7  and  N_8 
REMARK       I    between atoms: N_8  and  C_9 
REMARK    5  A    between atoms: C_9  and  C_10 
REMARK    6  A    between atoms: C_10  and  O_11 
REMARK    7  A    between atoms: O_11  and  C_12 
REMARK    8  A    between atoms: C_23  and  C_24 
REMARK    9  A    between atoms: C_24  and  O_25 
REMARK   10  A    between atoms: C_28  and  C_29 
ROOT
HETATM    1  C   UNL     1      40.509 -10.538   3.264  1.00  0.00     0.191 C 
HETATM    2  S   UNL     1      38.867 -10.585   2.901  1.00  0.00    -0.039 SA
ENDROOT
BRANCH   1   3
HETATM    3  N   UNL     1      40.935 -11.297   4.319  1.00  0.00    -0.325 N 
HETATM    4  H   UNL     1      41.522 -10.765   4.954  1.00  0.00     0.169 HD
BRANCH   3   5
HETATM    5  C   UNL     1      41.118 -12.665   4.377  1.00  0.00     0.094 C 
HETATM    6  S   UNL     1      40.109 -13.361   5.560  1.00  0.00    -0.075 SA
HETATM    7  C   UNL     1      40.795 -14.909   5.345  1.00  0.00    -0.007 C 
HETATM    8  C   UNL     1      40.378 -16.025   6.249  1.00  0.00     0.057 C 
HETATM    9  C   UNL     1      41.684 -14.920   4.282  1.00  0.00     0.006 C 
HETATM   10  C   UNL     1      41.817 -13.615   3.654  1.00  0.00     0.085 C 
BRANCH   9  11
HETATM   11  C   UNL     1      42.395 -16.139   3.903  1.00  0.00    -0.024 A 
HETATM   12  C   UNL     1      41.968 -16.870   2.787  1.00  0.00     0.012 A 
HETATM   13  C   UNL     1      42.628 -18.045   2.423  1.00  0.00     0.001 A 
HETATM   14  C   UNL     1      43.716 -18.494   3.170  1.00  0.00     0.000 A 
HETATM   15  C   UNL     1      44.145 -17.771   4.283  1.00  0.00     0.001 A 
HETATM   16  C   UNL     1      43.485 -16.597   4.652  1.00  0.00     0.012 A 
ENDBRANCH   9  11
BRANCH  10  17
HETATM   17  C   UNL     1      42.529 -13.366   2.403  1.00  0.00     0.296 C 
HETATM   18  O   UNL     1      43.706 -13.648   2.226  1.00  0.00    -0.259 OA
BRANCH  17  19
HETATM   19  O   UNL     1      41.744 -12.752   1.471  1.00  0.00    -0.322 OA
HETATM   20  C   UNL     1      40.835 -13.618   0.796  1.00  0.00     0.213 C 
ENDBRANCH  17  19
ENDBRANCH  10  17
ENDBRANCH   3   5
ENDBRANCH   1   3
BRANCH   1  21
HETATM   21  N   UNL     1      41.387  -9.680   2.668  1.00  0.00    -0.273 N 
HETATM   22  H   UNL     1      41.991  -9.088   3.237  1.00  0.00     0.189 HD
BRANCH  21  23
HETATM   23  N   UNL     1      41.856  -9.882   1.360  1.00  0.00    -0.266 N 
HETATM   24  C   UNL     1      41.421  -9.011   0.375  1.00  0.00     0.265 C 
HETATM   25  O   UNL     1      40.667  -8.070   0.629  1.00  0.00    -0.269 OA
HETATM   26  H   UNL     1      42.355 -10.749   1.180  1.00  0.00     0.190 HD
BRANCH  24  27
HETATM   27  C   UNL     1      41.909  -9.340  -1.051  1.00  0.00     0.218 C 
HETATM   28  C   UNL     1      42.823  -8.252  -1.609  1.00  0.00     0.050 C 
BRANCH  27  29
HETATM   29  O   UNL     1      40.742  -9.414  -1.883  1.00  0.00    -0.335 OA
BRANCH  29  30
HETATM   30  C   UNL     1      40.276 -10.665  -2.177  1.00  0.00     0.091 A 
HETATM   31  C   UNL     1      38.987 -11.015  -1.747  1.00  0.00     0.068 A 
HETATM   32 CL   UNL     1      37.962  -9.865  -0.965  1.00  0.00    -0.081 Cl
HETATM   33  C   UNL     1      38.498 -12.306  -1.949  1.00  0.00     0.046 A 
HETATM   34  C   UNL     1      39.307 -13.254  -2.571  1.00  0.00     0.012 A 
HETATM   35 BR   UNL     1      38.658 -15.009  -2.835  1.00  0.00    -0.051 Br
HETATM   36  C   UNL     1      40.598 -12.924  -2.984  1.00  0.00     0.022 A 
HETATM   37  C   UNL     1      41.088 -11.631  -2.778  1.00  0.00     0.040 A 
ENDBRANCH  29  30
ENDBRANCH  27  29
ENDBRANCH  24  27
ENDBRANCH  21  23
ENDBRANCH   1  21
TORSDOF 10
ENDMDL
MODEL 6
REMARK VINA RESULT:      -7.8      3.999      9.681
REMARK  10 active torsions:
REMARK  status: ('A' for Active; 'I' for Inactive)
REMARK    1  A    between atoms: C_4  and  N_5 
REMARK    2  A    between atoms: N_5  and  C_6 
REMARK    3  A    between atoms: C_6  and  N_7 
REMARK    4  A    between atoms: N_7  and  N_8 
REMARK       I    between atoms: N_8  and  C_9 
REMARK    5  A    between atoms: C_9  and  C_10 
REMARK    6  A    between atoms: C_10  and  O_11 
REMARK    7  A    between atoms: O_11  and  C_12 
REMARK    8  A    between atoms: C_23  and  C_24 
REMARK    9  A    between atoms: C_24  and  O_25 
REMARK   10  A    between atoms: C_28  and  C_29 
ROOT
HETATM    1  C   UNL     1      41.540 -10.226   6.000  1.00  0.00     0.191 C 
HETATM    2  S   UNL     1      41.370 -10.108   4.330  1.00  0.00    -0.039 SA
ENDROOT
BRANCH   1   3
HETATM    3  N   UNL     1      42.246  -9.235   6.625  1.00  0.00    -0.325 N 
HETATM    4  H   UNL     1      42.825  -8.715   5.972  1.00  0.00     0.169 HD
BRANCH   3   5
HETATM    5  C   UNL     1      42.666  -9.176   7.939  1.00  0.00     0.094 C 
HETATM    6  S   UNL     1      44.275  -9.717   8.085  1.00  0.00    -0.075 SA
HETATM    7  C   UNL     1      44.241  -9.602   9.787  1.00  0.00    -0.007 C 
HETATM    8  C   UNL     1      45.417 -10.083  10.577  1.00  0.00     0.057 C 
HETATM    9  C   UNL     1      43.062  -9.021  10.227  1.00  0.00     0.006 C 
HETATM   10  C   UNL     1      42.161  -8.693   9.133  1.00  0.00     0.085 C 
BRANCH   9  11
HETATM   11  C   UNL     1      42.805  -8.814  11.651  1.00  0.00    -0.024 A 
HETATM   12  C   UNL     1      42.111  -9.792  12.376  1.00  0.00     0.012 A 
HETATM   13  C   UNL     1      41.843  -9.600  13.733  1.00  0.00     0.001 A 
HETATM   14  C   UNL     1      42.267  -8.434  14.370  1.00  0.00     0.000 A 
HETATM   15  C   UNL     1      42.957  -7.457  13.652  1.00  0.00     0.001 A 
HETATM   16  C   UNL     1      43.224  -7.645  12.294  1.00  0.00     0.012 A 
ENDBRANCH   9  11
BRANCH  10  17
HETATM   17  C   UNL     1      40.939  -7.906   9.273  1.00  0.00     0.296 C 
HETATM   18  O   UNL     1      40.119  -8.080  10.164  1.00  0.00    -0.259 OA
BRANCH  17  19
HETATM   19  O   UNL     1      40.800  -6.981   8.279  1.00  0.00    -0.322 OA
HETATM   20  C   UNL     1      39.526  -6.984   7.638  1.00  0.00     0.213 C 
ENDBRANCH  17  19
ENDBRANCH  10  17
ENDBRANCH   3   5
ENDBRANCH   1   3
BRANCH   1  21
HETATM   21  N   UNL     1      41.148 -11.316   6.721  1.00  0.00    -0.273 N 
HETATM   22  H   UNL     1      40.409 -11.232   7.418  1.00  0.00     0.189 HD
BRANCH  21  23
HETATM   23  N   UNL     1      41.348 -12.627   6.257  1.00  0.00    -0.266 N 
HETATM   24  C   UNL     1      40.230 -13.368   5.911  1.00  0.00     0.265 C 
HETATM   25  O   UNL     1      39.092 -12.896   5.981  1.00  0.00    -0.269 OA
HETATM   26  H   UNL     1      42.283 -13.011   6.355  1.00  0.00     0.190 HD
BRANCH  24  27
HETATM   27  C   UNL     1      40.515 -14.823   5.489  1.00  0.00     0.218 C 
HETATM   28  C   UNL     1      40.425 -15.791   6.667  1.00  0.00     0.050 C 
BRANCH  27  29
HETATM   29  O   UNL     1      41.859 -14.855   4.987  1.00  0.00    -0.335 OA
BRANCH  29  30
HETATM   30  C   UNL     1      42.248 -15.998   4.345  1.00  0.00     0.091 A 
HETATM   31  C   UNL     1      43.331 -16.721   4.869  1.00  0.00     0.068 A 
HETATM   32 CL   UNL     1      44.087 -16.251   6.350  1.00  0.00    -0.081 Cl
HETATM   33  C   UNL     1      43.820 -17.847   4.206  1.00  0.00     0.046 A 
HETATM   34  C   UNL     1      43.233 -18.242   3.007  1.00  0.00     0.012 A 
HETATM   35 BR   UNL     1      43.899 -19.758   2.095  1.00  0.00    -0.051 Br
HETATM   36  C   UNL     1      42.169 -17.520   2.465  1.00  0.00     0.022 A 
HETATM   37  C   UNL     1      41.683 -16.390   3.129  1.00  0.00     0.040 A 
ENDBRANCH  29  30
ENDBRANCH  27  29
ENDBRANCH  24  27
ENDBRANCH  21  23
ENDBRANCH   1  21
TORSDOF 10
ENDMDL
MODEL 7
REMARK VINA RESULT:      -7.8      4.465     10.331
REMARK  10 active torsions:
REMARK  status: ('A' for Active; 'I' for Inactive)
REMARK    1  A    between atoms: C_4  and  N_5 
REMARK    2  A    between atoms: N_5  and  C_6 
REMARK    3  A    between atoms: C_6  and  N_7 
REMARK    4  A    between atoms: N_7  and  N_8 
REMARK       I    between atoms: N_8  and  C_9 
REMARK    5  A    between atoms: C_9  and  C_10 
REMARK    6  A    between atoms: C_10  and  O_11 
REMARK    7  A    between atoms: O_11  and  C_12 
REMARK    8  A    between atoms: C_23  and  C_24 
REMARK    9  A    between atoms: C_24  and  O_25 
REMARK   10  A    between atoms: C_28  and  C_29 
ROOT
HETATM    1  C   UNL     1      43.631 -10.779   8.019  1.00  0.00     0.191 C 
HETATM    2  S   UNL     1      45.218 -10.468   7.551  1.00  0.00    -0.039 SA
ENDROOT
BRANCH   1   3
HETATM    3  N   UNL     1      43.375 -10.818   9.361  1.00  0.00    -0.325 N 
HETATM    4  H   UNL     1      43.232 -11.767   9.692  1.00  0.00     0.169 HD
BRANCH   3   5
HETATM    5  C   UNL     1      42.809  -9.841  10.157  1.00  0.00     0.094 C 
HETATM    6  S   UNL     1      43.926  -9.284  11.317  1.00  0.00    -0.075 SA
HETATM    7  C   UNL     1      42.762  -8.292  12.075  1.00  0.00    -0.007 C 
HETATM    8  C   UNL     1      43.124  -7.567  13.332  1.00  0.00     0.057 C 
HETATM    9  C   UNL     1      41.573  -8.280  11.362  1.00  0.00     0.006 C 
HETATM   10  C   UNL     1      41.622  -9.130  10.182  1.00  0.00     0.085 C 
BRANCH   9  11
HETATM   11  C   UNL     1      40.426  -7.497  11.816  1.00  0.00    -0.024 A 
HETATM   12  C   UNL     1      39.443  -8.106  12.606  1.00  0.00     0.012 A 
HETATM   13  C   UNL     1      38.332  -7.374  13.033  1.00  0.00     0.001 A 
HETATM   14  C   UNL     1      38.201  -6.034  12.673  1.00  0.00     0.000 A 
HETATM   15  C   UNL     1      39.176  -5.423  11.886  1.00  0.00     0.001 A 
HETATM   16  C   UNL     1      40.286  -6.152  11.455  1.00  0.00     0.012 A 
ENDBRANCH   9  11
BRANCH  10  17
HETATM   17  C   UNL     1      40.596  -9.168   9.144  1.00  0.00     0.296 C 
HETATM   18  O   UNL     1      39.502  -9.696   9.292  1.00  0.00    -0.259 OA
BRANCH  17  19
HETATM   19  O   UNL     1      41.009  -8.583   7.983  1.00  0.00    -0.322 OA
HETATM   20  C   UNL     1      40.721  -7.189   7.885  1.00  0.00     0.213 C 
ENDBRANCH  17  19
ENDBRANCH  10  17
ENDBRANCH   3   5
ENDBRANCH   1   3
BRANCH   1  21
HETATM   21  N   UNL     1      42.646 -11.141   7.146  1.00  0.00    -0.273 N 
HETATM   22  H   UNL     1      42.237 -10.449   6.519  1.00  0.00     0.189 HD
BRANCH  21  23
HETATM   23  N   UNL     1      42.482 -12.467   6.715  1.00  0.00    -0.266 N 
HETATM   24  C   UNL     1      42.209 -12.683   5.374  1.00  0.00     0.265 C 
HETATM   25  O   UNL     1      42.133 -11.751   4.570  1.00  0.00    -0.269 OA
HETATM   26  H   UNL     1      42.412 -13.179   7.436  1.00  0.00     0.190 HD
BRANCH  24  27
HETATM   27  C   UNL     1      41.960 -14.155   4.986  1.00  0.00     0.218 C 
HETATM   28  C   UNL     1      41.319 -14.947   6.123  1.00  0.00     0.050 C 
BRANCH  27  29
HETATM   29  O   UNL     1      43.242 -14.734   4.706  1.00  0.00    -0.335 OA
BRANCH  29  30
HETATM   30  C   UNL     1      43.244 -15.972   4.126  1.00  0.00     0.091 A 
HETATM   31  C   UNL     1      43.921 -17.013   4.779  1.00  0.00     0.068 A 
HETATM   32 CL   UNL     1      44.641 -16.777   6.332  1.00  0.00    -0.081 Cl
HETATM   33  C   UNL     1      44.023 -18.273   4.188  1.00  0.00     0.046 A 
HETATM   34  C   UNL     1      43.458 -18.488   2.934  1.00  0.00     0.012 A 
HETATM   35 BR   UNL     1      43.605 -20.188   2.121  1.00  0.00    -0.051 Br
HETATM   36  C   UNL     1      42.800 -17.456   2.266  1.00  0.00     0.022 A 
HETATM   37  C   UNL     1      42.702 -16.192   2.857  1.00  0.00     0.040 A 
ENDBRANCH  29  30
ENDBRANCH  27  29
ENDBRANCH  24  27
ENDBRANCH  21  23
ENDBRANCH   1  21
TORSDOF 10
ENDMDL
MODEL 8
REMARK VINA RESULT:      -7.6      3.110      4.634
REMARK  10 active torsions:
REMARK  status: ('A' for Active; 'I' for Inactive)
REMARK    1  A    between atoms: C_4  and  N_5 
REMARK    2  A    between atoms: N_5  and  C_6 
REMARK    3  A    between atoms: C_6  and  N_7 
REMARK    4  A    between atoms: N_7  and  N_8 
REMARK       I    between atoms: N_8  and  C_9 
REMARK    5  A    between atoms: C_9  and  C_10 
REMARK    6  A    between atoms: C_10  and  O_11 
REMARK    7  A    between atoms: O_11  and  C_12 
REMARK    8  A    between atoms: C_23  and  C_24 
REMARK    9  A    between atoms: C_24  and  O_25 
REMARK   10  A    between atoms: C_28  and  C_29 
ROOT
HETATM    1  C   UNL     1      44.019 -11.706   7.499  1.00  0.00     0.191 C 
HETATM    2  S   UNL     1      45.262 -11.383   6.412  1.00  0.00    -0.039 SA
ENDROOT
BRANCH   1   3
HETATM    3  N   UNL     1      43.500 -12.972   7.493  1.00  0.00    -0.325 N 
HETATM    4  H   UNL     1      43.813 -13.512   8.294  1.00  0.00     0.169 HD
BRANCH   3   5
HETATM    5  C   UNL     1      43.091 -13.729   6.413  1.00  0.00     0.094 C 
HETATM    6  S   UNL     1      43.849 -15.255   6.422  1.00  0.00    -0.075 SA
HETATM    7  C   UNL     1      43.173 -15.685   4.915  1.00  0.00    -0.007 C 
HETATM    8  C   UNL     1      43.581 -16.972   4.272  1.00  0.00     0.057 C 
HETATM    9  C   UNL     1      42.268 -14.731   4.481  1.00  0.00     0.006 C 
HETATM   10  C   UNL     1      42.154 -13.611   5.402  1.00  0.00     0.085 C 
BRANCH   9  11
HETATM   11  C   UNL     1      41.557 -14.883   3.213  1.00  0.00    -0.024 A 
HETATM   12  C   UNL     1      40.421 -15.700   3.152  1.00  0.00     0.012 A 
HETATM   13  C   UNL     1      39.742 -15.867   1.943  1.00  0.00     0.001 A 
HETATM   14  C   UNL     1      40.193 -15.220   0.793  1.00  0.00     0.000 A 
HETATM   15  C   UNL     1      41.325 -14.407   0.849  1.00  0.00     0.001 A 
HETATM   16  C   UNL     1      42.008 -14.239   2.055  1.00  0.00     0.012 A 
ENDBRANCH   9  11
BRANCH  10  17
HETATM   17  C   UNL     1      41.148 -12.557   5.306  1.00  0.00     0.296 C 
HETATM   18  O   UNL     1      40.037 -12.633   5.813  1.00  0.00    -0.259 OA
BRANCH  17  19
HETATM   19  O   UNL     1      41.573 -11.497   4.560  1.00  0.00    -0.322 OA
HETATM   20  C   UNL     1      40.634 -11.036   3.591  1.00  0.00     0.213 C 
ENDBRANCH  17  19
ENDBRANCH  10  17
ENDBRANCH   3   5
ENDBRANCH   1   3
BRANCH   1  21
HETATM   21  N   UNL     1      43.414 -10.746   8.258  1.00  0.00    -0.273 N 
HETATM   22  H   UNL     1      42.693 -10.151   7.852  1.00  0.00     0.189 HD
BRANCH  21  23
HETATM   23  N   UNL     1      43.367 -10.824   9.659  1.00  0.00    -0.266 N 
HETATM   24  C   UNL     1      42.746  -9.792  10.344  1.00  0.00     0.265 C 
HETATM   25  O   UNL     1      42.226  -8.843   9.753  1.00  0.00    -0.269 OA
HETATM   26  H   UNL     1      43.932 -11.545  10.098  1.00  0.00     0.190 HD
BRANCH  24  27
HETATM   27  C   UNL     1      42.804  -9.900  11.881  1.00  0.00     0.218 C 
HETATM   28  C   UNL     1      43.516 -11.170  12.341  1.00  0.00     0.050 C 
BRANCH  27  29
HETATM   29  O   UNL     1      41.447  -9.956  12.345  1.00  0.00    -0.335 OA
BRANCH  29  30
HETATM   30  C   UNL     1      41.078  -9.028  13.279  1.00  0.00     0.091 A 
HETATM   31  C   UNL     1      40.064  -8.115  12.948  1.00  0.00     0.068 A 
HETATM   32 CL   UNL     1      39.217  -8.225  11.447  1.00  0.00    -0.081 Cl
HETATM   33  C   UNL     1      39.710  -7.097  13.834  1.00  0.00     0.046 A 
HETATM   34  C   UNL     1      40.382  -6.982  15.048  1.00  0.00     0.012 A 
HETATM   35 BR   UNL     1      39.919  -5.596  16.246  1.00  0.00    -0.051 Br
HETATM   36  C   UNL     1      41.406  -7.870  15.379  1.00  0.00     0.022 A 
HETATM   37  C   UNL     1      41.763  -8.888  14.489  1.00  0.00     0.040 A 
ENDBRANCH  29  30
ENDBRANCH  27  29
ENDBRANCH  24  27
ENDBRANCH  21  23
ENDBRANCH   1  21
TORSDOF 10
ENDMDL
MODEL 9
REMARK VINA RESULT:      -7.6      2.348      3.512
REMARK  10 active torsions:
REMARK  status: ('A' for Active; 'I' for Inactive)
REMARK    1  A    between atoms: C_4  and  N_5 
REMARK    2  A    between atoms: N_5  and  C_6 
REMARK    3  A    between atoms: C_6  and  N_7 
REMARK    4  A    between atoms: N_7  and  N_8 
REMARK       I    between atoms: N_8  and  C_9 
REMARK    5  A    between atoms: C_9  and  C_10 
REMARK    6  A    between atoms: C_10  and  O_11 
REMARK    7  A    between atoms: O_11  and  C_12 
REMARK    8  A    between atoms: C_23  and  C_24 
REMARK    9  A    between atoms: C_24  and  O_25 
REMARK   10  A    between atoms: C_28  and  C_29 
ROOT
HETATM    1  C   UNL     1      39.977 -10.462   5.822  1.00  0.00     0.191 C 
HETATM    2  S   UNL     1      38.695  -9.469   5.371  1.00  0.00    -0.039 SA
ENDROOT
BRANCH   1   3
HETATM    3  N   UNL     1      40.705 -11.033   4.815  1.00  0.00    -0.325 N 
HETATM    4  H   UNL     1      40.649 -10.495   3.957  1.00  0.00     0.169 HD
BRANCH   3   5
HETATM    5  C   UNL     1      41.035 -12.362   4.640  1.00  0.00     0.094 C 
HETATM    6  S   UNL     1      40.087 -13.064   3.411  1.00  0.00    -0.075 SA
HETATM    7  C   UNL     1      40.733 -14.618   3.693  1.00  0.00    -0.007 C 
HETATM    8  C   UNL     1      40.176 -15.789   2.946  1.00  0.00     0.057 C 
HETATM    9  C   UNL     1      41.763 -14.573   4.618  1.00  0.00     0.006 C 
HETATM   10  C   UNL     1      42.001 -13.229   5.121  1.00  0.00     0.085 C 
BRANCH   9  11
HETATM   11  C   UNL     1      42.475 -15.785   5.020  1.00  0.00    -0.024 A 
HETATM   12  C   UNL     1      43.446 -16.329   4.170  1.00  0.00     0.012 A 
HETATM   13  C   UNL     1      44.122 -17.496   4.534  1.00  0.00     0.001 A 
HETATM   14  C   UNL     1      43.831 -18.121   5.746  1.00  0.00     0.000 A 
HETATM   15  C   UNL     1      42.864 -17.584   6.594  1.00  0.00     0.001 A 
HETATM   16  C   UNL     1      42.184 -16.419   6.233  1.00  0.00     0.012 A 
ENDBRANCH   9  11
BRANCH  10  17
HETATM   17  C   UNL     1      43.137 -12.844   5.955  1.00  0.00     0.296 C 
HETATM   18  O   UNL     1      43.889 -13.648   6.489  1.00  0.00    -0.259 OA
BRANCH  17  19
HETATM   19  O   UNL     1      43.242 -11.491   6.098  1.00  0.00    -0.322 OA
HETATM   20  C   UNL     1      44.453 -11.050   6.708  1.00  0.00     0.213 C 
ENDBRANCH  17  19
ENDBRANCH  10  17
ENDBRANCH   3   5
ENDBRANCH   1   3
BRANCH   1  21
HETATM   21  N   UNL     1      40.220 -10.838   7.111  1.00  0.00    -0.273 N 
HETATM   22  H   UNL     1      40.003 -11.786   7.419  1.00  0.00     0.189 HD
BRANCH  21  23
HETATM   23  N   UNL     1      41.168 -10.182   7.913  1.00  0.00    -0.266 N 
HETATM   24  C   UNL     1      40.702  -9.393   8.952  1.00  0.00     0.265 C 
HETATM   25  O   UNL     1      39.497  -9.282   9.191  1.00  0.00    -0.269 OA
HETATM   26  H   UNL     1      42.130 -10.192   7.587  1.00  0.00     0.190 HD
BRANCH  24  27
HETATM   27  C   UNL     1      41.792  -8.638   9.739  1.00  0.00     0.218 C 
HETATM   28  C   UNL     1      43.002  -8.307   8.869  1.00  0.00     0.050 C 
BRANCH  27  29
HETATM   29  O   UNL     1      42.224  -9.511  10.793  1.00  0.00    -0.335 OA
BRANCH  29  30
HETATM   30  C   UNL     1      42.231  -8.991  12.057  1.00  0.00     0.091 A 
HETATM   31  C   UNL     1      41.142  -9.266  12.898  1.00  0.00     0.068 A 
HETATM   32 CL   UNL     1      39.873 -10.328  12.400  1.00  0.00    -0.081 Cl
HETATM   33  C   UNL     1      41.062  -8.691  14.167  1.00  0.00     0.046 A 
HETATM   34  C   UNL     1      42.067  -7.826  14.590  1.00  0.00     0.012 A 
HETATM   35 BR   UNL     1      41.958  -7.030  16.301  1.00  0.00    -0.051 Br
HETATM   36  C   UNL     1      43.145  -7.528  13.756  1.00  0.00     0.022 A 
HETATM   37  C   UNL     1      43.222  -8.102  12.483  1.00  0.00     0.040 A 
ENDBRANCH  29  30
ENDBRANCH  27  29
ENDBRANCH  24  27
ENDBRANCH  21  23
ENDBRANCH   1  21
TORSDOF 10
ENDMDL
MODEL 10
REMARK VINA RESULT:      -7.6      4.427     10.546
REMARK  10 active torsions:
REMARK  status: ('A' for Active; 'I' for Inactive)
REMARK    1  A    between atoms: C_4  and  N_5 
REMARK    2  A    between atoms: N_5  and  C_6 
REMARK    3  A    between atoms: C_6  and  N_7 
REMARK    4  A    between atoms: N_7  and  N_8 
REMARK       I    between atoms: N_8  and  C_9 
REMARK    5  A    between atoms: C_9  and  C_10 
REMARK    6  A    between atoms: C_10  and  O_11 
REMARK    7  A    between atoms: O_11  and  C_12 
REMARK    8  A    between atoms: C_23  and  C_24 
REMARK    9  A    between atoms: C_24  and  O_25 
REMARK   10  A    between atoms: C_28  and  C_29 
ROOT
HETATM    1  C   UNL     1      43.413  -9.953   7.918  1.00  0.00     0.191 C 
HETATM    2  S   UNL     1      45.021 -10.144   8.376  1.00  0.00    -0.039 SA
ENDROOT
BRANCH   1   3
HETATM    3  N   UNL     1      42.877  -8.700   8.037  1.00  0.00    -0.325 N 
HETATM    4  H   UNL     1      43.053  -8.135   7.213  1.00  0.00     0.169 HD
BRANCH   3   5
HETATM    5  C   UNL     1      42.625  -7.978   9.187  1.00  0.00     0.094 C 
HETATM    6  S   UNL     1      42.667  -6.305   8.872  1.00  0.00    -0.075 SA
HETATM    7  C   UNL     1      42.471  -5.911  10.520  1.00  0.00    -0.007 C 
HETATM    8  C   UNL     1      42.545  -4.478  10.945  1.00  0.00     0.057 C 
HETATM    9  C   UNL     1      42.234  -7.044  11.282  1.00  0.00     0.006 C 
HETATM   10  C   UNL     1      42.242  -8.262  10.486  1.00  0.00     0.085 C 
BRANCH   9  11
HETATM   11  C   UNL     1      42.030  -6.957  12.727  1.00  0.00    -0.024 A 
HETATM   12  C   UNL     1      40.762  -6.633  13.227  1.00  0.00     0.012 A 
HETATM   13  C   UNL     1      40.558  -6.530  14.605  1.00  0.00     0.001 A 
HETATM   14  C   UNL     1      41.616  -6.750  15.486  1.00  0.00     0.000 A 
HETATM   15  C   UNL     1      42.880  -7.072  14.992  1.00  0.00     0.001 A 
HETATM   16  C   UNL     1      43.089  -7.173  13.615  1.00  0.00     0.012 A 
ENDBRANCH   9  11
BRANCH  10  17
HETATM   17  C   UNL     1      41.836  -9.576  10.976  1.00  0.00     0.296 C 
HETATM   18  O   UNL     1      42.619 -10.403  11.426  1.00  0.00    -0.259 OA
BRANCH  17  19
HETATM   19  O   UNL     1      40.495  -9.789  10.843  1.00  0.00    -0.322 OA
HETATM   20  C   UNL     1      39.811 -10.052  12.066  1.00  0.00     0.213 C 
ENDBRANCH  17  19
ENDBRANCH  10  17
ENDBRANCH   3   5
ENDBRANCH   1   3
BRANCH   1  21
HETATM   21  N   UNL     1      42.594 -10.995   7.590  1.00  0.00    -0.273 N 
HETATM   22  H   UNL     1      41.747 -11.171   8.129  1.00  0.00     0.189 HD
BRANCH  21  23
HETATM   23  N   UNL     1      42.575 -11.550   6.300  1.00  0.00    -0.266 N 
HETATM   24  C   UNL     1      43.043 -12.845   6.146  1.00  0.00     0.265 C 
HETATM   25  O   UNL     1      43.444 -13.508   7.105  1.00  0.00    -0.269 OA
HETATM   26  H   UNL     1      42.373 -10.917   5.532  1.00  0.00     0.190 HD
BRANCH  24  27
HETATM   27  C   UNL     1      43.070 -13.361   4.693  1.00  0.00     0.218 C 
HETATM   28  C   UNL     1      42.688 -12.274   3.691  1.00  0.00     0.050 C 
BRANCH  27  29
HETATM   29  O   UNL     1      42.095 -14.410   4.606  1.00  0.00    -0.335 OA
BRANCH  29  30
HETATM   30  C   UNL     1      42.517 -15.599   4.079  1.00  0.00     0.091 A 
HETATM   31  C   UNL     1      41.820 -16.125   2.980  1.00  0.00     0.068 A 
HETATM   32 CL   UNL     1      40.534 -15.247   2.232  1.00  0.00    -0.081 Cl
HETATM   33  C   UNL     1      42.159 -17.374   2.457  1.00  0.00     0.046 A 
HETATM   34  C   UNL     1      43.187 -18.105   3.046  1.00  0.00     0.012 A 
HETATM   35 BR   UNL     1      43.642 -19.804   2.354  1.00  0.00    -0.051 Br
HETATM   36  C   UNL     1      43.873 -17.602   4.151  1.00  0.00     0.022 A 
HETATM   37  C   UNL     1      43.531 -16.352   4.676  1.00  0.00     0.040 A 
ENDBRANCH  29  30
ENDBRANCH  27  29
ENDBRANCH  24  27
ENDBRANCH  21  23
ENDBRANCH   1  21
TORSDOF 10
ENDMDL
