MODEL 1
REMARK VINA RESULT:      -7.7      0.000      0.000
REMARK  4 active torsions:
REMARK  status: ('A' for Active; 'I' for Inactive)
REMARK    1  A    between atoms: C_2  and  N_3 
REMARK    2  A    between atoms: C_2  and  C_13 
REMARK       I    between atoms: N_3  and  C_4 
REMARK    3  A    between atoms: C_4  and  C_5 
REMARK    4  A    between atoms: C_6  and  C_7 
ROOT
HETATM    1  C   UNL     1      43.372 -14.698   1.750  1.00  0.00     0.040 C 
HETATM    2  C   UNL     1      42.642 -15.176   3.004  1.00  0.00     0.150 C 
ENDROOT
BRANCH   2   3
HETATM    3  N   UNL     1      43.009 -14.385   4.161  1.00  0.00    -0.346 N 
HETATM    4  C   UNL     1      42.074 -13.843   4.998  1.00  0.00     0.241 C 
HETATM    5  O   UNL     1      40.867 -14.010   4.874  1.00  0.00    -0.269 OA
HETATM    6  H   UNL     1      44.000 -14.197   4.271  1.00  0.00     0.163 HD
BRANCH   4   7
HETATM    7  C   UNL     1      42.668 -13.018   6.076  1.00  0.00     0.075 C 
HETATM    8  C   UNL     1      43.863 -12.436   5.885  1.00  0.00     0.017 C 
BRANCH   8   9
HETATM    9  C   UNL     1      44.564 -11.620   6.832  1.00  0.00    -0.029 A 
HETATM   10  C   UNL     1      43.962 -11.188   7.998  1.00  0.00     0.061 A 
HETATM   11  S   UNL     1      45.004 -10.228   8.959  1.00  0.00    -0.113 SA
HETATM   12  C   UNL     1      46.275 -10.384   7.827  1.00  0.00     0.050 A 
HETATM   13  C   UNL     1      45.910 -11.149   6.739  1.00  0.00     0.019 A 
ENDBRANCH   8   9
ENDBRANCH   4   7
ENDBRANCH   2   3
BRANCH   2  14
HETATM   14  C   UNL     1      43.006 -16.598   3.314  1.00  0.00     0.127 A 
HETATM   15  N   UNL     1      43.394 -17.077   4.484  1.00  0.00    -0.231 NA
HETATM   16  C   UNL     1      43.627 -18.415   4.272  1.00  0.00     0.085 A 
HETATM   17  C   UNL     1      43.367 -18.763   2.952  1.00  0.00     0.062 A 
HETATM   18  C   UNL     1      44.067 -19.402   5.167  1.00  0.00     0.034 A 
HETATM   19  N   UNL     1      42.963 -17.591   2.366  1.00  0.00    -0.341 N 
HETATM   20  C   UNL     1      43.522 -20.059   2.455  1.00  0.00     0.032 A 
HETATM   21  H   UNL     1      42.689 -17.477   1.401  1.00  0.00     0.167 HD
HETATM   22  C   UNL     1      43.965 -21.030   3.362  1.00  0.00     0.002 A 
HETATM   23  C   UNL     1      44.234 -20.710   4.695  1.00  0.00     0.002 A 
ENDBRANCH   2  14
TORSDOF 4
ENDMDL
MODEL 2
REMARK VINA RESULT:      -7.5      4.255      6.463
REMARK  4 active torsions:
REMARK  status: ('A' for Active; 'I' for Inactive)
REMARK    1  A    between atoms: C_2  and  N_3 
REMARK    2  A    between atoms: C_2  and  C_13 
REMARK       I    between atoms: N_3  and  C_4 
REMARK    3  A    between atoms: C_4  and  C_5 
REMARK    4  A    between atoms: C_6  and  C_7 
ROOT
HETATM    1  C   UNL     1      42.832 -14.227   4.188  1.00  0.00     0.040 C 
HETATM    2  C   UNL     1      43.152 -15.020   2.922  1.00  0.00     0.150 C 
ENDROOT
BRANCH   2   3
HETATM    3  N   UNL     1      42.063 -14.954   1.970  1.00  0.00    -0.346 N 
HETATM    4  C   UNL     1      40.846 -15.525   2.215  1.00  0.00     0.241 C 
HETATM    5  O   UNL     1      40.557 -16.096   3.259  1.00  0.00    -0.269 OA
HETATM    6  H   UNL     1      42.281 -14.518   1.079  1.00  0.00     0.163 HD
BRANCH   4   7
HETATM    7  C   UNL     1      39.902 -15.392   1.080  1.00  0.00     0.075 C 
HETATM    8  C   UNL     1      40.199 -14.568   0.063  1.00  0.00     0.017 C 
BRANCH   8   9
HETATM    9  C   UNL     1      39.387 -14.331  -1.094  1.00  0.00    -0.029 A 
HETATM   10  C   UNL     1      38.731 -13.130  -1.283  1.00  0.00     0.061 A 
HETATM   11  S   UNL     1      37.827 -13.096  -2.735  1.00  0.00    -0.113 SA
HETATM   12  C   UNL     1      38.308 -14.687  -3.132  1.00  0.00     0.050 A 
HETATM   13  C   UNL     1      39.138 -15.233  -2.176  1.00  0.00     0.019 A 
ENDBRANCH   8   9
ENDBRANCH   4   7
ENDBRANCH   2   3
BRANCH   2  14
HETATM   14  C   UNL     1      43.362 -16.469   3.247  1.00  0.00     0.127 A 
HETATM   15  N   UNL     1      43.655 -16.979   4.431  1.00  0.00    -0.231 NA
HETATM   16  C   UNL     1      43.763 -18.334   4.230  1.00  0.00     0.085 A 
HETATM   17  C   UNL     1      43.523 -18.660   2.900  1.00  0.00     0.062 A 
HETATM   18  C   UNL     1      44.069 -19.355   5.142  1.00  0.00     0.034 A 
HETATM   19  N   UNL     1      43.260 -17.457   2.298  1.00  0.00    -0.341 N 
HETATM   20  C   UNL     1      43.570 -19.968   2.411  1.00  0.00     0.032 A 
HETATM   21  H   UNL     1      43.037 -17.321   1.323  1.00  0.00     0.167 HD
HETATM   22  C   UNL     1      43.879 -20.974   3.335  1.00  0.00     0.002 A 
HETATM   23  C   UNL     1      44.124 -20.675   4.678  1.00  0.00     0.002 A 
ENDBRANCH   2  14
TORSDOF 4
ENDMDL
MODEL 3
REMARK VINA RESULT:      -7.5      4.206      6.535
REMARK  4 active torsions:
REMARK  status: ('A' for Active; 'I' for Inactive)
REMARK    1  A    between atoms: C_2  and  N_3 
REMARK    2  A    between atoms: C_2  and  C_13 
REMARK       I    between atoms: N_3  and  C_4 
REMARK    3  A    between atoms: C_4  and  C_5 
REMARK    4  A    between atoms: C_6  and  C_7 
ROOT
HETATM    1  C   UNL     1      42.874 -14.358   4.313  1.00  0.00     0.040 C 
HETATM    2  C   UNL     1      43.177 -15.090   3.007  1.00  0.00     0.150 C 
ENDROOT
BRANCH   2   3
HETATM    3  N   UNL     1      42.075 -14.979   2.074  1.00  0.00    -0.346 N 
HETATM    4  C   UNL     1      40.841 -15.501   2.340  1.00  0.00     0.241 C 
HETATM    5  O   UNL     1      40.547 -16.060   3.390  1.00  0.00    -0.269 OA
HETATM    6  H   UNL     1      42.295 -14.553   1.179  1.00  0.00     0.163 HD
BRANCH   4   7
HETATM    7  C   UNL     1      39.884 -15.331   1.221  1.00  0.00     0.075 C 
HETATM    8  C   UNL     1      40.248 -14.627   0.137  1.00  0.00     0.017 C 
BRANCH   8   9
HETATM    9  C   UNL     1      39.434 -14.372  -1.014  1.00  0.00    -0.029 A 
HETATM   10  C   UNL     1      38.804 -13.157  -1.198  1.00  0.00     0.061 A 
HETATM   11  S   UNL     1      37.891 -13.102  -2.645  1.00  0.00    -0.113 SA
HETATM   12  C   UNL     1      38.335 -14.704  -3.046  1.00  0.00     0.050 A 
HETATM   13  C   UNL     1      39.159 -15.267  -2.095  1.00  0.00     0.019 A 
ENDBRANCH   8   9
ENDBRANCH   4   7
ENDBRANCH   2   3
BRANCH   2  14
HETATM   14  C   UNL     1      43.391 -16.552   3.261  1.00  0.00     0.127 A 
HETATM   15  N   UNL     1      43.464 -17.509   2.352  1.00  0.00    -0.231 NA
HETATM   16  C   UNL     1      43.650 -18.673   3.059  1.00  0.00     0.085 A 
HETATM   17  C   UNL     1      43.702 -18.422   4.425  1.00  0.00     0.062 A 
HETATM   18  C   UNL     1      43.783 -19.991   2.598  1.00  0.00     0.034 A 
HETATM   19  N   UNL     1      43.545 -17.064   4.526  1.00  0.00    -0.341 N 
HETATM   20  C   UNL     1      43.879 -19.423   5.382  1.00  0.00     0.032 A 
HETATM   21  H   UNL     1      43.536 -16.533   5.385  1.00  0.00     0.167 HD
HETATM   22  C   UNL     1      44.007 -20.733   4.905  1.00  0.00     0.002 A 
HETATM   23  C   UNL     1      43.960 -21.015   3.537  1.00  0.00     0.002 A 
ENDBRANCH   2  14
TORSDOF 4
ENDMDL
MODEL 4
REMARK VINA RESULT:      -7.3      2.938      7.688
REMARK  4 active torsions:
REMARK  status: ('A' for Active; 'I' for Inactive)
REMARK    1  A    between atoms: C_2  and  N_3 
REMARK    2  A    between atoms: C_2  and  C_13 
REMARK       I    between atoms: N_3  and  C_4 
REMARK    3  A    between atoms: C_4  and  C_5 
REMARK    4  A    between atoms: C_6  and  C_7 
ROOT
HETATM    1  C   UNL     1      40.076 -12.542   5.373  1.00  0.00     0.040 C 
HETATM    2  C   UNL     1      41.411 -12.849   4.697  1.00  0.00     0.150 C 
ENDROOT
BRANCH   2   3
HETATM    3  N   UNL     1      41.635 -14.276   4.599  1.00  0.00    -0.346 N 
HETATM    4  C   UNL     1      41.985 -14.879   3.423  1.00  0.00     0.241 C 
HETATM    5  O   UNL     1      42.180 -14.274   2.377  1.00  0.00    -0.269 OA
HETATM    6  H   UNL     1      41.447 -14.812   5.441  1.00  0.00     0.163 HD
BRANCH   4   7
HETATM    7  C   UNL     1      42.100 -16.352   3.537  1.00  0.00     0.075 C 
HETATM    8  C   UNL     1      43.313 -16.927   3.516  1.00  0.00     0.017 C 
BRANCH   8   9
HETATM    9  C   UNL     1      43.581 -18.332   3.609  1.00  0.00    -0.029 A 
HETATM   10  C   UNL     1      43.988 -18.913   4.795  1.00  0.00     0.061 A 
HETATM   11  S   UNL     1      44.246 -20.598   4.646  1.00  0.00    -0.113 SA
HETATM   12  C   UNL     1      43.809 -20.571   2.994  1.00  0.00     0.050 A 
HETATM   13  C   UNL     1      43.477 -19.303   2.566  1.00  0.00     0.019 A 
ENDBRANCH   8   9
ENDBRANCH   4   7
ENDBRANCH   2   3
BRANCH   2  14
HETATM   14  C   UNL     1      42.547 -12.281   5.495  1.00  0.00     0.127 A 
HETATM   15  N   UNL     1      43.803 -12.155   5.102  1.00  0.00    -0.231 NA
HETATM   16  C   UNL     1      44.468 -11.603   6.171  1.00  0.00     0.085 A 
HETATM   17  C   UNL     1      43.601 -11.378   7.233  1.00  0.00     0.062 A 
HETATM   18  C   UNL     1      45.822 -11.266   6.308  1.00  0.00     0.034 A 
HETATM   19  N   UNL     1      42.383 -11.808   6.774  1.00  0.00    -0.341 N 
HETATM   20  C   UNL     1      44.007 -10.827   8.451  1.00  0.00     0.032 A 
HETATM   21  H   UNL     1      41.516 -11.788   7.292  1.00  0.00     0.167 HD
HETATM   22  C   UNL     1      45.363 -10.499   8.571  1.00  0.00     0.002 A 
HETATM   23  C   UNL     1      46.257 -10.714   7.519  1.00  0.00     0.002 A 
ENDBRANCH   2  14
TORSDOF 4
ENDMDL
MODEL 5
REMARK VINA RESULT:      -7.2      4.070      6.244
REMARK  4 active torsions:
REMARK  status: ('A' for Active; 'I' for Inactive)
REMARK    1  A    between atoms: C_2  and  N_3 
REMARK    2  A    between atoms: C_2  and  C_13 
REMARK       I    between atoms: N_3  and  C_4 
REMARK    3  A    between atoms: C_4  and  C_5 
REMARK    4  A    between atoms: C_6  and  C_7 
ROOT
HETATM    1  C   UNL     1      42.347 -14.421   5.317  1.00  0.00     0.040 C 
HETATM    2  C   UNL     1      42.891 -14.695   3.917  1.00  0.00     0.150 C 
ENDROOT
BRANCH   2   3
HETATM    3  N   UNL     1      41.949 -14.283   2.896  1.00  0.00    -0.346 N 
HETATM    4  C   UNL     1      42.007 -13.052   2.306  1.00  0.00     0.241 C 
HETATM    5  O   UNL     1      42.870 -12.218   2.548  1.00  0.00    -0.269 OA
HETATM    6  H   UNL     1      41.199 -14.938   2.698  1.00  0.00     0.163 HD
BRANCH   4   7
HETATM    7  C   UNL     1      40.909 -12.820   1.338  1.00  0.00     0.075 C 
HETATM    8  C   UNL     1      40.703 -13.697   0.343  1.00  0.00     0.017 C 
BRANCH   8   9
HETATM    9  C   UNL     1      39.691 -13.604  -0.667  1.00  0.00    -0.029 A 
HETATM   10  C   UNL     1      38.889 -12.485  -0.785  1.00  0.00     0.061 A 
HETATM   11  S   UNL     1      37.759 -12.618  -2.063  1.00  0.00    -0.113 SA
HETATM   12  C   UNL     1      38.334 -14.173  -2.478  1.00  0.00     0.050 A 
HETATM   13  C   UNL     1      39.363 -14.582  -1.657  1.00  0.00     0.019 A 
ENDBRANCH   8   9
ENDBRANCH   4   7
ENDBRANCH   2   3
BRANCH   2  14
HETATM   14  C   UNL     1      43.132 -16.162   3.723  1.00  0.00     0.127 A 
HETATM   15  N   UNL     1      42.914 -16.861   2.622  1.00  0.00    -0.231 NA
HETATM   16  C   UNL     1      43.267 -18.152   2.931  1.00  0.00     0.085 A 
HETATM   17  C   UNL     1      43.720 -18.244   4.242  1.00  0.00     0.062 A 
HETATM   18  C   UNL     1      43.227 -19.308   2.137  1.00  0.00     0.034 A 
HETATM   19  N   UNL     1      43.633 -16.963   4.721  1.00  0.00    -0.341 N 
HETATM   20  C   UNL     1      44.142 -19.440   4.825  1.00  0.00     0.032 A 
HETATM   21  H   UNL     1      43.888 -16.661   5.650  1.00  0.00     0.167 HD
HETATM   22  C   UNL     1      44.092 -20.584   4.019  1.00  0.00     0.002 A 
HETATM   23  C   UNL     1      43.643 -20.522   2.697  1.00  0.00     0.002 A 
ENDBRANCH   2  14
TORSDOF 4
ENDMDL
MODEL 6
REMARK VINA RESULT:      -7.1      1.465      2.179
REMARK  4 active torsions:
REMARK  status: ('A' for Active; 'I' for Inactive)
REMARK    1  A    between atoms: C_2  and  N_3 
REMARK    2  A    between atoms: C_2  and  C_13 
REMARK       I    between atoms: N_3  and  C_4 
REMARK    3  A    between atoms: C_4  and  C_5 
REMARK    4  A    between atoms: C_6  and  C_7 
ROOT
HETATM    1  C   UNL     1      40.118 -13.739   2.530  1.00  0.00     0.040 C 
HETATM    2  C   UNL     1      40.587 -14.274   3.881  1.00  0.00     0.150 C 
ENDROOT
BRANCH   2   3
HETATM    3  N   UNL     1      41.364 -13.285   4.599  1.00  0.00    -0.346 N 
HETATM    4  C   UNL     1      40.909 -12.691   5.742  1.00  0.00     0.241 C 
HETATM    5  O   UNL     1      39.843 -12.967   6.278  1.00  0.00    -0.269 OA
HETATM    6  H   UNL     1      42.237 -13.008   4.161  1.00  0.00     0.163 HD
BRANCH   4   7
HETATM    7  C   UNL     1      41.836 -11.664   6.272  1.00  0.00     0.075 C 
HETATM    8  C   UNL     1      43.079 -12.017   6.637  1.00  0.00     0.017 C 
BRANCH   8   9
HETATM    9  C   UNL     1      44.082 -11.142   7.170  1.00  0.00    -0.029 A 
HETATM   10  C   UNL     1      43.746 -10.030   7.919  1.00  0.00     0.061 A 
HETATM   11  S   UNL     1      45.118  -9.148   8.437  1.00  0.00    -0.113 SA
HETATM   12  C   UNL     1      46.178 -10.247   7.670  1.00  0.00     0.050 A 
HETATM   13  C   UNL     1      45.499 -11.263   7.031  1.00  0.00     0.019 A 
ENDBRANCH   8   9
ENDBRANCH   4   7
ENDBRANCH   2   3
BRANCH   2  14
HETATM   14  C   UNL     1      41.469 -15.473   3.695  1.00  0.00     0.127 A 
HETATM   15  N   UNL     1      41.453 -16.315   2.675  1.00  0.00    -0.231 NA
HETATM   16  C   UNL     1      42.422 -17.249   2.957  1.00  0.00     0.085 A 
HETATM   17  C   UNL     1      43.047 -16.968   4.165  1.00  0.00     0.062 A 
HETATM   18  C   UNL     1      42.823 -18.374   2.221  1.00  0.00     0.034 A 
HETATM   19  N   UNL     1      42.430 -15.828   4.610  1.00  0.00    -0.341 N 
HETATM   20  C   UNL     1      44.069 -17.755   4.701  1.00  0.00     0.032 A 
HETATM   21  H   UNL     1      42.641 -15.338   5.467  1.00  0.00     0.167 HD
HETATM   22  C   UNL     1      44.456 -18.876   3.955  1.00  0.00     0.002 A 
HETATM   23  C   UNL     1      43.845 -19.182   2.736  1.00  0.00     0.002 A 
ENDBRANCH   2  14
TORSDOF 4
ENDMDL
MODEL 7
REMARK VINA RESULT:      -6.8      5.099      9.848
REMARK  4 active torsions:
REMARK  status: ('A' for Active; 'I' for Inactive)
REMARK    1  A    between atoms: C_2  and  N_3 
REMARK    2  A    between atoms: C_2  and  C_13 
REMARK       I    between atoms: N_3  and  C_4 
REMARK    3  A    between atoms: C_4  and  C_5 
REMARK    4  A    between atoms: C_6  and  C_7 
ROOT
HETATM    1  C   UNL     1      44.705  -8.548   8.521  1.00  0.00     0.040 C 
HETATM    2  C   UNL     1      44.451  -9.850   9.279  1.00  0.00     0.150 C 
ENDROOT
BRANCH   2   3
HETATM    3  N   UNL     1      43.698 -10.790   8.474  1.00  0.00    -0.346 N 
HETATM    4  C   UNL     1      44.291 -11.572   7.523  1.00  0.00     0.241 C 
HETATM    5  O   UNL     1      45.495 -11.583   7.300  1.00  0.00    -0.269 OA
HETATM    6  H   UNL     1      42.692 -10.780   8.609  1.00  0.00     0.163 HD
BRANCH   4   7
HETATM    7  C   UNL     1      43.325 -12.411   6.776  1.00  0.00     0.075 C 
HETATM    8  C   UNL     1      43.461 -13.747   6.781  1.00  0.00     0.017 C 
BRANCH   8   9
HETATM    9  C   UNL     1      42.614 -14.683   6.103  1.00  0.00    -0.029 A 
HETATM   10  C   UNL     1      42.532 -14.716   4.724  1.00  0.00     0.061 A 
HETATM   11  S   UNL     1      41.452 -15.918   4.159  1.00  0.00    -0.113 SA
HETATM   12  C   UNL     1      41.086 -16.412   5.754  1.00  0.00     0.050 A 
HETATM   13  C   UNL     1      41.771 -15.674   6.696  1.00  0.00     0.019 A 
ENDBRANCH   8   9
ENDBRANCH   4   7
ENDBRANCH   2   3
BRANCH   2  14
HETATM   14  C   UNL     1      43.645  -9.590  10.516  1.00  0.00     0.127 A 
HETATM   15  N   UNL     1      43.967  -8.784  11.514  1.00  0.00    -0.231 NA
HETATM   16  C   UNL     1      42.935  -8.888  12.416  1.00  0.00     0.085 A 
HETATM   17  C   UNL     1      41.960  -9.765  11.957  1.00  0.00     0.062 A 
HETATM   18  C   UNL     1      42.763  -8.259  13.658  1.00  0.00     0.034 A 
HETATM   19  N   UNL     1      42.431 -10.190  10.742  1.00  0.00    -0.341 N 
HETATM   20  C   UNL     1      40.799 -10.064  12.674  1.00  0.00     0.032 A 
HETATM   21  H   UNL     1      41.967 -10.840  10.123  1.00  0.00     0.167 HD
HETATM   22  C   UNL     1      40.645  -9.429  13.913  1.00  0.00     0.002 A 
HETATM   23  C   UNL     1      41.608  -8.542  14.399  1.00  0.00     0.002 A 
ENDBRANCH   2  14
TORSDOF 4
ENDMDL
MODEL 8
REMARK VINA RESULT:      -6.7      4.292      7.616
REMARK  4 active torsions:
REMARK  status: ('A' for Active; 'I' for Inactive)
REMARK    1  A    between atoms: C_2  and  N_3 
REMARK    2  A    between atoms: C_2  and  C_13 
REMARK       I    between atoms: N_3  and  C_4 
REMARK    3  A    between atoms: C_4  and  C_5 
REMARK    4  A    between atoms: C_6  and  C_7 
ROOT
HETATM    1  C   UNL     1      39.746 -12.155   3.649  1.00  0.00     0.040 C 
HETATM    2  C   UNL     1      39.378 -13.357   2.780  1.00  0.00     0.150 C 
ENDROOT
BRANCH   2   3
HETATM    3  N   UNL     1      40.061 -14.555   3.222  1.00  0.00    -0.346 N 
HETATM    4  C   UNL     1      41.414 -14.593   3.413  1.00  0.00     0.241 C 
HETATM    5  O   UNL     1      42.151 -13.625   3.274  1.00  0.00    -0.269 OA
HETATM    6  H   UNL     1      39.483 -15.385   3.312  1.00  0.00     0.163 HD
BRANCH   4   7
HETATM    7  C   UNL     1      41.908 -15.935   3.803  1.00  0.00     0.075 C 
HETATM    8  C   UNL     1      42.600 -16.670   2.917  1.00  0.00     0.017 C 
BRANCH   8   9
HETATM    9  C   UNL     1      43.133 -17.981   3.145  1.00  0.00    -0.029 A 
HETATM   10  C   UNL     1      43.719 -18.323   4.348  1.00  0.00     0.061 A 
HETATM   11  S   UNL     1      44.279 -19.941   4.370  1.00  0.00    -0.113 SA
HETATM   12  C   UNL     1      43.737 -20.203   2.770  1.00  0.00     0.050 A 
HETATM   13  C   UNL     1      43.146 -19.080   2.231  1.00  0.00     0.019 A 
ENDBRANCH   8   9
ENDBRANCH   4   7
ENDBRANCH   2   3
BRANCH   2  14
HETATM   14  C   UNL     1      39.785 -13.121   1.356  1.00  0.00     0.127 A 
HETATM   15  N   UNL     1      40.379 -12.043   0.872  1.00  0.00    -0.231 NA
HETATM   16  C   UNL     1      40.535 -12.283  -0.472  1.00  0.00     0.085 A 
HETATM   17  C   UNL     1      40.036 -13.534  -0.815  1.00  0.00     0.062 A 
HETATM   18  C   UNL     1      41.096 -11.471  -1.469  1.00  0.00     0.034 A 
HETATM   19  N   UNL     1      39.574 -14.051   0.367  1.00  0.00    -0.341 N 
HETATM   20  C   UNL     1      40.059 -14.038  -2.118  1.00  0.00     0.032 A 
HETATM   21  H   UNL     1      39.145 -14.957   0.488  1.00  0.00     0.167 HD
HETATM   22  C   UNL     1      40.621 -13.213  -3.100  1.00  0.00     0.002 A 
HETATM   23  C   UNL     1      41.131 -11.951  -2.784  1.00  0.00     0.002 A 
ENDBRANCH   2  14
TORSDOF 4
ENDMDL
MODEL 9
REMARK VINA RESULT:      -6.6      4.378      6.438
REMARK  4 active torsions:
REMARK  status: ('A' for Active; 'I' for Inactive)
REMARK    1  A    between atoms: C_2  and  N_3 
REMARK    2  A    between atoms: C_2  and  C_13 
REMARK       I    between atoms: N_3  and  C_4 
REMARK    3  A    between atoms: C_4  and  C_5 
REMARK    4  A    between atoms: C_6  and  C_7 
ROOT
HETATM    1  C   UNL     1      45.690 -11.099   7.389  1.00  0.00     0.040 C 
HETATM    2  C   UNL     1      44.166 -10.994   7.377  1.00  0.00     0.150 C 
ENDROOT
BRANCH   2   3
HETATM    3  N   UNL     1      43.646 -10.723   8.702  1.00  0.00    -0.346 N 
HETATM    4  C   UNL     1      43.674  -9.473   9.253  1.00  0.00     0.241 C 
HETATM    5  O   UNL     1      44.092  -8.479   8.672  1.00  0.00    -0.269 OA
HETATM    6  H   UNL     1      43.326 -11.532   9.224  1.00  0.00     0.163 HD
BRANCH   4   7
HETATM    7  C   UNL     1      43.151  -9.438  10.639  1.00  0.00     0.075 C 
HETATM    8  C   UNL     1      43.292  -8.323  11.374  1.00  0.00     0.017 C 
BRANCH   8   9
HETATM    9  C   UNL     1      42.847  -8.142  12.724  1.00  0.00    -0.029 A 
HETATM   10  C   UNL     1      41.865  -8.942  13.275  1.00  0.00     0.061 A 
HETATM   11  S   UNL     1      41.509  -8.525  14.896  1.00  0.00    -0.113 SA
HETATM   12  C   UNL     1      42.670  -7.271  14.882  1.00  0.00     0.050 A 
HETATM   13  C   UNL     1      43.313  -7.172  13.666  1.00  0.00     0.019 A 
ENDBRANCH   8   9
ENDBRANCH   4   7
ENDBRANCH   2   3
BRANCH   2  14
HETATM   14  C   UNL     1      43.553 -12.284   6.921  1.00  0.00     0.127 A 
HETATM   15  N   UNL     1      44.189 -13.415   6.667  1.00  0.00    -0.231 NA
HETATM   16  C   UNL     1      43.216 -14.301   6.270  1.00  0.00     0.085 A 
HETATM   17  C   UNL     1      41.961 -13.705   6.291  1.00  0.00     0.062 A 
HETATM   18  C   UNL     1      43.332 -15.641   5.872  1.00  0.00     0.034 A 
HETATM   19  N   UNL     1      42.201 -12.425   6.719  1.00  0.00    -0.341 N 
HETATM   20  C   UNL     1      40.789 -14.373   5.931  1.00  0.00     0.032 A 
HETATM   21  H   UNL     1      41.504 -11.707   6.854  1.00  0.00     0.167 HD
HETATM   22  C   UNL     1      40.923 -15.709   5.534  1.00  0.00     0.002 A 
HETATM   23  C   UNL     1      42.172 -16.335   5.504  1.00  0.00     0.002 A 
ENDBRANCH   2  14
TORSDOF 4
ENDMDL
MODEL 10
REMARK VINA RESULT:      -6.5     15.046     17.271
REMARK  4 active torsions:
REMARK  status: ('A' for Active; 'I' for Inactive)
REMARK    1  A    between atoms: C_2  and  N_3 
REMARK    2  A    between atoms: C_2  and  C_13 
REMARK       I    between atoms: N_3  and  C_4 
REMARK    3  A    between atoms: C_4  and  C_5 
REMARK    4  A    between atoms: C_6  and  C_7 
ROOT
HETATM    1  C   UNL     1      42.398 -29.814   1.248  1.00  0.00     0.040 C 
HETATM    2  C   UNL     1      43.639 -29.240   0.567  1.00  0.00     0.150 C 
ENDROOT
BRANCH   2   3
HETATM    3  N   UNL     1      43.959 -29.968  -0.644  1.00  0.00    -0.346 N 
HETATM    4  C   UNL     1      44.505 -29.357  -1.738  1.00  0.00     0.241 C 
HETATM    5  O   UNL     1      44.809 -28.172  -1.778  1.00  0.00    -0.269 OA
HETATM    6  H   UNL     1      43.687 -30.946  -0.656  1.00  0.00     0.163 HD
BRANCH   4   7
HETATM    7  C   UNL     1      44.690 -30.277  -2.885  1.00  0.00     0.075 C 
HETATM    8  C   UNL     1      44.528 -29.818  -4.137  1.00  0.00     0.017 C 
BRANCH   8   9
HETATM    9  C   UNL     1      44.665 -30.585  -5.340  1.00  0.00    -0.029 A 
HETATM   10  C   UNL     1      45.793 -31.343  -5.588  1.00  0.00     0.061 A 
HETATM   11  S   UNL     1      45.716 -32.162  -7.089  1.00  0.00    -0.113 SA
HETATM   12  C   UNL     1      44.170 -31.515  -7.422  1.00  0.00     0.050 A 
HETATM   13  C   UNL     1      43.724 -30.690  -6.410  1.00  0.00     0.019 A 
ENDBRANCH   8   9
ENDBRANCH   4   7
ENDBRANCH   2   3
BRANCH   2  14
HETATM   14  C   UNL     1      44.832 -29.346   1.469  1.00  0.00     0.127 A 
HETATM   15  N   UNL     1      45.010 -30.222   2.443  1.00  0.00    -0.231 NA
HETATM   16  C   UNL     1      46.234 -29.918   2.991  1.00  0.00     0.085 A 
HETATM   17  C   UNL     1      46.819 -28.843   2.333  1.00  0.00     0.062 A 
HETATM   18  C   UNL     1      46.913 -30.520   4.060  1.00  0.00     0.034 A 
HETATM   19  N   UNL     1      45.912 -28.504   1.363  1.00  0.00    -0.341 N 
HETATM   20  C   UNL     1      48.065 -28.317   2.681  1.00  0.00     0.032 A 
HETATM   21  H   UNL     1      46.017 -27.758   0.690  1.00  0.00     0.167 HD
HETATM   22  C   UNL     1      48.728 -28.928   3.753  1.00  0.00     0.002 A 
HETATM   23  C   UNL     1      48.163 -30.011   4.432  1.00  0.00     0.002 A 
ENDBRANCH   2  14
TORSDOF 4
ENDMDL
