MODEL 1
REMARK VINA RESULT:     -10.6      0.000      0.000
REMARK  6 active torsions:
REMARK  status: ('A' for Active; 'I' for Inactive)
REMARK       I    between atoms: C_2  and  N_3 
REMARK    1  A    between atoms: C_2  and  C_12 
REMARK    2  A    between atoms: N_3  and  C_4 
REMARK    3  A    between atoms: C_4  and  C_5 
REMARK    4  A    between atoms: C_5  and  C_6 
REMARK    5  A    between atoms: C_18  and  C_22 
REMARK    6  A    between atoms: C_28  and  C_34 
ROOT
HETATM    1  C   UNL     1      39.821 -10.282   7.142  1.00  0.00     0.032 A 
HETATM    2  C   UNL     1      38.739 -10.691   6.355  1.00  0.00     0.020 A 
HETATM    3  C   UNL     1      38.934 -10.990   5.005  1.00  0.00     0.038 A 
HETATM    4  C   UNL     1      40.206 -10.888   4.440  1.00  0.00     0.075 A 
HETATM    5  O   UNL     1      40.321 -11.288   3.134  1.00  0.00    -0.350 OA
HETATM    6  C   UNL     1      41.547 -10.919   2.487  1.00  0.00     0.188 C 
HETATM    7  C   UNL     1      42.770 -11.237   3.341  1.00  0.00     0.082 C 
HETATM    8  C   UNL     1      42.680 -10.425   4.633  1.00  0.00     0.056 C 
HETATM    9  C   UNL     1      41.302 -10.508   5.221  1.00  0.00    -0.023 A 
HETATM   10  C   UNL     1      41.098 -10.192   6.570  1.00  0.00     0.027 A 
ENDROOT
BRANCH   7  11
HETATM   11  C   UNL     1      42.916 -12.698   3.650  1.00  0.00     0.091 A 
HETATM   12  N   UNL     1      42.900 -13.547   2.627  1.00  0.00    -0.345 N 
HETATM   13  H   UNL     1      42.780 -13.198   1.679  1.00  0.00     0.167 HD
HETATM   14  C   UNL     1      43.078 -14.885   2.844  1.00  0.00     0.049 A 
HETATM   15  C   UNL     1      43.085 -15.764   1.760  1.00  0.00     0.031 A 
HETATM   16  C   UNL     1      43.268 -15.417   4.120  1.00  0.00     0.059 A 
HETATM   17  C   UNL     1      43.286 -17.137   1.960  1.00  0.00     0.014 A 
HETATM   18  C   UNL     1      43.487 -17.661   3.247  1.00  0.00    -0.022 A 
HETATM   19  C   UNL     1      43.470 -16.785   4.337  1.00  0.00     0.031 A 
HETATM   20  C   UNL     1      43.256 -14.471   5.233  1.00  0.00     0.259 A 
HETATM   21  O   UNL     1      43.390 -14.751   6.406  1.00  0.00    -0.267 OA
HETATM   22  N   UNL     1      43.075 -13.115   4.889  1.00  0.00    -0.312 N 
HETATM   23  H   UNL     1      43.100 -12.444   5.656  1.00  0.00     0.170 HD
BRANCH  18  24
HETATM   24  C   UNL     1      43.704 -19.084   3.430  1.00  0.00     0.010 A 
HETATM   25  C   UNL     1      43.669 -20.153   2.505  1.00  0.00     0.152 A 
HETATM   26  N   UNL     1      43.945 -21.331   3.066  1.00  0.00    -0.187 NA
HETATM   27  N   UNL     1      44.163 -21.028   4.354  1.00  0.00    -0.289 N 
HETATM   28  H   UNL     1      44.403 -21.781   4.993  1.00  0.00     0.188 HD
HETATM   29  C   UNL     1      44.030 -19.694   4.625  1.00  0.00     0.123 A 
ENDBRANCH  18  24
ENDBRANCH   7  11
BRANCH   1  30
HETATM   30  C   UNL     1      39.685 -10.000   8.596  1.00  0.00     0.251 C 
HETATM   31  O   UNL     1      38.612 -10.211   9.150  1.00  0.00    -0.268 OA
HETATM   32  N   UNL     1      40.808  -9.536   9.243  1.00  0.00    -0.357 N 
HETATM   33  H   UNL     1      41.707  -9.614   8.786  1.00  0.00     0.162 HD
BRANCH  32  34
HETATM   34  C   UNL     1      40.785  -9.297  10.679  1.00  0.00     0.129 C 
BRANCH  34  35
HETATM   35  C   UNL     1      41.899  -8.353  11.119  1.00  0.00     0.079 C 
BRANCH  35  36
HETATM   36  C   UNL     1      43.196  -8.678  10.431  1.00  0.00     0.035 A 
HETATM   37  C   UNL     1      44.066  -9.626  10.963  1.00  0.00     0.027 A 
HETATM   38  C   UNL     1      45.263  -9.885  10.302  1.00  0.00     0.003 A 
HETATM   39  C   UNL     1      45.560  -9.192   9.136  1.00  0.00     0.019 A 
HETATM   40  C   UNL     1      44.643  -8.261   8.678  1.00  0.00     0.117 A 
HETATM   41  N   UNL     1      43.475  -7.988   9.299  1.00  0.00    -0.266 NA
ENDBRANCH  35  36
ENDBRANCH  34  35
ENDBRANCH  32  34
ENDBRANCH   1  30
TORSDOF 6
ENDMDL
MODEL 2
REMARK VINA RESULT:      -9.8      1.358      2.077
REMARK  6 active torsions:
REMARK  status: ('A' for Active; 'I' for Inactive)
REMARK       I    between atoms: C_2  and  N_3 
REMARK    1  A    between atoms: C_2  and  C_12 
REMARK    2  A    between atoms: N_3  and  C_4 
REMARK    3  A    between atoms: C_4  and  C_5 
REMARK    4  A    between atoms: C_5  and  C_6 
REMARK    5  A    between atoms: C_18  and  C_22 
REMARK    6  A    between atoms: C_28  and  C_34 
ROOT
HETATM    1  C   UNL     1      39.976 -10.085   6.974  1.00  0.00     0.032 A 
HETATM    2  C   UNL     1      38.847 -10.531   6.279  1.00  0.00     0.020 A 
HETATM    3  C   UNL     1      38.963 -10.924   4.943  1.00  0.00     0.038 A 
HETATM    4  C   UNL     1      40.202 -10.879   4.303  1.00  0.00     0.075 A 
HETATM    5  O   UNL     1      40.240 -11.369   3.023  1.00  0.00    -0.350 OA
HETATM    6  C   UNL     1      41.430 -11.061   2.285  1.00  0.00     0.188 C 
HETATM    7  C   UNL     1      42.697 -11.337   3.090  1.00  0.00     0.082 C 
HETATM    8  C   UNL     1      42.687 -10.437   4.326  1.00  0.00     0.056 C 
HETATM    9  C   UNL     1      41.344 -10.461   4.993  1.00  0.00    -0.023 A 
HETATM   10  C   UNL     1      41.220 -10.051   6.327  1.00  0.00     0.027 A 
ENDROOT
BRANCH   7  11
HETATM   11  C   UNL     1      42.845 -12.775   3.490  1.00  0.00     0.091 A 
HETATM   12  N   UNL     1      42.916 -13.679   2.517  1.00  0.00    -0.345 N 
HETATM   13  H   UNL     1      42.858 -13.386   1.546  1.00  0.00     0.167 HD
HETATM   14  C   UNL     1      43.102 -14.999   2.822  1.00  0.00     0.049 A 
HETATM   15  C   UNL     1      43.201 -15.936   1.792  1.00  0.00     0.031 A 
HETATM   16  C   UNL     1      43.210 -15.456   4.136  1.00  0.00     0.059 A 
HETATM   17  C   UNL     1      43.410 -17.292   2.082  1.00  0.00     0.014 A 
HETATM   18  C   UNL     1      43.528 -17.739   3.408  1.00  0.00    -0.022 A 
HETATM   19  C   UNL     1      43.419 -16.805   4.443  1.00  0.00     0.031 A 
HETATM   20  C   UNL     1      43.103 -14.451   5.190  1.00  0.00     0.259 A 
HETATM   21  O   UNL     1      43.158 -14.662   6.384  1.00  0.00    -0.267 OA
HETATM   22  N   UNL     1      42.923 -13.120   4.759  1.00  0.00    -0.312 N 
HETATM   23  H   UNL     1      42.883 -12.408   5.486  1.00  0.00     0.170 HD
BRANCH  18  24
HETATM   24  C   UNL     1      43.756 -19.145   3.686  1.00  0.00     0.010 A 
HETATM   25  C   UNL     1      43.709 -20.277   2.838  1.00  0.00     0.152 A 
HETATM   26  N   UNL     1      44.002 -21.412   3.475  1.00  0.00    -0.187 NA
HETATM   27  N   UNL     1      44.243 -21.018   4.734  1.00  0.00    -0.289 N 
HETATM   28  H   UNL     1      44.500 -21.724   5.419  1.00  0.00     0.188 HD
HETATM   29  C   UNL     1      44.109 -19.669   4.913  1.00  0.00     0.123 A 
ENDBRANCH  18  24
ENDBRANCH   7  11
BRANCH   1  30
HETATM   30  C   UNL     1      39.924  -9.702   8.411  1.00  0.00     0.251 C 
HETATM   31  O   UNL     1      38.842  -9.440   8.923  1.00  0.00    -0.268 OA
HETATM   32  N   UNL     1      41.122  -9.696   9.091  1.00  0.00    -0.357 N 
HETATM   33  H   UNL     1      41.926 -10.148   8.677  1.00  0.00     0.162 HD
BRANCH  32  34
HETATM   34  C   UNL     1      41.157  -9.399  10.515  1.00  0.00     0.129 C 
BRANCH  34  35
HETATM   35  C   UNL     1      42.387  -8.584  10.899  1.00  0.00     0.079 C 
BRANCH  35  36
HETATM   36  C   UNL     1      42.367  -8.216  12.357  1.00  0.00     0.035 A 
HETATM   37  C   UNL     1      42.860  -6.986  12.788  1.00  0.00     0.027 A 
HETATM   38  C   UNL     1      42.836  -6.694  14.148  1.00  0.00     0.003 A 
HETATM   39  C   UNL     1      42.327  -7.631  15.038  1.00  0.00     0.019 A 
HETATM   40  C   UNL     1      41.863  -8.831  14.527  1.00  0.00     0.117 A 
HETATM   41  N   UNL     1      41.875  -9.143  13.212  1.00  0.00    -0.266 NA
ENDBRANCH  35  36
ENDBRANCH  34  35
ENDBRANCH  32  34
ENDBRANCH   1  30
TORSDOF 6
ENDMDL
MODEL 3
REMARK VINA RESULT:      -9.7      3.344      7.254
REMARK  6 active torsions:
REMARK  status: ('A' for Active; 'I' for Inactive)
REMARK       I    between atoms: C_2  and  N_3 
REMARK    1  A    between atoms: C_2  and  C_12 
REMARK    2  A    between atoms: N_3  and  C_4 
REMARK    3  A    between atoms: C_4  and  C_5 
REMARK    4  A    between atoms: C_5  and  C_6 
REMARK    5  A    between atoms: C_18  and  C_22 
REMARK    6  A    between atoms: C_28  and  C_34 
ROOT
HETATM    1  C   UNL     1      39.573 -11.000   1.745  1.00  0.00     0.032 A 
HETATM    2  C   UNL     1      40.793 -10.875   1.073  1.00  0.00     0.020 A 
HETATM    3  C   UNL     1      41.987 -10.849   1.798  1.00  0.00     0.038 A 
HETATM    4  C   UNL     1      41.966 -10.954   3.189  1.00  0.00     0.075 A 
HETATM    5  O   UNL     1      43.187 -11.011   3.810  1.00  0.00    -0.350 OA
HETATM    6  C   UNL     1      43.160 -10.834   5.232  1.00  0.00     0.188 C 
HETATM    7  C   UNL     1      42.086 -11.688   5.900  1.00  0.00     0.082 C 
HETATM    8  C   UNL     1      40.722 -11.252   5.365  1.00  0.00     0.056 C 
HETATM    9  C   UNL     1      40.756 -11.107   3.872  1.00  0.00    -0.023 A 
HETATM   10  C   UNL     1      39.560 -11.115   3.143  1.00  0.00     0.027 A 
ENDROOT
BRANCH   7  11
HETATM   11  C   UNL     1      42.284 -13.161   5.694  1.00  0.00     0.091 A 
HETATM   12  N   UNL     1      42.511 -13.582   4.453  1.00  0.00    -0.345 N 
HETATM   13  H   UNL     1      42.534 -12.915   3.686  1.00  0.00     0.167 HD
HETATM   14  C   UNL     1      42.748 -14.907   4.212  1.00  0.00     0.049 A 
HETATM   15  C   UNL     1      43.011 -15.334   2.910  1.00  0.00     0.031 A 
HETATM   16  C   UNL     1      42.749 -15.863   5.229  1.00  0.00     0.059 A 
HETATM   17  C   UNL     1      43.275 -16.686   2.645  1.00  0.00     0.014 A 
HETATM   18  C   UNL     1      43.285 -17.638   3.677  1.00  0.00    -0.022 A 
HETATM   19  C   UNL     1      43.011 -17.216   4.982  1.00  0.00     0.031 A 
HETATM   20  C   UNL     1      42.472 -15.384   6.580  1.00  0.00     0.259 A 
HETATM   21  O   UNL     1      42.417 -16.068   7.581  1.00  0.00    -0.267 OA
HETATM   22  N   UNL     1      42.253 -13.997   6.711  1.00  0.00    -0.312 N 
HETATM   23  H   UNL     1      42.093 -13.649   7.655  1.00  0.00     0.170 HD
BRANCH  18  24
HETATM   24  C   UNL     1      43.572 -19.030   3.383  1.00  0.00     0.010 A 
HETATM   25  C   UNL     1      43.520 -19.749   2.165  1.00  0.00     0.152 A 
HETATM   26  N   UNL     1      43.881 -21.026   2.304  1.00  0.00    -0.187 NA
HETATM   27  N   UNL     1      44.171 -21.135   3.609  1.00  0.00    -0.289 N 
HETATM   28  H   UNL     1      44.484 -22.036   3.959  1.00  0.00     0.188 HD
HETATM   29  C   UNL     1      44.003 -19.967   4.300  1.00  0.00     0.123 A 
ENDBRANCH  18  24
ENDBRANCH   7  11
BRANCH   1  30
HETATM   30  C   UNL     1      38.274 -11.085   1.025  1.00  0.00     0.251 C 
HETATM   31  O   UNL     1      37.309 -11.591   1.586  1.00  0.00    -0.268 OA
HETATM   32  N   UNL     1      38.236 -10.550  -0.244  1.00  0.00    -0.357 N 
HETATM   33  H   UNL     1      38.987  -9.943  -0.546  1.00  0.00     0.162 HD
BRANCH  32  34
HETATM   34  C   UNL     1      36.990 -10.528  -0.996  1.00  0.00     0.129 C 
BRANCH  34  35
HETATM   35  C   UNL     1      37.188 -10.969  -2.442  1.00  0.00     0.079 C 
BRANCH  35  36
HETATM   36  C   UNL     1      38.209 -12.068  -2.544  1.00  0.00     0.035 A 
HETATM   37  C   UNL     1      37.854 -13.394  -2.310  1.00  0.00     0.027 A 
HETATM   38  C   UNL     1      38.835 -14.377  -2.400  1.00  0.00     0.003 A 
HETATM   39  C   UNL     1      40.137 -14.014  -2.716  1.00  0.00     0.019 A 
HETATM   40  C   UNL     1      40.408 -12.672  -2.928  1.00  0.00     0.117 A 
HETATM   41  N   UNL     1      39.476 -11.696  -2.846  1.00  0.00    -0.266 NA
ENDBRANCH  35  36
ENDBRANCH  34  35
ENDBRANCH  32  34
ENDBRANCH   1  30
TORSDOF 6
ENDMDL
MODEL 4
REMARK VINA RESULT:      -9.5      1.517      2.227
REMARK  6 active torsions:
REMARK  status: ('A' for Active; 'I' for Inactive)
REMARK       I    between atoms: C_2  and  N_3 
REMARK    1  A    between atoms: C_2  and  C_12 
REMARK    2  A    between atoms: N_3  and  C_4 
REMARK    3  A    between atoms: C_4  and  C_5 
REMARK    4  A    between atoms: C_5  and  C_6 
REMARK    5  A    between atoms: C_18  and  C_22 
REMARK    6  A    between atoms: C_28  and  C_34 
ROOT
HETATM    1  C   UNL     1      40.107 -10.006   7.082  1.00  0.00     0.032 A 
HETATM    2  C   UNL     1      38.861 -10.461   6.638  1.00  0.00     0.020 A 
HETATM    3  C   UNL     1      38.662 -10.735   5.283  1.00  0.00     0.038 A 
HETATM    4  C   UNL     1      39.705 -10.562   4.372  1.00  0.00     0.075 A 
HETATM    5  O   UNL     1      39.448 -10.941   3.080  1.00  0.00    -0.350 OA
HETATM    6  C   UNL     1      40.410 -10.503   2.110  1.00  0.00     0.188 C 
HETATM    7  C   UNL     1      41.844 -10.766   2.559  1.00  0.00     0.082 C 
HETATM    8  C   UNL     1      42.102  -9.973   3.841  1.00  0.00     0.056 C 
HETATM    9  C   UNL     1      40.964 -10.134   4.805  1.00  0.00    -0.023 A 
HETATM   10  C   UNL     1      41.153  -9.844   6.163  1.00  0.00     0.027 A 
ENDROOT
BRANCH   7  11
HETATM   11  C   UNL     1      42.142 -12.221   2.774  1.00  0.00     0.091 A 
HETATM   12  N   UNL     1      42.614 -12.582   3.963  1.00  0.00    -0.345 N 
HETATM   13  H   UNL     1      42.772 -11.881   4.681  1.00  0.00     0.167 HD
HETATM   14  C   UNL     1      42.857 -13.901   4.231  1.00  0.00     0.049 A 
HETATM   15  C   UNL     1      43.328 -14.272   5.491  1.00  0.00     0.031 A 
HETATM   16  C   UNL     1      42.639 -14.908   3.291  1.00  0.00     0.059 A 
HETATM   17  C   UNL     1      43.565 -15.621   5.793  1.00  0.00     0.014 A 
HETATM   18  C   UNL     1      43.332 -16.628   4.843  1.00  0.00    -0.022 A 
HETATM   19  C   UNL     1      42.869 -16.259   3.575  1.00  0.00     0.031 A 
HETATM   20  C   UNL     1      42.144 -14.487   1.982  1.00  0.00     0.259 A 
HETATM   21  O   UNL     1      41.912 -15.217   1.040  1.00  0.00    -0.267 OA
HETATM   22  N   UNL     1      41.921 -13.104   1.822  1.00  0.00    -0.312 N 
HETATM   23  H   UNL     1      41.543 -12.806   0.924  1.00  0.00     0.170 HD
BRANCH  18  24
HETATM   24  C   UNL     1      43.572 -18.019   5.179  1.00  0.00     0.010 A 
HETATM   25  C   UNL     1      44.144 -19.069   4.423  1.00  0.00     0.152 A 
HETATM   26  N   UNL     1      44.210 -20.216   5.101  1.00  0.00    -0.187 NA
HETATM   27  N   UNL     1      43.685 -19.911   6.297  1.00  0.00    -0.289 N 
HETATM   28  H   UNL     1      43.634 -20.642   7.001  1.00  0.00     0.188 HD
HETATM   29  C   UNL     1      43.287 -18.606   6.395  1.00  0.00     0.123 A 
ENDBRANCH  18  24
ENDBRANCH   7  11
BRANCH   1  30
HETATM   30  C   UNL     1      40.393  -9.747   8.519  1.00  0.00     0.251 C 
HETATM   31  O   UNL     1      39.478  -9.808   9.332  1.00  0.00    -0.268 OA
HETATM   32  N   UNL     1      41.702  -9.477   8.849  1.00  0.00    -0.357 N 
HETATM   33  H   UNL     1      42.431  -9.678   8.177  1.00  0.00     0.162 HD
BRANCH  32  34
HETATM   34  C   UNL     1      42.085  -9.278  10.239  1.00  0.00     0.129 C 
BRANCH  34  35
HETATM   35  C   UNL     1      43.305 -10.109  10.621  1.00  0.00     0.079 C 
BRANCH  35  36
HETATM   36  C   UNL     1      44.284 -10.197   9.483  1.00  0.00     0.035 A 
HETATM   37  C   UNL     1      45.243  -9.205   9.292  1.00  0.00     0.027 A 
HETATM   38  C   UNL     1      46.121  -9.320   8.217  1.00  0.00     0.003 A 
HETATM   39  C   UNL     1      46.016 -10.411   7.365  1.00  0.00     0.019 A 
HETATM   40  C   UNL     1      45.031 -11.349   7.623  1.00  0.00     0.117 A 
HETATM   41  N   UNL     1      44.165 -11.264   8.657  1.00  0.00    -0.266 NA
ENDBRANCH  35  36
ENDBRANCH  34  35
ENDBRANCH  32  34
ENDBRANCH   1  30
TORSDOF 6
ENDMDL
MODEL 5
REMARK VINA RESULT:      -9.2      5.410      7.494
REMARK  6 active torsions:
REMARK  status: ('A' for Active; 'I' for Inactive)
REMARK       I    between atoms: C_2  and  N_3 
REMARK    1  A    between atoms: C_2  and  C_12 
REMARK    2  A    between atoms: N_3  and  C_4 
REMARK    3  A    between atoms: C_4  and  C_5 
REMARK    4  A    between atoms: C_5  and  C_6 
REMARK    5  A    between atoms: C_18  and  C_22 
REMARK    6  A    between atoms: C_28  and  C_34 
ROOT
HETATM    1  C   UNL     1      41.441  -8.945  -1.011  1.00  0.00     0.032 A 
HETATM    2  C   UNL     1      40.214  -8.570  -0.452  1.00  0.00     0.020 A 
HETATM    3  C   UNL     1      39.162  -9.487  -0.405  1.00  0.00     0.038 A 
HETATM    4  C   UNL     1      39.332 -10.777  -0.908  1.00  0.00     0.075 A 
HETATM    5  O   UNL     1      38.277 -11.637  -0.737  1.00  0.00    -0.350 OA
HETATM    6  C   UNL     1      38.349 -12.852  -1.496  1.00  0.00     0.188 C 
HETATM    7  C   UNL     1      39.716 -13.521  -1.387  1.00  0.00     0.082 C 
HETATM    8  C   UNL     1      40.765 -12.568  -1.961  1.00  0.00     0.056 C 
HETATM    9  C   UNL     1      40.560 -11.175  -1.445  1.00  0.00    -0.023 A 
HETATM   10  C   UNL     1      41.608 -10.246  -1.506  1.00  0.00     0.027 A 
ENDROOT
BRANCH   7  11
HETATM   11  C   UNL     1      40.076 -13.914   0.015  1.00  0.00     0.091 A 
HETATM   12  N   UNL     1      41.141 -14.692   0.181  1.00  0.00    -0.345 N 
HETATM   13  H   UNL     1      41.671 -15.007  -0.627  1.00  0.00     0.167 HD
HETATM   14  C   UNL     1      41.545 -15.042   1.439  1.00  0.00     0.049 A 
HETATM   15  C   UNL     1      42.679 -15.837   1.603  1.00  0.00     0.031 A 
HETATM   16  C   UNL     1      40.869 -14.621   2.585  1.00  0.00     0.059 A 
HETATM   17  C   UNL     1      43.121 -16.191   2.886  1.00  0.00     0.014 A 
HETATM   18  C   UNL     1      42.440 -15.753   4.033  1.00  0.00    -0.022 A 
HETATM   19  C   UNL     1      41.296 -14.964   3.874  1.00  0.00     0.031 A 
HETATM   20  C   UNL     1      39.686 -13.789   2.381  1.00  0.00     0.259 A 
HETATM   21  O   UNL     1      38.968 -13.345   3.253  1.00  0.00    -0.267 OA
HETATM   22  N   UNL     1      39.370 -13.484   1.040  1.00  0.00    -0.312 N 
HETATM   23  H   UNL     1      38.567 -12.875   0.890  1.00  0.00     0.170 HD
BRANCH  18  24
HETATM   24  C   UNL     1      42.920 -16.121   5.353  1.00  0.00     0.010 A 
HETATM   25  C   UNL     1      44.194 -16.557   5.786  1.00  0.00     0.152 A 
HETATM   26  N   UNL     1      44.244 -16.781   7.100  1.00  0.00    -0.187 NA
HETATM   27  N   UNL     1      43.005 -16.487   7.521  1.00  0.00    -0.289 N 
HETATM   28  H   UNL     1      42.798 -16.577   8.512  1.00  0.00     0.188 HD
HETATM   29  C   UNL     1      42.173 -16.086   6.512  1.00  0.00     0.123 A 
ENDBRANCH  18  24
ENDBRANCH   7  11
BRANCH   1  30
HETATM   30  C   UNL     1      42.612  -8.029  -1.044  1.00  0.00     0.251 C 
HETATM   31  O   UNL     1      43.683  -8.441  -1.474  1.00  0.00    -0.268 OA
HETATM   32  N   UNL     1      42.402  -6.741  -0.604  1.00  0.00    -0.357 N 
HETATM   33  H   UNL     1      41.453  -6.408  -0.492  1.00  0.00     0.162 HD
BRANCH  32  34
HETATM   34  C   UNL     1      43.474  -5.759  -0.663  1.00  0.00     0.129 C 
BRANCH  34  35
HETATM   35  C   UNL     1      43.589  -4.961   0.632  1.00  0.00     0.079 C 
BRANCH  35  36
HETATM   36  C   UNL     1      44.756  -4.014   0.588  1.00  0.00     0.035 A 
HETATM   37  C   UNL     1      45.185  -3.467  -0.619  1.00  0.00     0.027 A 
HETATM   38  C   UNL     1      46.279  -2.607  -0.615  1.00  0.00     0.003 A 
HETATM   39  C   UNL     1      46.915  -2.319   0.586  1.00  0.00     0.019 A 
HETATM   40  C   UNL     1      46.429  -2.909   1.740  1.00  0.00     0.117 A 
HETATM   41  N   UNL     1      45.370  -3.749   1.766  1.00  0.00    -0.266 NA
ENDBRANCH  35  36
ENDBRANCH  34  35
ENDBRANCH  32  34
ENDBRANCH   1  30
TORSDOF 6
ENDMDL
MODEL 6
REMARK VINA RESULT:      -9.2      2.109     10.064
REMARK  6 active torsions:
REMARK  status: ('A' for Active; 'I' for Inactive)
REMARK       I    between atoms: C_2  and  N_3 
REMARK    1  A    between atoms: C_2  and  C_12 
REMARK    2  A    between atoms: N_3  and  C_4 
REMARK    3  A    between atoms: C_4  and  C_5 
REMARK    4  A    between atoms: C_5  and  C_6 
REMARK    5  A    between atoms: C_18  and  C_22 
REMARK    6  A    between atoms: C_28  and  C_34 
ROOT
HETATM    1  C   UNL     1      41.874 -13.602   4.584  1.00  0.00     0.032 A 
HETATM    2  C   UNL     1      43.083 -12.938   4.349  1.00  0.00     0.020 A 
HETATM    3  C   UNL     1      43.095 -11.551   4.189  1.00  0.00     0.038 A 
HETATM    4  C   UNL     1      41.906 -10.825   4.269  1.00  0.00     0.075 A 
HETATM    5  O   UNL     1      42.024  -9.461   4.191  1.00  0.00    -0.350 OA
HETATM    6  C   UNL     1      40.794  -8.751   3.991  1.00  0.00     0.188 C 
HETATM    7  C   UNL     1      39.693  -9.223   4.935  1.00  0.00     0.082 C 
HETATM    8  C   UNL     1      39.414 -10.699   4.649  1.00  0.00     0.056 C 
HETATM    9  C   UNL     1      40.694 -11.471   4.530  1.00  0.00    -0.023 A 
HETATM   10  C   UNL     1      40.684 -12.865   4.673  1.00  0.00     0.027 A 
ENDROOT
BRANCH   7  11
HETATM   11  C   UNL     1      40.027  -9.024   6.385  1.00  0.00     0.091 A 
HETATM   12  N   UNL     1      41.090  -8.279   6.673  1.00  0.00    -0.345 N 
HETATM   13  H   UNL     1      41.648  -7.878   5.924  1.00  0.00     0.167 HD
HETATM   14  C   UNL     1      41.413  -8.023   7.976  1.00  0.00     0.049 A 
HETATM   15  C   UNL     1      42.515  -7.218   8.267  1.00  0.00     0.031 A 
HETATM   16  C   UNL     1      40.671  -8.529   9.044  1.00  0.00     0.059 A 
HETATM   17  C   UNL     1      42.852  -6.927   9.597  1.00  0.00     0.014 A 
HETATM   18  C   UNL     1      42.093  -7.433  10.664  1.00  0.00    -0.022 A 
HETATM   19  C   UNL     1      40.994  -8.249  10.377  1.00  0.00     0.031 A 
HETATM   20  C   UNL     1      39.524  -9.367   8.706  1.00  0.00     0.259 A 
HETATM   21  O   UNL     1      38.776  -9.903   9.498  1.00  0.00    -0.267 OA
HETATM   22  N   UNL     1      39.279  -9.554   7.330  1.00  0.00    -0.312 N 
HETATM   23  H   UNL     1      38.460 -10.108   7.085  1.00  0.00     0.170 HD
BRANCH  18  24
HETATM   24  C   UNL     1      42.452  -7.111  12.033  1.00  0.00     0.010 A 
HETATM   25  C   UNL     1      43.001  -7.914  13.060  1.00  0.00     0.152 A 
HETATM   26  N   UNL     1      43.209  -7.237  14.190  1.00  0.00    -0.187 NA
HETATM   27  N   UNL     1      42.800  -5.994  13.897  1.00  0.00    -0.289 N 
HETATM   28  H   UNL     1      42.870  -5.281  14.617  1.00  0.00     0.188 HD
HETATM   29  C   UNL     1      42.337  -5.866  12.616  1.00  0.00     0.123 A 
ENDBRANCH  18  24
ENDBRANCH   7  11
BRANCH   1  30
HETATM   30  C   UNL     1      41.805 -15.070   4.813  1.00  0.00     0.251 C 
HETATM   31  O   UNL     1      40.992 -15.738   4.184  1.00  0.00    -0.268 OA
HETATM   32  N   UNL     1      42.701 -15.597   5.716  1.00  0.00    -0.357 N 
HETATM   33  H   UNL     1      43.490 -15.037   6.012  1.00  0.00     0.162 HD
BRANCH  32  34
HETATM   34  C   UNL     1      42.751 -17.032   5.952  1.00  0.00     0.129 C 
BRANCH  34  35
HETATM   35  C   UNL     1      44.074 -17.640   5.499  1.00  0.00     0.079 C 
BRANCH  35  36
HETATM   36  C   UNL     1      43.875 -18.588   4.349  1.00  0.00     0.035 A 
HETATM   37  C   UNL     1      43.492 -18.116   3.096  1.00  0.00     0.027 A 
HETATM   38  C   UNL     1      43.305 -19.031   2.064  1.00  0.00     0.003 A 
HETATM   39  C   UNL     1      43.500 -20.384   2.308  1.00  0.00     0.019 A 
HETATM   40  C   UNL     1      43.874 -20.770   3.584  1.00  0.00     0.117 A 
HETATM   41  N   UNL     1      44.062 -19.905   4.606  1.00  0.00    -0.266 NA
ENDBRANCH  35  36
ENDBRANCH  34  35
ENDBRANCH  32  34
ENDBRANCH   1  30
TORSDOF 6
ENDMDL
MODEL 7
REMARK VINA RESULT:      -9.2      2.263      9.723
REMARK  6 active torsions:
REMARK  status: ('A' for Active; 'I' for Inactive)
REMARK       I    between atoms: C_2  and  N_3 
REMARK    1  A    between atoms: C_2  and  C_12 
REMARK    2  A    between atoms: N_3  and  C_4 
REMARK    3  A    between atoms: C_4  and  C_5 
REMARK    4  A    between atoms: C_5  and  C_6 
REMARK    5  A    between atoms: C_18  and  C_22 
REMARK    6  A    between atoms: C_28  and  C_34 
ROOT
HETATM    1  C   UNL     1      41.805 -13.690   4.272  1.00  0.00     0.032 A 
HETATM    2  C   UNL     1      42.948 -13.012   3.832  1.00  0.00     0.020 A 
HETATM    3  C   UNL     1      42.891 -11.639   3.586  1.00  0.00     0.038 A 
HETATM    4  C   UNL     1      41.700 -10.939   3.783  1.00  0.00     0.075 A 
HETATM    5  O   UNL     1      41.760  -9.581   3.606  1.00  0.00    -0.350 OA
HETATM    6  C   UNL     1      40.491  -8.917   3.533  1.00  0.00     0.188 C 
HETATM    7  C   UNL     1      39.545  -9.353   4.648  1.00  0.00     0.082 C 
HETATM    8  C   UNL     1      39.280 -10.851   4.495  1.00  0.00     0.056 C 
HETATM    9  C   UNL     1      40.557 -11.597   4.249  1.00  0.00    -0.023 A 
HETATM   10  C   UNL     1      40.614 -12.979   4.478  1.00  0.00     0.027 A 
ENDROOT
BRANCH   7  11
HETATM   11  C   UNL     1      40.066  -9.051   6.022  1.00  0.00     0.091 A 
HETATM   12  N   UNL     1      39.402  -9.558   7.056  1.00  0.00    -0.345 N 
HETATM   13  H   UNL     1      38.568 -10.118   6.899  1.00  0.00     0.167 HD
HETATM   14  C   UNL     1      39.859  -9.356   8.328  1.00  0.00     0.049 A 
HETATM   15  C   UNL     1      39.169  -9.915   9.405  1.00  0.00     0.031 A 
HETATM   16  C   UNL     1      41.009  -8.615   8.601  1.00  0.00     0.059 A 
HETATM   17  C   UNL     1      39.633  -9.736  10.717  1.00  0.00     0.014 A 
HETATM   18  C   UNL     1      40.797  -8.997  10.979  1.00  0.00    -0.022 A 
HETATM   19  C   UNL     1      41.486  -8.426   9.904  1.00  0.00     0.031 A 
HETATM   20  C   UNL     1      41.709  -8.044   7.454  1.00  0.00     0.259 A 
HETATM   21  O   UNL     1      42.712  -7.362   7.498  1.00  0.00    -0.267 OA
HETATM   22  N   UNL     1      41.153  -8.326   6.188  1.00  0.00    -0.312 N 
HETATM   23  H   UNL     1      41.654  -7.961   5.380  1.00  0.00     0.170 HD
BRANCH  18  24
HETATM   24  C   UNL     1      41.266  -8.833  12.343  1.00  0.00     0.010 A 
HETATM   25  C   UNL     1      40.620  -9.072  13.579  1.00  0.00     0.152 A 
HETATM   26  N   UNL     1      41.403  -8.814  14.628  1.00  0.00    -0.187 NA
HETATM   27  N   UNL     1      42.556  -8.412  14.075  1.00  0.00    -0.289 N 
HETATM   28  H   UNL     1      43.325  -8.163  14.691  1.00  0.00     0.188 HD
HETATM   29  C   UNL     1      42.526  -8.406  12.708  1.00  0.00     0.123 A 
ENDBRANCH  18  24
ENDBRANCH   7  11
BRANCH   1  30
HETATM   30  C   UNL     1      41.818 -15.141   4.598  1.00  0.00     0.251 C 
HETATM   31  O   UNL     1      41.064 -15.897   3.998  1.00  0.00    -0.268 OA
HETATM   32  N   UNL     1      42.719 -15.550   5.556  1.00  0.00    -0.357 N 
HETATM   33  H   UNL     1      43.464 -14.924   5.832  1.00  0.00     0.162 HD
BRANCH  32  34
HETATM   34  C   UNL     1      42.848 -16.960   5.891  1.00  0.00     0.129 C 
BRANCH  34  35
HETATM   35  C   UNL     1      44.163 -17.549   5.390  1.00  0.00     0.079 C 
BRANCH  35  36
HETATM   36  C   UNL     1      43.929 -18.568   4.309  1.00  0.00     0.035 A 
HETATM   37  C   UNL     1      43.510 -18.177   3.040  1.00  0.00     0.027 A 
HETATM   38  C   UNL     1      43.292 -19.156   2.074  1.00  0.00     0.003 A 
HETATM   39  C   UNL     1      43.492 -20.491   2.400  1.00  0.00     0.019 A 
HETATM   40  C   UNL     1      43.902 -20.794   3.687  1.00  0.00     0.117 A 
HETATM   41  N   UNL     1      44.121 -19.866   4.645  1.00  0.00    -0.266 NA
ENDBRANCH  35  36
ENDBRANCH  34  35
ENDBRANCH  32  34
ENDBRANCH   1  30
TORSDOF 6
ENDMDL
MODEL 8
REMARK VINA RESULT:      -9.1      3.489      5.175
REMARK  6 active torsions:
REMARK  status: ('A' for Active; 'I' for Inactive)
REMARK       I    between atoms: C_2  and  N_3 
REMARK    1  A    between atoms: C_2  and  C_12 
REMARK    2  A    between atoms: N_3  and  C_4 
REMARK    3  A    between atoms: C_4  and  C_5 
REMARK    4  A    between atoms: C_5  and  C_6 
REMARK    5  A    between atoms: C_18  and  C_22 
REMARK    6  A    between atoms: C_28  and  C_34 
ROOT
HETATM    1  C   UNL     1      41.457  -8.279   9.931  1.00  0.00     0.032 A 
HETATM    2  C   UNL     1      41.850  -7.259   9.058  1.00  0.00     0.020 A 
HETATM    3  C   UNL     1      43.073  -7.348   8.389  1.00  0.00     0.038 A 
HETATM    4  C   UNL     1      43.902  -8.453   8.587  1.00  0.00     0.075 A 
HETATM    5  O   UNL     1      45.039  -8.501   7.822  1.00  0.00    -0.350 OA
HETATM    6  C   UNL     1      46.009  -9.476   8.228  1.00  0.00     0.188 C 
HETATM    7  C   UNL     1      45.382 -10.842   8.488  1.00  0.00     0.082 C 
HETATM    8  C   UNL     1      44.378 -10.701   9.632  1.00  0.00     0.056 C 
HETATM    9  C   UNL     1      43.511  -9.493   9.436  1.00  0.00    -0.023 A 
HETATM   10  C   UNL     1      42.290  -9.391  10.117  1.00  0.00     0.027 A 
ENDROOT
BRANCH   7  11
HETATM   11  C   UNL     1      44.718 -11.431   7.278  1.00  0.00     0.091 A 
HETATM   12  N   UNL     1      43.733 -12.301   7.480  1.00  0.00    -0.345 N 
HETATM   13  H   UNL     1      43.463 -12.552   8.427  1.00  0.00     0.167 HD
HETATM   14  C   UNL     1      43.059 -12.832   6.416  1.00  0.00     0.049 A 
HETATM   15  C   UNL     1      42.010 -13.724   6.640  1.00  0.00     0.031 A 
HETATM   16  C   UNL     1      43.372 -12.507   5.095  1.00  0.00     0.059 A 
HETATM   17  C   UNL     1      41.293 -14.265   5.562  1.00  0.00     0.014 A 
HETATM   18  C   UNL     1      41.609 -13.923   4.237  1.00  0.00    -0.022 A 
HETATM   19  C   UNL     1      42.667 -13.037   4.008  1.00  0.00     0.031 A 
HETATM   20  C   UNL     1      44.474 -11.570   4.894  1.00  0.00     0.259 A 
HETATM   21  O   UNL     1      44.895 -11.185   3.822  1.00  0.00    -0.267 OA
HETATM   22  N   UNL     1      45.089 -11.079   6.064  1.00  0.00    -0.312 N 
HETATM   23  H   UNL     1      45.836 -10.399   5.934  1.00  0.00     0.170 HD
BRANCH  18  24
HETATM   24  C   UNL     1      40.848 -14.485   3.137  1.00  0.00     0.010 A 
HETATM   25  C   UNL     1      40.505 -15.824   2.837  1.00  0.00     0.152 A 
HETATM   26  N   UNL     1      39.768 -15.933   1.731  1.00  0.00    -0.187 NA
HETATM   27  N   UNL     1      39.629 -14.666   1.314  1.00  0.00    -0.289 N 
HETATM   28  H   UNL     1      39.087 -14.492   0.472  1.00  0.00     0.188 HD
HETATM   29  C   UNL     1      40.257 -13.760   2.123  1.00  0.00     0.123 A 
ENDBRANCH  18  24
ENDBRANCH   7  11
BRANCH   1  30
HETATM   30  C   UNL     1      40.145  -8.264  10.631  1.00  0.00     0.251 C 
HETATM   31  O   UNL     1      39.493  -9.299  10.704  1.00  0.00    -0.268 OA
HETATM   32  N   UNL     1      39.755  -7.066  11.187  1.00  0.00    -0.357 N 
HETATM   33  H   UNL     1      40.438  -6.328  11.297  1.00  0.00     0.162 HD
BRANCH  32  34
HETATM   34  C   UNL     1      38.517  -6.976  11.948  1.00  0.00     0.129 C 
BRANCH  34  35
HETATM   35  C   UNL     1      38.770  -6.972  13.451  1.00  0.00     0.079 C 
BRANCH  35  36
HETATM   36  C   UNL     1      40.237  -7.093  13.760  1.00  0.00     0.035 A 
HETATM   37  C   UNL     1      40.769  -8.291  14.233  1.00  0.00     0.027 A 
HETATM   38  C   UNL     1      42.129  -8.353  14.520  1.00  0.00     0.003 A 
HETATM   39  C   UNL     1      42.918  -7.226  14.333  1.00  0.00     0.019 A 
HETATM   40  C   UNL     1      42.309  -6.074  13.865  1.00  0.00     0.117 A 
HETATM   41  N   UNL     1      40.991  -5.983  13.579  1.00  0.00    -0.266 NA
ENDBRANCH  35  36
ENDBRANCH  34  35
ENDBRANCH  32  34
ENDBRANCH   1  30
TORSDOF 6
ENDMDL
MODEL 9
REMARK VINA RESULT:      -9.0     17.684     19.690
REMARK  6 active torsions:
REMARK  status: ('A' for Active; 'I' for Inactive)
REMARK       I    between atoms: C_2  and  N_3 
REMARK    1  A    between atoms: C_2  and  C_12 
REMARK    2  A    between atoms: N_3  and  C_4 
REMARK    3  A    between atoms: C_4  and  C_5 
REMARK    4  A    between atoms: C_5  and  C_6 
REMARK    5  A    between atoms: C_18  and  C_22 
REMARK    6  A    between atoms: C_28  and  C_34 
ROOT
HETATM    1  C   UNL     1      43.399 -30.288   0.382  1.00  0.00     0.032 A 
HETATM    2  C   UNL     1      43.695 -31.436  -0.362  1.00  0.00     0.020 A 
HETATM    3  C   UNL     1      44.802 -31.447  -1.213  1.00  0.00     0.038 A 
HETATM    4  C   UNL     1      45.617 -30.320  -1.319  1.00  0.00     0.075 A 
HETATM    5  O   UNL     1      46.732 -30.451  -2.107  1.00  0.00    -0.350 OA
HETATM    6  C   UNL     1      47.398 -29.224  -2.434  1.00  0.00     0.188 C 
HETATM    7  C   UNL     1      47.607 -28.336  -1.211  1.00  0.00     0.082 C 
HETATM    8  C   UNL     1      46.236 -27.967  -0.644  1.00  0.00     0.056 C 
HETATM    9  C   UNL     1      45.349 -29.175  -0.562  1.00  0.00    -0.023 A 
HETATM   10  C   UNL     1      44.228 -29.162   0.277  1.00  0.00     0.027 A 
ENDROOT
BRANCH   7  11
HETATM   11  C   UNL     1      48.458 -28.973  -0.152  1.00  0.00     0.091 A 
HETATM   12  N   UNL     1      48.041 -28.883   1.107  1.00  0.00    -0.345 N 
HETATM   13  H   UNL     1      47.181 -28.386   1.324  1.00  0.00     0.167 HD
HETATM   14  C   UNL     1      48.750 -29.487   2.108  1.00  0.00     0.049 A 
HETATM   15  C   UNL     1      48.290 -29.408   3.423  1.00  0.00     0.031 A 
HETATM   16  C   UNL     1      49.926 -30.199   1.867  1.00  0.00     0.059 A 
HETATM   17  C   UNL     1      48.993 -30.037   4.461  1.00  0.00     0.014 A 
HETATM   18  C   UNL     1      50.169 -30.761   4.206  1.00  0.00    -0.022 A 
HETATM   19  C   UNL     1      50.639 -30.833   2.891  1.00  0.00     0.031 A 
HETATM   20  C   UNL     1      50.380 -30.264   0.480  1.00  0.00     0.259 A 
HETATM   21  O   UNL     1      51.383 -30.823   0.085  1.00  0.00    -0.267 OA
HETATM   22  N   UNL     1      49.564 -29.613  -0.469  1.00  0.00    -0.312 N 
HETATM   23  H   UNL     1      49.855 -29.683  -1.442  1.00  0.00     0.170 HD
BRANCH  18  24
HETATM   24  C   UNL     1      50.875 -31.414   5.293  1.00  0.00     0.010 A 
HETATM   25  C   UNL     1      52.150 -31.164   5.851  1.00  0.00     0.152 A 
HETATM   26  N   UNL     1      52.438 -31.980   6.866  1.00  0.00    -0.187 NA
HETATM   27  N   UNL     1      51.349 -32.756   6.971  1.00  0.00    -0.289 N 
HETATM   28  H   UNL     1      51.332 -33.467   7.697  1.00  0.00     0.188 HD
HETATM   29  C   UNL     1      50.383 -32.457   6.051  1.00  0.00     0.123 A 
ENDBRANCH  18  24
ENDBRANCH   7  11
BRANCH   1  30
HETATM   30  C   UNL     1      42.264 -30.234   1.342  1.00  0.00     0.251 C 
HETATM   31  O   UNL     1      41.676 -29.173   1.516  1.00  0.00    -0.268 OA
HETATM   32  N   UNL     1      41.924 -31.415   1.963  1.00  0.00    -0.357 N 
HETATM   33  H   UNL     1      42.287 -32.286   1.599  1.00  0.00     0.162 HD
BRANCH  32  34
HETATM   34  C   UNL     1      40.785 -31.470   2.867  1.00  0.00     0.129 C 
BRANCH  34  35
HETATM   35  C   UNL     1      41.175 -31.129   4.301  1.00  0.00     0.079 C 
BRANCH  35  36
HETATM   36  C   UNL     1      40.288 -31.832   5.291  1.00  0.00     0.035 A 
HETATM   37  C   UNL     1      39.246 -32.648   4.859  1.00  0.00     0.027 A 
HETATM   38  C   UNL     1      38.440 -33.267   5.811  1.00  0.00     0.003 A 
HETATM   39  C   UNL     1      38.691 -33.052   7.160  1.00  0.00     0.019 A 
HETATM   40  C   UNL     1      39.743 -32.221   7.504  1.00  0.00     0.117 A 
HETATM   41  N   UNL     1      40.541 -31.607   6.602  1.00  0.00    -0.266 NA
ENDBRANCH  35  36
ENDBRANCH  34  35
ENDBRANCH  32  34
ENDBRANCH   1  30
TORSDOF 6
ENDMDL
MODEL 10
REMARK VINA RESULT:      -9.0      5.496      8.483
REMARK  6 active torsions:
REMARK  status: ('A' for Active; 'I' for Inactive)
REMARK       I    between atoms: C_2  and  N_3 
REMARK    1  A    between atoms: C_2  and  C_12 
REMARK    2  A    between atoms: N_3  and  C_4 
REMARK    3  A    between atoms: C_4  and  C_5 
REMARK    4  A    between atoms: C_5  and  C_6 
REMARK    5  A    between atoms: C_18  and  C_22 
REMARK    6  A    between atoms: C_28  and  C_34 
ROOT
HETATM    1  C   UNL     1      41.332  -9.063  -1.057  1.00  0.00     0.032 A 
HETATM    2  C   UNL     1      40.077  -8.734  -0.535  1.00  0.00     0.020 A 
HETATM    3  C   UNL     1      39.061  -9.693  -0.508  1.00  0.00     0.038 A 
HETATM    4  C   UNL     1      39.298 -10.979  -0.994  1.00  0.00     0.075 A 
HETATM    5  O   UNL     1      38.275 -11.880  -0.844  1.00  0.00    -0.350 OA
HETATM    6  C   UNL     1      38.417 -13.097  -1.588  1.00  0.00     0.188 C 
HETATM    7  C   UNL     1      39.807 -13.709  -1.436  1.00  0.00     0.082 C 
HETATM    8  C   UNL     1      40.832 -12.719  -1.990  1.00  0.00     0.056 C 
HETATM    9  C   UNL     1      40.556 -11.330  -1.493  1.00  0.00    -0.023 A 
HETATM   10  C   UNL     1      41.566 -10.360  -1.535  1.00  0.00     0.027 A 
ENDROOT
BRANCH   7  11
HETATM   11  C   UNL     1      40.143 -14.075  -0.021  1.00  0.00     0.091 A 
HETATM   12  N   UNL     1      41.212 -14.840   0.178  1.00  0.00    -0.345 N 
HETATM   13  H   UNL     1      41.759 -15.165  -0.614  1.00  0.00     0.167 HD
HETATM   14  C   UNL     1      41.594 -15.165   1.450  1.00  0.00     0.049 A 
HETATM   15  C   UNL     1      42.732 -15.948   1.649  1.00  0.00     0.031 A 
HETATM   16  C   UNL     1      40.892 -14.731   2.576  1.00  0.00     0.059 A 
HETATM   17  C   UNL     1      43.152 -16.275   2.946  1.00  0.00     0.014 A 
HETATM   18  C   UNL     1      42.445 -15.825   4.072  1.00  0.00    -0.022 A 
HETATM   19  C   UNL     1      41.298 -15.049   3.877  1.00  0.00     0.031 A 
HETATM   20  C   UNL     1      39.707 -13.913   2.334  1.00  0.00     0.259 A 
HETATM   21  O   UNL     1      38.968 -13.461   3.185  1.00  0.00    -0.267 OA
HETATM   22  N   UNL     1      39.414 -13.634   0.983  1.00  0.00    -0.312 N 
HETATM   23  H   UNL     1      38.609 -13.034   0.807  1.00  0.00     0.170 HD
BRANCH  18  24
HETATM   24  C   UNL     1      42.903 -16.166   5.406  1.00  0.00     0.010 A 
HETATM   25  C   UNL     1      44.206 -16.402   5.906  1.00  0.00     0.152 A 
HETATM   26  N   UNL     1      44.216 -16.673   7.212  1.00  0.00    -0.187 NA
HETATM   27  N   UNL     1      42.923 -16.610   7.562  1.00  0.00    -0.289 N 
HETATM   28  H   UNL     1      42.677 -16.777   8.533  1.00  0.00     0.188 HD
HETATM   29  C   UNL     1      42.095 -16.308   6.515  1.00  0.00     0.123 A 
ENDBRANCH  18  24
ENDBRANCH   7  11
BRANCH   1  30
HETATM   30  C   UNL     1      42.466  -8.100  -1.066  1.00  0.00     0.251 C 
HETATM   31  O   UNL     1      43.581  -8.490  -1.393  1.00  0.00    -0.268 OA
HETATM   32  N   UNL     1      42.174  -6.798  -0.725  1.00  0.00    -0.357 N 
HETATM   33  H   UNL     1      41.208  -6.500  -0.702  1.00  0.00     0.162 HD
BRANCH  32  34
HETATM   34  C   UNL     1      43.208  -5.775  -0.772  1.00  0.00     0.129 C 
BRANCH  34  35
HETATM   35  C   UNL     1      43.103  -4.914  -2.027  1.00  0.00     0.079 C 
BRANCH  35  36
HETATM   36  C   UNL     1      42.195  -5.543  -3.047  1.00  0.00     0.035 A 
HETATM   37  C   UNL     1      42.719  -6.274  -4.111  1.00  0.00     0.027 A 
HETATM   38  C   UNL     1      41.842  -6.825  -5.041  1.00  0.00     0.003 A 
HETATM   39  C   UNL     1      40.475  -6.631  -4.889  1.00  0.00     0.019 A 
HETATM   40  C   UNL     1      40.039  -5.886  -3.806  1.00  0.00     0.117 A 
HETATM   41  N   UNL     1      40.866  -5.338  -2.889  1.00  0.00    -0.266 NA
ENDBRANCH  35  36
ENDBRANCH  34  35
ENDBRANCH  32  34
ENDBRANCH   1  30
TORSDOF 6
ENDMDL
