MODEL 1
REMARK VINA RESULT:      -8.4      0.000      0.000
REMARK  5 active torsions:
REMARK  status: ('A' for Active; 'I' for Inactive)
REMARK       I    between atoms: C_2  and  N_3 
REMARK    1  A    between atoms: C_2  and  C_11 
REMARK    2  A    between atoms: N_3  and  C_4 
REMARK    3  A    between atoms: C_4  and  C_5 
REMARK    4  A    between atoms: C_5  and  C_6 
REMARK    5  A    between atoms: C_17  and  C_21 
ROOT
HETATM    1  C   UNL     1      43.277 -14.637   6.856  1.00  0.00     0.059 A 
HETATM    2  C   UNL     1      43.143 -15.253   8.092  1.00  0.00     0.106 A 
HETATM    3  N   UNL     1      43.195 -16.610   7.913  1.00  0.00    -0.364 N 
HETATM    4  H   UNL     1      43.128 -17.298   8.650  1.00  0.00     0.165 HD
HETATM    5  C   UNL     1      43.371 -16.908   6.584  1.00  0.00     0.044 A 
HETATM    6  C   UNL     1      43.493 -18.154   5.950  1.00  0.00     0.042 A 
HETATM    7  C   UNL     1      43.669 -18.179   4.555  1.00  0.00    -0.021 A 
HETATM    8  C   UNL     1      43.717 -16.976   3.844  1.00  0.00     0.013 A 
HETATM    9  C   UNL     1      43.597 -15.740   4.496  1.00  0.00     0.016 A 
HETATM   10  C   UNL     1      43.422 -15.697   5.895  1.00  0.00     0.008 A 
ENDROOT
BRANCH   1  11
HETATM   11  C   UNL     1      43.295 -13.198   6.580  1.00  0.00     0.253 C 
HETATM   12  O   UNL     1      42.287 -12.568   6.275  1.00  0.00    -0.268 OA
HETATM   13  N   UNL     1      44.530 -12.593   6.699  1.00  0.00    -0.356 N 
HETATM   14  H   UNL     1      45.253 -13.101   7.191  1.00  0.00     0.162 HD
BRANCH  13  15
HETATM   15  C   UNL     1      44.676 -11.155   6.590  1.00  0.00     0.128 C 
BRANCH  15  16
HETATM   16  C   UNL     1      45.597 -10.571   7.662  1.00  0.00     0.066 C 
BRANCH  16  17
HETATM   17  C   UNL     1      44.832 -10.032   8.841  1.00  0.00    -0.016 A 
HETATM   18  C   UNL     1      45.306  -9.755  10.108  1.00  0.00     0.015 A 
HETATM   19  C   UNL     1      44.288  -9.248  10.967  1.00  0.00     0.008 A 
HETATM   20  C   UNL     1      43.071  -9.160  10.329  1.00  0.00     0.050 A 
HETATM   21  S   UNL     1      43.159  -9.686   8.705  1.00  0.00    -0.107 SA
ENDBRANCH  16  17
ENDBRANCH  15  16
ENDBRANCH  13  15
ENDBRANCH   1  11
BRANCH   7  22
HETATM   22  C   UNL     1      43.814 -19.456   3.874  1.00  0.00     0.010 A 
HETATM   23  C   UNL     1      43.753 -19.782   2.499  1.00  0.00     0.152 A 
HETATM   24  N   UNL     1      43.954 -21.082   2.264  1.00  0.00    -0.187 NA
HETATM   25  N   UNL     1      44.143 -21.594   3.492  1.00  0.00    -0.289 N 
HETATM   26  H   UNL     1      44.319 -22.590   3.575  1.00  0.00     0.188 HD
HETATM   27  C   UNL     1      44.072 -20.664   4.488  1.00  0.00     0.123 A 
ENDBRANCH   7  22
TORSDOF 5
ENDMDL
MODEL 2
REMARK VINA RESULT:      -8.2      5.083      7.226
REMARK  5 active torsions:
REMARK  status: ('A' for Active; 'I' for Inactive)
REMARK       I    between atoms: C_2  and  N_3 
REMARK    1  A    between atoms: C_2  and  C_11 
REMARK    2  A    between atoms: N_3  and  C_4 
REMARK    3  A    between atoms: C_4  and  C_5 
REMARK    4  A    between atoms: C_5  and  C_6 
REMARK    5  A    between atoms: C_17  and  C_21 
ROOT
HETATM    1  C   UNL     1      42.498 -13.565   3.385  1.00  0.00     0.059 A 
HETATM    2  C   UNL     1      42.642 -13.372   4.752  1.00  0.00     0.106 A 
HETATM    3  N   UNL     1      42.961 -14.571   5.332  1.00  0.00    -0.364 N 
HETATM    4  H   UNL     1      43.129 -14.715   6.319  1.00  0.00     0.165 HD
HETATM    5  C   UNL     1      43.042 -15.556   4.378  1.00  0.00     0.044 A 
HETATM    6  C   UNL     1      43.351 -16.917   4.515  1.00  0.00     0.042 A 
HETATM    7  C   UNL     1      43.366 -17.718   3.359  1.00  0.00    -0.021 A 
HETATM    8  C   UNL     1      43.074 -17.143   2.118  1.00  0.00     0.013 A 
HETATM    9  C   UNL     1      42.769 -15.778   2.002  1.00  0.00     0.016 A 
HETATM   10  C   UNL     1      42.753 -14.962   3.151  1.00  0.00     0.008 A 
ENDROOT
BRANCH   1  11
HETATM   11  C   UNL     1      42.176 -12.553   2.375  1.00  0.00     0.253 C 
HETATM   12  O   UNL     1      42.815 -11.512   2.252  1.00  0.00    -0.268 OA
HETATM   13  N   UNL     1      41.107 -12.859   1.558  1.00  0.00    -0.356 N 
HETATM   14  H   UNL     1      40.793 -13.820   1.540  1.00  0.00     0.162 HD
BRANCH  13  15
HETATM   15  C   UNL     1      40.760 -12.019   0.429  1.00  0.00     0.128 C 
BRANCH  15  16
HETATM   16  C   UNL     1      39.272 -12.081   0.081  1.00  0.00     0.066 C 
BRANCH  16  17
HETATM   17  C   UNL     1      38.990 -13.026  -1.055  1.00  0.00    -0.016 A 
HETATM   18  C   UNL     1      39.444 -14.319  -1.219  1.00  0.00     0.015 A 
HETATM   19  C   UNL     1      38.964 -14.914  -2.422  1.00  0.00     0.008 A 
HETATM   20  C   UNL     1      38.163 -14.053  -3.138  1.00  0.00     0.050 A 
HETATM   21  S   UNL     1      37.994 -12.539  -2.363  1.00  0.00    -0.107 SA
ENDBRANCH  16  17
ENDBRANCH  15  16
ENDBRANCH  13  15
ENDBRANCH   1  11
BRANCH   7  22
HETATM   22  C   UNL     1      43.700 -19.128   3.469  1.00  0.00     0.010 A 
HETATM   23  C   UNL     1      43.686 -20.160   2.501  1.00  0.00     0.152 A 
HETATM   24  N   UNL     1      44.080 -21.338   2.992  1.00  0.00    -0.187 NA
HETATM   25  N   UNL     1      44.345 -21.066   4.280  1.00  0.00    -0.289 N 
HETATM   26  H   UNL     1      44.668 -21.822   4.875  1.00  0.00     0.188 HD
HETATM   27  C   UNL     1      44.137 -19.760   4.616  1.00  0.00     0.123 A 
ENDBRANCH   7  22
TORSDOF 5
ENDMDL
MODEL 3
REMARK VINA RESULT:      -8.2      5.822      8.491
REMARK  5 active torsions:
REMARK  status: ('A' for Active; 'I' for Inactive)
REMARK       I    between atoms: C_2  and  N_3 
REMARK    1  A    between atoms: C_2  and  C_11 
REMARK    2  A    between atoms: N_3  and  C_4 
REMARK    3  A    between atoms: C_4  and  C_5 
REMARK    4  A    between atoms: C_5  and  C_6 
REMARK    5  A    between atoms: C_17  and  C_21 
ROOT
HETATM    1  C   UNL     1      40.868 -14.581   3.900  1.00  0.00     0.059 A 
HETATM    2  C   UNL     1      40.889 -13.221   4.174  1.00  0.00     0.106 A 
HETATM    3  N   UNL     1      40.529 -12.540   3.042  1.00  0.00    -0.364 N 
HETATM    4  H   UNL     1      40.456 -11.535   2.964  1.00  0.00     0.165 HD
HETATM    5  C   UNL     1      40.258 -13.420   2.022  1.00  0.00     0.044 A 
HETATM    6  C   UNL     1      39.844 -13.171   0.705  1.00  0.00     0.042 A 
HETATM    7  C   UNL     1      39.633 -14.269  -0.147  1.00  0.00    -0.021 A 
HETATM    8  C   UNL     1      39.840 -15.566   0.334  1.00  0.00     0.013 A 
HETATM    9  C   UNL     1      40.252 -15.794   1.655  1.00  0.00     0.016 A 
HETATM   10  C   UNL     1      40.465 -14.704   2.524  1.00  0.00     0.008 A 
ENDROOT
BRANCH   1  11
HETATM   11  C   UNL     1      41.167 -15.677   4.824  1.00  0.00     0.253 C 
HETATM   12  O   UNL     1      40.299 -16.410   5.288  1.00  0.00    -0.268 OA
HETATM   13  N   UNL     1      42.504 -15.839   5.128  1.00  0.00    -0.356 N 
HETATM   14  H   UNL     1      43.178 -15.382   4.530  1.00  0.00     0.162 HD
BRANCH  13  15
HETATM   15  C   UNL     1      42.963 -16.964   5.919  1.00  0.00     0.128 C 
BRANCH  15  16
HETATM   16  C   UNL     1      44.276 -17.555   5.400  1.00  0.00     0.066 C 
BRANCH  16  17
HETATM   17  C   UNL     1      44.051 -18.652   4.396  1.00  0.00    -0.016 A 
HETATM   18  C   UNL     1      43.744 -18.529   3.055  1.00  0.00     0.015 A 
HETATM   19  C   UNL     1      43.609 -19.794   2.413  1.00  0.00     0.008 A 
HETATM   20  C   UNL     1      43.812 -20.839   3.285  1.00  0.00     0.050 A 
HETATM   21  S   UNL     1      44.162 -20.296   4.867  1.00  0.00    -0.107 SA
ENDBRANCH  16  17
ENDBRANCH  15  16
ENDBRANCH  13  15
ENDBRANCH   1  11
BRANCH   7  22
HETATM   22  C   UNL     1      39.188 -14.041  -1.513  1.00  0.00     0.010 A 
HETATM   23  C   UNL     1      39.021 -14.939  -2.592  1.00  0.00     0.152 A 
HETATM   24  N   UNL     1      38.572 -14.342  -3.700  1.00  0.00    -0.187 NA
HETATM   25  N   UNL     1      38.453 -13.055  -3.334  1.00  0.00    -0.289 N 
HETATM   26  H   UNL     1      38.122 -12.388  -4.022  1.00  0.00     0.188 HD
HETATM   27  C   UNL     1      38.806 -12.823  -2.036  1.00  0.00     0.123 A 
ENDBRANCH   7  22
TORSDOF 5
ENDMDL
MODEL 4
REMARK VINA RESULT:      -8.2      1.961      2.707
REMARK  5 active torsions:
REMARK  status: ('A' for Active; 'I' for Inactive)
REMARK       I    between atoms: C_2  and  N_3 
REMARK    1  A    between atoms: C_2  and  C_11 
REMARK    2  A    between atoms: N_3  and  C_4 
REMARK    3  A    between atoms: C_4  and  C_5 
REMARK    4  A    between atoms: C_5  and  C_6 
REMARK    5  A    between atoms: C_17  and  C_21 
ROOT
HETATM    1  C   UNL     1      42.576 -13.556   3.227  1.00  0.00     0.059 A 
HETATM    2  C   UNL     1      42.370 -13.484   1.857  1.00  0.00     0.106 A 
HETATM    3  N   UNL     1      42.562 -14.729   1.319  1.00  0.00    -0.364 N 
HETATM    4  H   UNL     1      42.469 -14.961   0.340  1.00  0.00     0.165 HD
HETATM    5  C   UNL     1      42.883 -15.630   2.305  1.00  0.00     0.044 A 
HETATM    6  C   UNL     1      43.148 -17.004   2.215  1.00  0.00     0.042 A 
HETATM    7  C   UNL     1      43.454 -17.704   3.396  1.00  0.00    -0.021 A 
HETATM    8  C   UNL     1      43.487 -17.018   4.615  1.00  0.00     0.013 A 
HETATM    9  C   UNL     1      43.216 -15.644   4.684  1.00  0.00     0.016 A 
HETATM   10  C   UNL     1      42.905 -14.929   3.509  1.00  0.00     0.008 A 
ENDROOT
BRANCH   1  11
HETATM   11  C   UNL     1      42.460 -12.467   4.201  1.00  0.00     0.253 C 
HETATM   12  O   UNL     1      41.387 -11.943   4.485  1.00  0.00    -0.268 OA
HETATM   13  N   UNL     1      43.646 -12.079   4.790  1.00  0.00    -0.356 N 
HETATM   14  H   UNL     1      44.435 -12.705   4.708  1.00  0.00     0.162 HD
BRANCH  13  15
HETATM   15  C   UNL     1      43.667 -11.110   5.868  1.00  0.00     0.128 C 
BRANCH  15  16
HETATM   16  C   UNL     1      44.436 -11.606   7.094  1.00  0.00     0.066 C 
BRANCH  16  17
HETATM   17  C   UNL     1      44.431 -10.603   8.216  1.00  0.00    -0.016 A 
HETATM   18  C   UNL     1      45.421 -10.364   9.148  1.00  0.00     0.015 A 
HETATM   19  C   UNL     1      45.066  -9.330  10.062  1.00  0.00     0.008 A 
HETATM   20  C   UNL     1      43.815  -8.817   9.799  1.00  0.00     0.050 A 
HETATM   21  S   UNL     1      43.077  -9.581   8.460  1.00  0.00    -0.107 SA
ENDBRANCH  16  17
ENDBRANCH  15  16
ENDBRANCH  13  15
ENDBRANCH   1  11
BRANCH   7  22
HETATM   22  C   UNL     1      43.717 -19.132   3.335  1.00  0.00     0.010 A 
HETATM   23  C   UNL     1      43.711 -20.027   2.239  1.00  0.00     0.152 A 
HETATM   24  N   UNL     1      44.023 -21.279   2.589  1.00  0.00    -0.187 NA
HETATM   25  N   UNL     1      44.228 -21.189   3.914  1.00  0.00    -0.289 N 
HETATM   26  H   UNL     1      44.483 -22.032   4.418  1.00  0.00     0.188 HD
HETATM   27  C   UNL     1      44.061 -19.929   4.408  1.00  0.00     0.123 A 
ENDBRANCH   7  22
TORSDOF 5
ENDMDL
MODEL 5
REMARK VINA RESULT:      -8.1      5.690      7.745
REMARK  5 active torsions:
REMARK  status: ('A' for Active; 'I' for Inactive)
REMARK       I    between atoms: C_2  and  N_3 
REMARK    1  A    between atoms: C_2  and  C_11 
REMARK    2  A    between atoms: N_3  and  C_4 
REMARK    3  A    between atoms: C_4  and  C_5 
REMARK    4  A    between atoms: C_5  and  C_6 
REMARK    5  A    between atoms: C_17  and  C_21 
ROOT
HETATM    1  C   UNL     1      41.133 -13.400   2.333  1.00  0.00     0.059 A 
HETATM    2  C   UNL     1      40.172 -13.534   3.325  1.00  0.00     0.106 A 
HETATM    3  N   UNL     1      40.259 -14.796   3.850  1.00  0.00    -0.364 N 
HETATM    4  H   UNL     1      39.679 -15.159   4.594  1.00  0.00     0.165 HD
HETATM    5  C   UNL     1      41.265 -15.500   3.236  1.00  0.00     0.044 A 
HETATM    6  C   UNL     1      41.714 -16.810   3.461  1.00  0.00     0.042 A 
HETATM    7  C   UNL     1      42.779 -17.294   2.682  1.00  0.00    -0.021 A 
HETATM    8  C   UNL     1      43.356 -16.467   1.712  1.00  0.00     0.013 A 
HETATM    9  C   UNL     1      42.894 -15.160   1.503  1.00  0.00     0.016 A 
HETATM   10  C   UNL     1      41.829 -14.658   2.279  1.00  0.00     0.008 A 
ENDROOT
BRANCH   1  11
HETATM   11  C   UNL     1      41.408 -12.213   1.519  1.00  0.00     0.253 C 
HETATM   12  O   UNL     1      42.135 -11.301   1.901  1.00  0.00    -0.268 OA
HETATM   13  N   UNL     1      40.800 -12.197   0.280  1.00  0.00    -0.356 N 
HETATM   14  H   UNL     1      40.432 -13.071  -0.071  1.00  0.00     0.162 HD
BRANCH  13  15
HETATM   15  C   UNL     1      41.089 -11.155  -0.685  1.00  0.00     0.128 C 
BRANCH  15  16
HETATM   16  C   UNL     1      41.151 -11.680  -2.121  1.00  0.00     0.066 C 
BRANCH  16  17
HETATM   17  C   UNL     1      40.056 -12.668  -2.417  1.00  0.00    -0.016 A 
HETATM   18  C   UNL     1      40.173 -14.027  -2.636  1.00  0.00     0.015 A 
HETATM   19  C   UNL     1      38.912 -14.645  -2.881  1.00  0.00     0.008 A 
HETATM   20  C   UNL     1      37.877 -13.738  -2.845  1.00  0.00     0.050 A 
HETATM   21  S   UNL     1      38.425 -12.152  -2.519  1.00  0.00    -0.107 SA
ENDBRANCH  16  17
ENDBRANCH  15  16
ENDBRANCH  13  15
ENDBRANCH   1  11
BRANCH   7  22
HETATM   22  C   UNL     1      43.276 -18.642   2.905  1.00  0.00     0.010 A 
HETATM   23  C   UNL     1      43.210 -19.798   2.092  1.00  0.00     0.152 A 
HETATM   24  N   UNL     1      43.805 -20.858   2.648  1.00  0.00    -0.187 NA
HETATM   25  N   UNL     1      44.251 -20.384   3.823  1.00  0.00    -0.289 N 
HETATM   26  H   UNL     1      44.749 -21.019   4.439  1.00  0.00     0.188 HD
HETATM   27  C   UNL     1      43.964 -19.066   4.024  1.00  0.00     0.123 A 
ENDBRANCH   7  22
TORSDOF 5
ENDMDL
MODEL 6
REMARK VINA RESULT:      -7.6      3.362      5.109
REMARK  5 active torsions:
REMARK  status: ('A' for Active; 'I' for Inactive)
REMARK       I    between atoms: C_2  and  N_3 
REMARK    1  A    between atoms: C_2  and  C_11 
REMARK    2  A    between atoms: N_3  and  C_4 
REMARK    3  A    between atoms: C_4  and  C_5 
REMARK    4  A    between atoms: C_5  and  C_6 
REMARK    5  A    between atoms: C_17  and  C_21 
ROOT
HETATM    1  C   UNL     1      43.090 -13.838   5.379  1.00  0.00     0.059 A 
HETATM    2  C   UNL     1      43.639 -14.027   6.639  1.00  0.00     0.106 A 
HETATM    3  N   UNL     1      44.000 -15.342   6.767  1.00  0.00    -0.364 N 
HETATM    4  H   UNL     1      44.431 -15.751   7.585  1.00  0.00     0.165 HD
HETATM    5  C   UNL     1      43.713 -16.029   5.613  1.00  0.00     0.044 A 
HETATM    6  C   UNL     1      43.924 -17.379   5.294  1.00  0.00     0.042 A 
HETATM    7  C   UNL     1      43.533 -17.834   4.023  1.00  0.00    -0.021 A 
HETATM    8  C   UNL     1      42.950 -16.938   3.119  1.00  0.00     0.013 A 
HETATM    9  C   UNL     1      42.750 -15.592   3.456  1.00  0.00     0.016 A 
HETATM   10  C   UNL     1      43.139 -15.120   4.726  1.00  0.00     0.008 A 
ENDROOT
BRANCH   1  11
HETATM   11  C   UNL     1      42.586 -12.586   4.809  1.00  0.00     0.253 C 
HETATM   12  O   UNL     1      41.997 -11.742   5.479  1.00  0.00    -0.268 OA
HETATM   13  N   UNL     1      42.831 -12.414   3.462  1.00  0.00    -0.356 N 
HETATM   14  H   UNL     1      43.527 -13.009   3.034  1.00  0.00     0.162 HD
BRANCH  13  15
HETATM   15  C   UNL     1      42.512 -11.167   2.794  1.00  0.00     0.128 C 
BRANCH  15  16
HETATM   16  C   UNL     1      41.111 -11.167   2.180  1.00  0.00     0.066 C 
BRANCH  16  17
HETATM   17  C   UNL     1      40.619 -12.556   1.877  1.00  0.00    -0.016 A 
HETATM   18  C   UNL     1      39.810 -13.361   2.654  1.00  0.00     0.015 A 
HETATM   19  C   UNL     1      39.546 -14.618   2.037  1.00  0.00     0.008 A 
HETATM   20  C   UNL     1      40.165 -14.733   0.813  1.00  0.00     0.050 A 
HETATM   21  S   UNL     1      41.060 -13.332   0.413  1.00  0.00    -0.107 SA
ENDBRANCH  16  17
ENDBRANCH  15  16
ENDBRANCH  13  15
ENDBRANCH   1  11
BRANCH   7  22
HETATM   22  C   UNL     1      43.755 -19.224   3.659  1.00  0.00     0.010 A 
HETATM   23  C   UNL     1      43.697 -19.871   2.403  1.00  0.00     0.152 A 
HETATM   24  N   UNL     1      43.982 -21.175   2.477  1.00  0.00    -0.187 NA
HETATM   25  N   UNL     1      44.222 -21.367   3.784  1.00  0.00    -0.289 N 
HETATM   26  H   UNL     1      44.466 -22.302   4.096  1.00  0.00     0.188 HD
HETATM   27  C   UNL     1      44.102 -20.233   4.534  1.00  0.00     0.123 A 
ENDBRANCH   7  22
TORSDOF 5
ENDMDL
MODEL 7
REMARK VINA RESULT:      -7.0      2.920      3.801
REMARK  5 active torsions:
REMARK  status: ('A' for Active; 'I' for Inactive)
REMARK       I    between atoms: C_2  and  N_3 
REMARK    1  A    between atoms: C_2  and  C_11 
REMARK    2  A    between atoms: N_3  and  C_4 
REMARK    3  A    between atoms: C_4  and  C_5 
REMARK    4  A    between atoms: C_5  and  C_6 
REMARK    5  A    between atoms: C_17  and  C_21 
ROOT
HETATM    1  C   UNL     1      40.631 -12.873   3.358  1.00  0.00     0.059 A 
HETATM    2  C   UNL     1      39.401 -13.291   2.870  1.00  0.00     0.106 A 
HETATM    3  N   UNL     1      39.466 -14.634   2.609  1.00  0.00    -0.364 N 
HETATM    4  H   UNL     1      38.707 -15.196   2.251  1.00  0.00     0.165 HD
HETATM    5  C   UNL     1      40.712 -15.120   2.925  1.00  0.00     0.044 A 
HETATM    6  C   UNL     1      41.217 -16.426   2.835  1.00  0.00     0.042 A 
HETATM    7  C   UNL     1      42.546 -16.656   3.230  1.00  0.00    -0.021 A 
HETATM    8  C   UNL     1      43.322 -15.589   3.695  1.00  0.00     0.013 A 
HETATM    9  C   UNL     1      42.798 -14.291   3.781  1.00  0.00     0.016 A 
HETATM   10  C   UNL     1      41.466 -14.044   3.391  1.00  0.00     0.008 A 
ENDROOT
BRANCH   1  11
HETATM   11  C   UNL     1      41.004 -11.521   3.781  1.00  0.00     0.253 C 
HETATM   12  O   UNL     1      41.124 -10.588   2.992  1.00  0.00    -0.268 OA
HETATM   13  N   UNL     1      41.201 -11.364   5.138  1.00  0.00    -0.356 N 
HETATM   14  H   UNL     1      40.845 -12.087   5.748  1.00  0.00     0.162 HD
BRANCH  13  15
HETATM   15  C   UNL     1      41.440 -10.057   5.716  1.00  0.00     0.128 C 
BRANCH  15  16
HETATM   16  C   UNL     1      42.069 -10.132   7.109  1.00  0.00     0.066 C 
BRANCH  16  17
HETATM   17  C   UNL     1      43.535 -10.466   7.056  1.00  0.00    -0.016 A 
HETATM   18  C   UNL     1      44.183 -11.313   6.180  1.00  0.00     0.015 A 
HETATM   19  C   UNL     1      45.585 -11.379   6.428  1.00  0.00     0.008 A 
HETATM   20  C   UNL     1      45.959 -10.583   7.488  1.00  0.00     0.050 A 
HETATM   21  S   UNL     1      44.626  -9.764   8.177  1.00  0.00    -0.107 SA
ENDBRANCH  16  17
ENDBRANCH  15  16
ENDBRANCH  13  15
ENDBRANCH   1  11
BRANCH   7  22
HETATM   22  C   UNL     1      43.091 -18.003   3.163  1.00  0.00     0.010 A 
HETATM   23  C   UNL     1      43.889 -18.724   4.081  1.00  0.00     0.152 A 
HETATM   24  N   UNL     1      44.178 -19.959   3.660  1.00  0.00    -0.187 NA
HETATM   25  N   UNL     1      43.567 -20.032   2.466  1.00  0.00    -0.289 N 
HETATM   26  H   UNL     1      43.644 -20.895   1.939  1.00  0.00     0.188 HD
HETATM   27  C   UNL     1      42.901 -18.891   2.124  1.00  0.00     0.123 A 
ENDBRANCH   7  22
TORSDOF 5
ENDMDL
MODEL 8
REMARK VINA RESULT:      -7.0      2.295      3.615
REMARK  5 active torsions:
REMARK  status: ('A' for Active; 'I' for Inactive)
REMARK       I    between atoms: C_2  and  N_3 
REMARK    1  A    between atoms: C_2  and  C_11 
REMARK    2  A    between atoms: N_3  and  C_4 
REMARK    3  A    between atoms: C_4  and  C_5 
REMARK    4  A    between atoms: C_5  and  C_6 
REMARK    5  A    between atoms: C_17  and  C_21 
ROOT
HETATM    1  C   UNL     1      43.270 -11.796   6.579  1.00  0.00     0.059 A 
HETATM    2  C   UNL     1      42.539 -11.146   5.595  1.00  0.00     0.106 A 
HETATM    3  N   UNL     1      42.262 -12.038   4.594  1.00  0.00    -0.364 N 
HETATM    4  H   UNL     1      41.736 -11.830   3.756  1.00  0.00     0.165 HD
HETATM    5  C   UNL     1      42.784 -13.272   4.897  1.00  0.00     0.044 A 
HETATM    6  C   UNL     1      42.730 -14.474   4.176  1.00  0.00     0.042 A 
HETATM    7  C   UNL     1      43.356 -15.609   4.720  1.00  0.00    -0.021 A 
HETATM    8  C   UNL     1      44.009 -15.511   5.954  1.00  0.00     0.013 A 
HETATM    9  C   UNL     1      44.049 -14.301   6.661  1.00  0.00     0.016 A 
HETATM   10  C   UNL     1      43.424 -13.154   6.130  1.00  0.00     0.008 A 
ENDROOT
BRANCH   1  11
HETATM   11  C   UNL     1      43.764 -11.230   7.837  1.00  0.00     0.253 C 
HETATM   12  O   UNL     1      44.873 -11.494   8.293  1.00  0.00    -0.268 OA
HETATM   13  N   UNL     1      42.898 -10.364   8.471  1.00  0.00    -0.356 N 
HETATM   14  H   UNL     1      42.126  -9.996   7.931  1.00  0.00     0.162 HD
BRANCH  13  15
HETATM   15  C   UNL     1      43.304  -9.624   9.650  1.00  0.00     0.128 C 
BRANCH  15  16
HETATM   16  C   UNL     1      43.205 -10.453  10.932  1.00  0.00     0.066 C 
BRANCH  16  17
HETATM   17  C   UNL     1      42.219  -9.876  11.911  1.00  0.00    -0.016 A 
HETATM   18  C   UNL     1      42.457  -9.437  13.199  1.00  0.00     0.015 A 
HETATM   19  C   UNL     1      41.277  -8.945  13.829  1.00  0.00     0.008 A 
HETATM   20  C   UNL     1      40.179  -9.028  13.004  1.00  0.00     0.050 A 
HETATM   21  S   UNL     1      40.570  -9.698  11.480  1.00  0.00    -0.107 SA
ENDBRANCH  16  17
ENDBRANCH  15  16
ENDBRANCH  13  15
ENDBRANCH   1  11
BRANCH   7  22
HETATM   22  C   UNL     1      43.301 -16.871   4.002  1.00  0.00     0.010 A 
HETATM   23  C   UNL     1      43.877 -18.129   4.298  1.00  0.00     0.152 A 
HETATM   24  N   UNL     1      43.582 -19.063   3.388  1.00  0.00    -0.187 NA
HETATM   25  N   UNL     1      42.818 -18.403   2.502  1.00  0.00    -0.289 N 
HETATM   26  H   UNL     1      42.463 -18.913   1.700  1.00  0.00     0.188 HD
HETATM   27  C   UNL     1      42.617 -17.092   2.824  1.00  0.00     0.123 A 
ENDBRANCH   7  22
TORSDOF 5
ENDMDL
MODEL 9
REMARK VINA RESULT:      -6.9      4.977      5.726
REMARK  5 active torsions:
REMARK  status: ('A' for Active; 'I' for Inactive)
REMARK       I    between atoms: C_2  and  N_3 
REMARK    1  A    between atoms: C_2  and  C_11 
REMARK    2  A    between atoms: N_3  and  C_4 
REMARK    3  A    between atoms: C_4  and  C_5 
REMARK    4  A    between atoms: C_5  and  C_6 
REMARK    5  A    between atoms: C_17  and  C_21 
ROOT
HETATM    1  C   UNL     1      41.539 -13.916   3.839  1.00  0.00     0.059 A 
HETATM    2  C   UNL     1      41.415 -15.253   4.189  1.00  0.00     0.106 A 
HETATM    3  N   UNL     1      40.860 -15.932   3.137  1.00  0.00    -0.364 N 
HETATM    4  H   UNL     1      40.664 -16.923   3.120  1.00  0.00     0.165 HD
HETATM    5  C   UNL     1      40.622 -15.075   2.090  1.00  0.00     0.044 A 
HETATM    6  C   UNL     1      40.083 -15.334   0.821  1.00  0.00     0.042 A 
HETATM    7  C   UNL     1      39.945 -14.261  -0.078  1.00  0.00    -0.021 A 
HETATM    8  C   UNL     1      40.345 -12.978   0.313  1.00  0.00     0.013 A 
HETATM    9  C   UNL     1      40.884 -12.741   1.586  1.00  0.00     0.016 A 
HETATM   10  C   UNL     1      41.031 -13.806   2.497  1.00  0.00     0.008 A 
ENDROOT
BRANCH   1  11
HETATM   11  C   UNL     1      42.097 -12.834   4.654  1.00  0.00     0.253 C 
HETATM   12  O   UNL     1      41.475 -12.303   5.569  1.00  0.00    -0.268 OA
HETATM   13  N   UNL     1      43.385 -12.460   4.329  1.00  0.00    -0.356 N 
HETATM   14  H   UNL     1      43.924 -13.092   3.753  1.00  0.00     0.162 HD
BRANCH  13  15
HETATM   15  C   UNL     1      44.115 -11.500   5.134  1.00  0.00     0.128 C 
BRANCH  15  16
HETATM   16  C   UNL     1      44.598 -12.088   6.461  1.00  0.00     0.066 C 
BRANCH  16  17
HETATM   17  C   UNL     1      44.989 -11.023   7.449  1.00  0.00    -0.016 A 
HETATM   18  C   UNL     1      46.191 -10.349   7.543  1.00  0.00     0.015 A 
HETATM   19  C   UNL     1      46.197  -9.398   8.605  1.00  0.00     0.008 A 
HETATM   20  C   UNL     1      45.002  -9.382   9.288  1.00  0.00     0.050 A 
HETATM   21  S   UNL     1      43.883 -10.506   8.652  1.00  0.00    -0.107 SA
ENDBRANCH  16  17
ENDBRANCH  15  16
ENDBRANCH  13  15
ENDBRANCH   1  11
BRANCH   7  22
HETATM   22  C   UNL     1      39.405 -14.503  -1.405  1.00  0.00     0.010 A 
HETATM   23  C   UNL     1      39.350 -13.670  -2.547  1.00  0.00     0.152 A 
HETATM   24  N   UNL     1      38.781 -14.266  -3.599  1.00  0.00    -0.187 NA
HETATM   25  N   UNL     1      38.465 -15.485  -3.132  1.00  0.00    -0.289 N 
HETATM   26  H   UNL     1      38.010 -16.138  -3.761  1.00  0.00     0.188 HD
HETATM   27  C   UNL     1      38.819 -15.679  -1.828  1.00  0.00     0.123 A 
ENDBRANCH   7  22
TORSDOF 5
ENDMDL
MODEL 10
REMARK VINA RESULT:      -6.8      5.754      6.830
REMARK  5 active torsions:
REMARK  status: ('A' for Active; 'I' for Inactive)
REMARK       I    between atoms: C_2  and  N_3 
REMARK    1  A    between atoms: C_2  and  C_11 
REMARK    2  A    between atoms: N_3  and  C_4 
REMARK    3  A    between atoms: C_4  and  C_5 
REMARK    4  A    between atoms: C_5  and  C_6 
REMARK    5  A    between atoms: C_17  and  C_21 
ROOT
HETATM    1  C   UNL     1      40.875 -13.528   1.805  1.00  0.00     0.059 A 
HETATM    2  C   UNL     1      39.706 -13.779   2.508  1.00  0.00     0.106 A 
HETATM    3  N   UNL     1      39.763 -15.051   3.013  1.00  0.00    -0.364 N 
HETATM    4  H   UNL     1      39.044 -15.489   3.572  1.00  0.00     0.165 HD
HETATM    5  C   UNL     1      40.952 -15.647   2.670  1.00  0.00     0.044 A 
HETATM    6  C   UNL     1      41.440 -16.925   2.979  1.00  0.00     0.042 A 
HETATM    7  C   UNL     1      42.709 -17.291   2.496  1.00  0.00    -0.021 A 
HETATM    8  C   UNL     1      43.442 -16.381   1.727  1.00  0.00     0.013 A 
HETATM    9  C   UNL     1      42.938 -15.106   1.431  1.00  0.00     0.016 A 
HETATM   10  C   UNL     1      41.669 -14.723   1.910  1.00  0.00     0.008 A 
ENDROOT
BRANCH   1  11
HETATM   11  C   UNL     1      41.247 -12.290   1.115  1.00  0.00     0.253 C 
HETATM   12  O   UNL     1      41.913 -11.407   1.648  1.00  0.00    -0.268 OA
HETATM   13  N   UNL     1      40.806 -12.190  -0.189  1.00  0.00    -0.356 N 
HETATM   14  H   UNL     1      40.492 -13.037  -0.642  1.00  0.00     0.162 HD
BRANCH  13  15
HETATM   15  C   UNL     1      41.212 -11.086  -1.037  1.00  0.00     0.128 C 
BRANCH  15  16
HETATM   16  C   UNL     1      40.087 -10.076  -1.273  1.00  0.00     0.066 C 
BRANCH  16  17
HETATM   17  C   UNL     1      38.989 -10.195  -0.251  1.00  0.00    -0.016 A 
HETATM   18  C   UNL     1      37.911 -11.058  -0.256  1.00  0.00     0.015 A 
HETATM   19  C   UNL     1      37.076 -10.887   0.886  1.00  0.00     0.008 A 
HETATM   20  C   UNL     1      37.542  -9.898   1.722  1.00  0.00     0.050 A 
HETATM   21  S   UNL     1      38.976  -9.180   1.131  1.00  0.00    -0.107 SA
ENDBRANCH  16  17
ENDBRANCH  15  16
ENDBRANCH  13  15
ENDBRANCH   1  11
BRANCH   7  22
HETATM   22  C   UNL     1      43.246 -18.603   2.816  1.00  0.00     0.010 A 
HETATM   23  C   UNL     1      43.201 -19.820   2.097  1.00  0.00     0.152 A 
HETATM   24  N   UNL     1      43.833 -20.818   2.723  1.00  0.00    -0.187 NA
HETATM   25  N   UNL     1      44.284 -20.241   3.849  1.00  0.00    -0.289 N 
HETATM   26  H   UNL     1      44.808 -20.812   4.504  1.00  0.00     0.188 HD
HETATM   27  C   UNL     1      43.963 -18.919   3.951  1.00  0.00     0.123 A 
ENDBRANCH   7  22
TORSDOF 5
ENDMDL
