MODEL 1
REMARK VINA RESULT:      -8.9      0.000      0.000
REMARK  4 active torsions:
REMARK  status: ('A' for Active; 'I' for Inactive)
REMARK    1  A    between atoms: O_2  and  C_3 
REMARK    2  A    between atoms: C_8  and  C_9 
REMARK    3  A    between atoms: N_11  and  C_12 
REMARK    4  A    between atoms: C_12  and  C_13 
ROOT
HETATM    1  C   UNL     1      40.079 -13.658  -1.802  1.00  0.00     0.069 A 
HETATM    2  C   UNL     1      39.884 -14.567  -0.765  1.00  0.00     0.056 A 
HETATM    3  C   UNL     1      40.209 -14.206   0.545  1.00  0.00     0.063 A 
HETATM    4  C   UNL     1      40.731 -12.948   0.850  1.00  0.00     0.074 A 
HETATM    5  N   UNL     1      41.082 -12.568   2.158  1.00  0.00    -0.234 NA
HETATM    6  C   UNL     1      40.895 -13.424   3.112  1.00  0.00     0.113 A 
HETATM    7  N   UNL     1      40.365 -14.670   2.895  1.00  0.00    -0.310 N 
HETATM    8  C   UNL     1      40.023 -15.148   1.658  1.00  0.00     0.259 A 
HETATM    9  O   UNL     1      39.611 -16.288   1.494  1.00  0.00    -0.267 OA
HETATM   10  C   UNL     1      40.921 -12.044  -0.194  1.00  0.00     0.035 A 
HETATM   11  C   UNL     1      40.597 -12.393  -1.514  1.00  0.00     0.039 A 
HETATM   12  H   UNL     1      40.254 -15.334   3.651  1.00  0.00     0.170 HD
ENDROOT
BRANCH   6  13
HETATM   13  C   UNL     1      41.280 -13.065   4.541  1.00  0.00     0.082 C 
HETATM   14  C   UNL     1      42.688 -13.530   4.866  1.00  0.00     0.139 C 
HETATM   15  N   UNL     1      42.476 -14.863   5.377  1.00  0.00    -0.347 N 
HETATM   16  C   UNL     1      41.210 -15.013   5.922  1.00  0.00     0.220 C 
HETATM   17  O   UNL     1      40.795 -15.972   6.549  1.00  0.00    -0.273 OA
HETATM   18  C   UNL     1      40.405 -13.782   5.572  1.00  0.00     0.117 C 
BRANCH  15  19
HETATM   19  C   UNL     1      43.562 -15.802   5.593  1.00  0.00     0.164 C 
BRANCH  19  20
HETATM   20  C   UNL     1      43.598 -16.913   4.577  1.00  0.00    -0.040 A 
HETATM   21  C   UNL     1      44.034 -18.193   4.951  1.00  0.00     0.009 A 
HETATM   22  C   UNL     1      44.044 -19.237   4.024  1.00  0.00     0.001 A 
HETATM   23  C   UNL     1      43.631 -19.007   2.713  1.00  0.00     0.000 A 
HETATM   24  C   UNL     1      43.214 -17.736   2.326  1.00  0.00     0.001 A 
HETATM   25  C   UNL     1      43.197 -16.692   3.252  1.00  0.00     0.009 A 
ENDBRANCH  19  20
ENDBRANCH  15  19
ENDBRANCH   6  13
BRANCH   1  26
HETATM   26  O   UNL     1      39.730 -14.123  -3.039  1.00  0.00    -0.356 OA
HETATM   27  C   UNL     1      38.515 -14.853  -3.139  1.00  0.00     0.210 C 
ENDBRANCH   1  26
TORSDOF 4
ENDMDL
MODEL 2
REMARK VINA RESULT:      -8.6      2.428      6.359
REMARK  4 active torsions:
REMARK  status: ('A' for Active; 'I' for Inactive)
REMARK    1  A    between atoms: O_2  and  C_3 
REMARK    2  A    between atoms: C_8  and  C_9 
REMARK    3  A    between atoms: N_11  and  C_12 
REMARK    4  A    between atoms: C_12  and  C_13 
ROOT
HETATM    1  C   UNL     1      43.941 -18.827   4.024  1.00  0.00     0.069 A 
HETATM    2  C   UNL     1      43.965 -18.237   5.286  1.00  0.00     0.056 A 
HETATM    3  C   UNL     1      43.630 -16.889   5.429  1.00  0.00     0.063 A 
HETATM    4  C   UNL     1      43.269 -16.104   4.333  1.00  0.00     0.074 A 
HETATM    5  N   UNL     1      42.946 -14.740   4.449  1.00  0.00    -0.234 NA
HETATM    6  C   UNL     1      42.972 -14.207   5.629  1.00  0.00     0.113 A 
HETATM    7  N   UNL     1      43.293 -14.917   6.756  1.00  0.00    -0.310 N 
HETATM    8  C   UNL     1      43.657 -16.238   6.746  1.00  0.00     0.259 A 
HETATM    9  O   UNL     1      43.997 -16.825   7.764  1.00  0.00    -0.267 OA
HETATM   10  C   UNL     1      43.246 -16.703   3.074  1.00  0.00     0.035 A 
HETATM   11  C   UNL     1      43.579 -18.057   2.916  1.00  0.00     0.039 A 
HETATM   12  H   UNL     1      43.337 -14.473   7.665  1.00  0.00     0.170 HD
ENDROOT
BRANCH   6  13
HETATM   13  C   UNL     1      42.650 -12.728   5.801  1.00  0.00     0.082 C 
HETATM   14  C   UNL     1      41.222 -12.423   5.385  1.00  0.00     0.139 C 
HETATM   15  N   UNL     1      41.354 -12.116   3.981  1.00  0.00    -0.347 N 
HETATM   16  C   UNL     1      42.621 -11.643   3.673  1.00  0.00     0.220 C 
HETATM   17  O   UNL     1      42.985 -11.175   2.608  1.00  0.00    -0.273 OA
HETATM   18  C   UNL     1      43.499 -11.842   4.887  1.00  0.00     0.117 C 
BRANCH  15  19
HETATM   19  C   UNL     1      40.213 -11.998   3.093  1.00  0.00     0.164 C 
BRANCH  19  20
HETATM   20  C   UNL     1      40.097 -13.139   2.118  1.00  0.00    -0.040 A 
HETATM   21  C   UNL     1      40.086 -12.888   0.738  1.00  0.00     0.009 A 
HETATM   22  C   UNL     1      40.008 -13.941  -0.174  1.00  0.00     0.001 A 
HETATM   23  C   UNL     1      39.927 -15.254   0.285  1.00  0.00     0.000 A 
HETATM   24  C   UNL     1      39.919 -15.516   1.653  1.00  0.00     0.001 A 
HETATM   25  C   UNL     1      40.003 -14.464   2.568  1.00  0.00     0.009 A 
ENDBRANCH  19  20
ENDBRANCH  15  19
ENDBRANCH   6  13
BRANCH   1  26
HETATM   26  O   UNL     1      44.291 -20.148   4.006  1.00  0.00    -0.356 OA
HETATM   27  C   UNL     1      44.178 -20.865   5.228  1.00  0.00     0.210 C 
ENDBRANCH   1  26
TORSDOF 4
ENDMDL
MODEL 3
REMARK VINA RESULT:      -8.6      1.452      2.232
REMARK  4 active torsions:
REMARK  status: ('A' for Active; 'I' for Inactive)
REMARK    1  A    between atoms: O_2  and  C_3 
REMARK    2  A    between atoms: C_8  and  C_9 
REMARK    3  A    between atoms: N_11  and  C_12 
REMARK    4  A    between atoms: C_12  and  C_13 
ROOT
HETATM    1  C   UNL     1      40.315 -13.615  -0.970  1.00  0.00     0.069 A 
HETATM    2  C   UNL     1      40.909 -12.539  -0.312  1.00  0.00     0.056 A 
HETATM    3  C   UNL     1      41.079 -12.580   1.074  1.00  0.00     0.063 A 
HETATM    4  C   UNL     1      40.665 -13.679   1.830  1.00  0.00     0.074 A 
HETATM    5  N   UNL     1      40.809 -13.736   3.228  1.00  0.00    -0.234 NA
HETATM    6  C   UNL     1      41.363 -12.729   3.824  1.00  0.00     0.113 A 
HETATM    7  N   UNL     1      41.816 -11.626   3.149  1.00  0.00    -0.310 N 
HETATM    8  C   UNL     1      41.692 -11.457   1.795  1.00  0.00     0.259 A 
HETATM    9  O   UNL     1      42.052 -10.431   1.233  1.00  0.00    -0.267 OA
HETATM   10  C   UNL     1      40.074 -14.751   1.163  1.00  0.00     0.035 A 
HETATM   11  C   UNL     1      39.899 -14.723  -0.229  1.00  0.00     0.039 A 
HETATM   12  H   UNL     1      42.219 -10.836   3.639  1.00  0.00     0.170 HD
ENDROOT
BRANCH   6  13
HETATM   13  C   UNL     1      41.520 -12.737   5.339  1.00  0.00     0.082 C 
HETATM   14  C   UNL     1      42.847 -13.349   5.752  1.00  0.00     0.139 C 
HETATM   15  N   UNL     1      42.526 -14.749   5.891  1.00  0.00    -0.347 N 
HETATM   16  C   UNL     1      41.186 -14.945   6.186  1.00  0.00     0.220 C 
HETATM   17  O   UNL     1      40.654 -15.998   6.494  1.00  0.00    -0.273 OA
HETATM   18  C   UNL     1      40.475 -13.620   6.024  1.00  0.00     0.117 C 
BRANCH  15  19
HETATM   19  C   UNL     1      43.542 -15.775   6.037  1.00  0.00     0.164 C 
BRANCH  19  20
HETATM   20  C   UNL     1      43.592 -16.732   4.875  1.00  0.00    -0.040 A 
HETATM   21  C   UNL     1      43.130 -16.331   3.613  1.00  0.00     0.009 A 
HETATM   22  C   UNL     1      43.199 -17.200   2.524  1.00  0.00     0.001 A 
HETATM   23  C   UNL     1      43.718 -18.483   2.688  1.00  0.00     0.000 A 
HETATM   24  C   UNL     1      44.163 -18.899   3.941  1.00  0.00     0.001 A 
HETATM   25  C   UNL     1      44.101 -18.029   5.031  1.00  0.00     0.009 A 
ENDBRANCH  19  20
ENDBRANCH  15  19
ENDBRANCH   6  13
BRANCH   1  26
HETATM   26  O   UNL     1      40.199 -13.460  -2.322  1.00  0.00    -0.356 OA
HETATM   27  C   UNL     1      39.107 -14.111  -2.959  1.00  0.00     0.210 C 
ENDBRANCH   1  26
TORSDOF 4
ENDMDL
MODEL 4
REMARK VINA RESULT:      -8.5      2.972      6.312
REMARK  4 active torsions:
REMARK  status: ('A' for Active; 'I' for Inactive)
REMARK    1  A    between atoms: O_2  and  C_3 
REMARK    2  A    between atoms: C_8  and  C_9 
REMARK    3  A    between atoms: N_11  and  C_12 
REMARK    4  A    between atoms: C_12  and  C_13 
ROOT
HETATM    1  C   UNL     1      44.038 -10.501   7.353  1.00  0.00     0.069 A 
HETATM    2  C   UNL     1      42.714 -10.535   6.923  1.00  0.00     0.056 A 
HETATM    3  C   UNL     1      42.202 -11.696   6.338  1.00  0.00     0.063 A 
HETATM    4  C   UNL     1      42.988 -12.837   6.168  1.00  0.00     0.074 A 
HETATM    5  N   UNL     1      42.502 -14.011   5.565  1.00  0.00    -0.234 NA
HETATM    6  C   UNL     1      41.268 -14.027   5.171  1.00  0.00     0.113 A 
HETATM    7  N   UNL     1      40.428 -12.955   5.325  1.00  0.00    -0.310 N 
HETATM    8  C   UNL     1      40.812 -11.756   5.866  1.00  0.00     0.259 A 
HETATM    9  O   UNL     1      40.052 -10.800   5.931  1.00  0.00    -0.267 OA
HETATM   10  C   UNL     1      44.312 -12.795   6.604  1.00  0.00     0.035 A 
HETATM   11  C   UNL     1      44.838 -11.636   7.194  1.00  0.00     0.039 A 
HETATM   12  H   UNL     1      39.475 -12.978   4.982  1.00  0.00     0.170 HD
ENDROOT
BRANCH   6  13
HETATM   13  C   UNL     1      40.704 -15.269   4.494  1.00  0.00     0.082 C 
HETATM   14  C   UNL     1      41.754 -16.359   4.377  1.00  0.00     0.139 C 
HETATM   15  N   UNL     1      42.367 -16.079   3.101  1.00  0.00    -0.347 N 
HETATM   16  C   UNL     1      41.502 -15.412   2.247  1.00  0.00     0.220 C 
HETATM   17  O   UNL     1      41.685 -15.167   1.067  1.00  0.00    -0.273 OA
HETATM   18  C   UNL     1      40.286 -14.999   3.047  1.00  0.00     0.117 C 
BRANCH  15  19
HETATM   19  C   UNL     1      43.596 -16.714   2.665  1.00  0.00     0.164 C 
BRANCH  19  20
HETATM   20  C   UNL     1      43.670 -18.176   3.021  1.00  0.00    -0.040 A 
HETATM   21  C   UNL     1      43.218 -19.145   2.113  1.00  0.00     0.009 A 
HETATM   22  C   UNL     1      43.307 -20.502   2.423  1.00  0.00     0.001 A 
HETATM   23  C   UNL     1      43.837 -20.904   3.648  1.00  0.00     0.000 A 
HETATM   24  C   UNL     1      44.272 -19.950   4.565  1.00  0.00     0.001 A 
HETATM   25  C   UNL     1      44.189 -18.591   4.256  1.00  0.00     0.009 A 
ENDBRANCH  19  20
ENDBRANCH  15  19
ENDBRANCH   6  13
BRANCH   1  26
HETATM   26  O   UNL     1      44.427  -9.313   7.905  1.00  0.00    -0.356 OA
HETATM   27  C   UNL     1      45.782  -9.202   8.320  1.00  0.00     0.210 C 
ENDBRANCH   1  26
TORSDOF 4
ENDMDL
MODEL 5
REMARK VINA RESULT:      -8.2      2.121      6.965
REMARK  4 active torsions:
REMARK  status: ('A' for Active; 'I' for Inactive)
REMARK    1  A    between atoms: O_2  and  C_3 
REMARK    2  A    between atoms: C_8  and  C_9 
REMARK    3  A    between atoms: N_11  and  C_12 
REMARK    4  A    between atoms: C_12  and  C_13 
ROOT
HETATM    1  C   UNL     1      43.917 -18.474   3.871  1.00  0.00     0.069 A 
HETATM    2  C   UNL     1      43.717 -17.389   4.721  1.00  0.00     0.056 A 
HETATM    3  C   UNL     1      42.837 -16.369   4.350  1.00  0.00     0.063 A 
HETATM    4  C   UNL     1      42.146 -16.404   3.137  1.00  0.00     0.074 A 
HETATM    5  N   UNL     1      41.270 -15.380   2.733  1.00  0.00    -0.234 NA
HETATM    6  C   UNL     1      41.094 -14.378   3.534  1.00  0.00     0.113 A 
HETATM    7  N   UNL     1      41.718 -14.284   4.751  1.00  0.00    -0.310 N 
HETATM    8  C   UNL     1      42.614 -15.207   5.221  1.00  0.00     0.259 A 
HETATM    9  O   UNL     1      43.200 -15.060   6.286  1.00  0.00    -0.267 OA
HETATM   10  C   UNL     1      42.352 -17.495   2.294  1.00  0.00     0.035 A 
HETATM   11  C   UNL     1      43.231 -18.527   2.656  1.00  0.00     0.039 A 
HETATM   12  H   UNL     1      41.588 -13.477   5.349  1.00  0.00     0.170 HD
ENDROOT
BRANCH   6  13
HETATM   13  C   UNL     1      40.170 -13.236   3.130  1.00  0.00     0.082 C 
HETATM   14  C   UNL     1      39.808 -13.316   1.657  1.00  0.00     0.139 C 
HETATM   15  N   UNL     1      40.853 -12.545   1.027  1.00  0.00    -0.347 N 
HETATM   16  C   UNL     1      41.388 -11.599   1.888  1.00  0.00     0.220 C 
HETATM   17  O   UNL     1      42.180 -10.718   1.601  1.00  0.00    -0.273 OA
HETATM   18  C   UNL     1      40.845 -11.870   3.273  1.00  0.00     0.117 C 
BRANCH  15  19
HETATM   19  C   UNL     1      41.066 -12.540  -0.408  1.00  0.00     0.164 C 
BRANCH  19  20
HETATM   20  C   UNL     1      39.840 -12.925  -1.193  1.00  0.00    -0.040 A 
HETATM   21  C   UNL     1      38.748 -12.048  -1.267  1.00  0.00     0.009 A 
HETATM   22  C   UNL     1      37.618 -12.384  -2.015  1.00  0.00     0.001 A 
HETATM   23  C   UNL     1      37.564 -13.604  -2.685  1.00  0.00     0.000 A 
HETATM   24  C   UNL     1      38.635 -14.491  -2.604  1.00  0.00     0.001 A 
HETATM   25  C   UNL     1      39.769 -14.156  -1.861  1.00  0.00     0.009 A 
ENDBRANCH  19  20
ENDBRANCH  15  19
ENDBRANCH   6  13
BRANCH   1  26
HETATM   26  O   UNL     1      44.801 -19.406   4.338  1.00  0.00    -0.356 OA
HETATM   27  C   UNL     1      44.279 -20.442   5.160  1.00  0.00     0.210 C 
ENDBRANCH   1  26
TORSDOF 4
ENDMDL
MODEL 6
REMARK VINA RESULT:      -8.2      2.259      6.423
REMARK  4 active torsions:
REMARK  status: ('A' for Active; 'I' for Inactive)
REMARK    1  A    between atoms: O_2  and  C_3 
REMARK    2  A    between atoms: C_8  and  C_9 
REMARK    3  A    between atoms: N_11  and  C_12 
REMARK    4  A    between atoms: C_12  and  C_13 
ROOT
HETATM    1  C   UNL     1      43.142 -17.447   3.112  1.00  0.00     0.069 A 
HETATM    2  C   UNL     1      42.017 -17.173   2.337  1.00  0.00     0.056 A 
HETATM    3  C   UNL     1      41.334 -15.966   2.506  1.00  0.00     0.063 A 
HETATM    4  C   UNL     1      41.748 -15.015   3.441  1.00  0.00     0.074 A 
HETATM    5  N   UNL     1      41.067 -13.801   3.643  1.00  0.00    -0.234 NA
HETATM    6  C   UNL     1      40.024 -13.561   2.915  1.00  0.00     0.113 A 
HETATM    7  N   UNL     1      39.569 -14.433   1.960  1.00  0.00    -0.310 N 
HETATM    8  C   UNL     1      40.139 -15.654   1.710  1.00  0.00     0.259 A 
HETATM    9  O   UNL     1      39.670 -16.435   0.893  1.00  0.00    -0.267 OA
HETATM   10  C   UNL     1      42.877 -15.298   4.211  1.00  0.00     0.035 A 
HETATM   11  C   UNL     1      43.572 -16.505   4.050  1.00  0.00     0.039 A 
HETATM   12  H   UNL     1      38.734 -14.239   1.422  1.00  0.00     0.170 HD
ENDROOT
BRANCH   6  13
HETATM   13  C   UNL     1      39.242 -12.269   3.112  1.00  0.00     0.082 C 
HETATM   14  C   UNL     1      38.308 -12.005   1.944  1.00  0.00     0.139 C 
HETATM   15  N   UNL     1      39.132 -11.237   1.041  1.00  0.00    -0.347 N 
HETATM   16  C   UNL     1      40.132 -10.550   1.712  1.00  0.00     0.220 C 
HETATM   17  O   UNL     1      40.888  -9.718   1.241  1.00  0.00    -0.273 OA
HETATM   18  C   UNL     1      40.154 -11.041   3.143  1.00  0.00     0.117 C 
BRANCH  15  19
HETATM   19  C   UNL     1      38.745 -10.960  -0.329  1.00  0.00     0.164 C 
BRANCH  19  20
HETATM   20  C   UNL     1      38.797 -12.174  -1.219  1.00  0.00    -0.040 A 
HETATM   21  C   UNL     1      39.973 -12.934  -1.304  1.00  0.00     0.009 A 
HETATM   22  C   UNL     1      40.021 -14.077  -2.104  1.00  0.00     0.001 A 
HETATM   23  C   UNL     1      38.901 -14.462  -2.836  1.00  0.00     0.000 A 
HETATM   24  C   UNL     1      37.733 -13.705  -2.775  1.00  0.00     0.001 A 
HETATM   25  C   UNL     1      37.680 -12.564  -1.971  1.00  0.00     0.009 A 
ENDBRANCH  19  20
ENDBRANCH  15  19
ENDBRANCH   6  13
BRANCH   1  26
HETATM   26  O   UNL     1      43.724 -18.658   2.861  1.00  0.00    -0.356 OA
HETATM   27  C   UNL     1      42.958 -19.607   2.131  1.00  0.00     0.210 C 
ENDBRANCH   1  26
TORSDOF 4
ENDMDL
MODEL 7
REMARK VINA RESULT:      -7.9     14.852     16.228
REMARK  4 active torsions:
REMARK  status: ('A' for Active; 'I' for Inactive)
REMARK    1  A    between atoms: O_2  and  C_3 
REMARK    2  A    between atoms: C_8  and  C_9 
REMARK    3  A    between atoms: N_11  and  C_12 
REMARK    4  A    between atoms: C_12  and  C_13 
ROOT
HETATM    1  C   UNL     1      44.284 -29.504  -4.018  1.00  0.00     0.069 A 
HETATM    2  C   UNL     1      43.995 -30.290  -2.904  1.00  0.00     0.056 A 
HETATM    3  C   UNL     1      44.492 -29.928  -1.650  1.00  0.00     0.063 A 
HETATM    4  C   UNL     1      45.281 -28.789  -1.476  1.00  0.00     0.074 A 
HETATM    5  N   UNL     1      45.808 -28.413  -0.227  1.00  0.00    -0.234 NA
HETATM    6  C   UNL     1      45.530 -29.154   0.798  1.00  0.00     0.113 A 
HETATM    7  N   UNL     1      44.743 -30.273   0.712  1.00  0.00    -0.310 N 
HETATM    8  C   UNL     1      44.212 -30.743  -0.460  1.00  0.00     0.259 A 
HETATM    9  O   UNL     1      43.566 -31.781  -0.511  1.00  0.00    -0.267 OA
HETATM   10  C   UNL     1      45.563 -28.006  -2.596  1.00  0.00     0.035 A 
HETATM   11  C   UNL     1      45.069 -28.358  -3.861  1.00  0.00     0.039 A 
HETATM   12  H   UNL     1      44.563 -30.855   1.521  1.00  0.00     0.170 HD
ENDROOT
BRANCH   6  13
HETATM   13  C   UNL     1      46.095 -28.799   2.167  1.00  0.00     0.082 C 
HETATM   14  C   UNL     1      47.564 -28.425   2.076  1.00  0.00     0.139 C 
HETATM   15  N   UNL     1      48.230 -29.693   2.255  1.00  0.00    -0.347 N 
HETATM   16  C   UNL     1      47.455 -30.586   2.980  1.00  0.00     0.220 C 
HETATM   17  O   UNL     1      47.802 -31.674   3.406  1.00  0.00    -0.273 OA
HETATM   18  C   UNL     1      46.074 -29.989   3.127  1.00  0.00     0.117 C 
BRANCH  15  19
HETATM   19  C   UNL     1      49.647 -29.878   2.002  1.00  0.00     0.164 C 
BRANCH  19  20
HETATM   20  C   UNL     1      49.961 -30.161   0.557  1.00  0.00    -0.040 A 
HETATM   21  C   UNL     1      49.145 -29.637  -0.456  1.00  0.00     0.009 A 
HETATM   22  C   UNL     1      49.445 -29.870  -1.799  1.00  0.00     0.001 A 
HETATM   23  C   UNL     1      50.554 -30.641  -2.141  1.00  0.00     0.000 A 
HETATM   24  C   UNL     1      51.361 -31.182  -1.143  1.00  0.00     0.001 A 
HETATM   25  C   UNL     1      51.067 -30.946   0.201  1.00  0.00     0.009 A 
ENDBRANCH  19  20
ENDBRANCH  15  19
ENDBRANCH   6  13
BRANCH   1  26
HETATM   26  O   UNL     1      43.748 -29.959  -5.190  1.00  0.00    -0.356 OA
HETATM   27  C   UNL     1      44.346 -31.109  -5.773  1.00  0.00     0.210 C 
ENDBRANCH   1  26
TORSDOF 4
ENDMDL
MODEL 8
REMARK VINA RESULT:      -7.8      2.209      6.148
REMARK  4 active torsions:
REMARK  status: ('A' for Active; 'I' for Inactive)
REMARK    1  A    between atoms: O_2  and  C_3 
REMARK    2  A    between atoms: C_8  and  C_9 
REMARK    3  A    between atoms: N_11  and  C_12 
REMARK    4  A    between atoms: C_12  and  C_13 
ROOT
HETATM    1  C   UNL     1      43.684 -18.306   3.255  1.00  0.00     0.069 A 
HETATM    2  C   UNL     1      42.628 -17.643   2.633  1.00  0.00     0.056 A 
HETATM    3  C   UNL     1      42.068 -16.512   3.232  1.00  0.00     0.063 A 
HETATM    4  C   UNL     1      42.539 -16.020   4.451  1.00  0.00     0.074 A 
HETATM    5  N   UNL     1      41.980 -14.895   5.083  1.00  0.00    -0.234 NA
HETATM    6  C   UNL     1      41.000 -14.289   4.492  1.00  0.00     0.113 A 
HETATM    7  N   UNL     1      40.498 -14.697   3.283  1.00  0.00    -0.310 N 
HETATM    8  C   UNL     1      40.948 -15.799   2.604  1.00  0.00     0.259 A 
HETATM    9  O   UNL     1      40.435 -16.170   1.556  1.00  0.00    -0.267 OA
HETATM   10  C   UNL     1      43.597 -16.689   5.065  1.00  0.00     0.035 A 
HETATM   11  C   UNL     1      44.170 -17.825   4.473  1.00  0.00     0.039 A 
HETATM   12  H   UNL     1      39.712 -14.227   2.852  1.00  0.00     0.170 HD
ENDROOT
BRANCH   6  13
HETATM   13  C   UNL     1      40.349 -13.079   5.148  1.00  0.00     0.082 C 
HETATM   14  C   UNL     1      39.475 -12.321   4.164  1.00  0.00     0.139 C 
HETATM   15  N   UNL     1      40.394 -11.372   3.583  1.00  0.00    -0.347 N 
HETATM   16  C   UNL     1      41.443 -11.077   4.440  1.00  0.00     0.220 C 
HETATM   17  O   UNL     1      42.290 -10.214   4.286  1.00  0.00    -0.273 OA
HETATM   18  C   UNL     1      41.380 -12.044   5.601  1.00  0.00     0.117 C 
BRANCH  15  19
HETATM   19  C   UNL     1      40.070 -10.586   2.407  1.00  0.00     0.164 C 
BRANCH  19  20
HETATM   20  C   UNL     1      39.803 -11.426   1.186  1.00  0.00    -0.040 A 
HETATM   21  C   UNL     1      38.554 -11.367   0.551  1.00  0.00     0.009 A 
HETATM   22  C   UNL     1      38.306 -12.120  -0.597  1.00  0.00     0.001 A 
HETATM   23  C   UNL     1      39.300 -12.949  -1.114  1.00  0.00     0.000 A 
HETATM   24  C   UNL     1      40.539 -13.029  -0.482  1.00  0.00     0.001 A 
HETATM   25  C   UNL     1      40.791 -12.273   0.664  1.00  0.00     0.009 A 
ENDBRANCH  19  20
ENDBRANCH  15  19
ENDBRANCH   6  13
BRANCH   1  26
HETATM   26  O   UNL     1      44.146 -19.399   2.578  1.00  0.00    -0.356 OA
HETATM   27  C   UNL     1      43.177 -20.255   1.988  1.00  0.00     0.210 C 
ENDBRANCH   1  26
TORSDOF 4
ENDMDL
MODEL 9
REMARK VINA RESULT:      -7.7     14.939     17.284
REMARK  4 active torsions:
REMARK  status: ('A' for Active; 'I' for Inactive)
REMARK    1  A    between atoms: O_2  and  C_3 
REMARK    2  A    between atoms: C_8  and  C_9 
REMARK    3  A    between atoms: N_11  and  C_12 
REMARK    4  A    between atoms: C_12  and  C_13 
ROOT
HETATM    1  C   UNL     1      49.370 -30.817   4.297  1.00  0.00     0.069 A 
HETATM    2  C   UNL     1      50.007 -30.710   3.062  1.00  0.00     0.056 A 
HETATM    3  C   UNL     1      49.361 -30.071   2.001  1.00  0.00     0.063 A 
HETATM    4  C   UNL     1      48.081 -29.530   2.141  1.00  0.00     0.074 A 
HETATM    5  N   UNL     1      47.404 -28.898   1.082  1.00  0.00    -0.234 NA
HETATM    6  C   UNL     1      48.009 -28.806  -0.059  1.00  0.00     0.113 A 
HETATM    7  N   UNL     1      49.274 -29.291  -0.268  1.00  0.00    -0.310 N 
HETATM    8  C   UNL     1      50.004 -29.952   0.684  1.00  0.00     0.259 A 
HETATM    9  O   UNL     1      51.106 -30.427   0.445  1.00  0.00    -0.267 OA
HETATM   10  C   UNL     1      47.453 -29.640   3.381  1.00  0.00     0.035 A 
HETATM   11  C   UNL     1      48.091 -30.278   4.455  1.00  0.00     0.039 A 
HETATM   12  H   UNL     1      49.717 -29.235  -1.177  1.00  0.00     0.170 HD
ENDROOT
BRANCH   6  13
HETATM   13  C   UNL     1      47.306 -28.149  -1.239  1.00  0.00     0.082 C 
HETATM   14  C   UNL     1      45.844 -27.881  -0.931  1.00  0.00     0.139 C 
HETATM   15  N   UNL     1      45.196 -29.095  -1.366  1.00  0.00    -0.347 N 
HETATM   16  C   UNL     1      45.919 -29.741  -2.357  1.00  0.00     0.220 C 
HETATM   17  O   UNL     1      45.561 -30.704  -3.012  1.00  0.00    -0.273 OA
HETATM   18  C   UNL     1      47.265 -29.061  -2.468  1.00  0.00     0.117 C 
BRANCH  15  19
HETATM   19  C   UNL     1      43.815 -29.405  -1.046  1.00  0.00     0.164 C 
BRANCH  19  20
HETATM   20  C   UNL     1      43.620 -29.850   0.379  1.00  0.00    -0.040 A 
HETATM   21  C   UNL     1      42.594 -29.292   1.156  1.00  0.00     0.009 A 
HETATM   22  C   UNL     1      42.388 -29.719   2.469  1.00  0.00     0.001 A 
HETATM   23  C   UNL     1      43.212 -30.698   3.020  1.00  0.00     0.000 A 
HETATM   24  C   UNL     1      44.244 -31.247   2.264  1.00  0.00     0.001 A 
HETATM   25  C   UNL     1      44.450 -30.826   0.949  1.00  0.00     0.009 A 
ENDBRANCH  19  20
ENDBRANCH  15  19
ENDBRANCH   6  13
BRANCH   1  26
HETATM   26  O   UNL     1      50.096 -31.465   5.256  1.00  0.00    -0.356 OA
HETATM   27  C   UNL     1      51.485 -31.169   5.330  1.00  0.00     0.210 C 
ENDBRANCH   1  26
TORSDOF 4
ENDMDL
MODEL 10
REMARK VINA RESULT:      -7.7     14.493     16.581
REMARK  4 active torsions:
REMARK  status: ('A' for Active; 'I' for Inactive)
REMARK    1  A    between atoms: O_2  and  C_3 
REMARK    2  A    between atoms: C_8  and  C_9 
REMARK    3  A    between atoms: N_11  and  C_12 
REMARK    4  A    between atoms: C_12  and  C_13 
ROOT
HETATM    1  C   UNL     1      40.949 -32.288   3.159  1.00  0.00     0.069 A 
HETATM    2  C   UNL     1      41.208 -31.136   2.420  1.00  0.00     0.056 A 
HETATM    3  C   UNL     1      42.496 -30.596   2.404  1.00  0.00     0.063 A 
HETATM    4  C   UNL     1      43.544 -31.181   3.117  1.00  0.00     0.074 A 
HETATM    5  N   UNL     1      44.845 -30.646   3.131  1.00  0.00    -0.234 NA
HETATM    6  C   UNL     1      45.070 -29.576   2.438  1.00  0.00     0.113 A 
HETATM    7  N   UNL     1      44.100 -28.957   1.694  1.00  0.00    -0.310 N 
HETATM    8  C   UNL     1      42.797 -29.376   1.641  1.00  0.00     0.259 A 
HETATM    9  O   UNL     1      41.942 -28.763   1.016  1.00  0.00    -0.267 OA
HETATM   10  C   UNL     1      43.276 -32.336   3.852  1.00  0.00     0.035 A 
HETATM   11  C   UNL     1      41.987 -32.889   3.875  1.00  0.00     0.039 A 
HETATM   12  H   UNL     1      44.290 -28.103   1.184  1.00  0.00     0.170 HD
ENDROOT
BRANCH   6  13
HETATM   13  C   UNL     1      46.458 -28.948   2.440  1.00  0.00     0.082 C 
HETATM   14  C   UNL     1      46.726 -28.198   1.148  1.00  0.00     0.139 C 
HETATM   15  N   UNL     1      47.308 -29.212   0.302  1.00  0.00    -0.347 N 
HETATM   16  C   UNL     1      47.928 -30.208   1.041  1.00  0.00     0.220 C 
HETATM   17  O   UNL     1      48.620 -31.113   0.608  1.00  0.00    -0.273 OA
HETATM   18  C   UNL     1      47.568 -30.001   2.494  1.00  0.00     0.117 C 
BRANCH  15  19
HETATM   19  C   UNL     1      47.507 -29.025  -1.124  1.00  0.00     0.164 C 
BRANCH  19  20
HETATM   20  C   UNL     1      46.240 -29.173  -1.925  1.00  0.00    -0.040 A 
HETATM   21  C   UNL     1      45.366 -30.240  -1.669  1.00  0.00     0.009 A 
HETATM   22  C   UNL     1      44.177 -30.369  -2.387  1.00  0.00     0.001 A 
HETATM   23  C   UNL     1      43.856 -29.442  -3.376  1.00  0.00     0.000 A 
HETATM   24  C   UNL     1      44.725 -28.388  -3.651  1.00  0.00     0.001 A 
HETATM   25  C   UNL     1      45.913 -28.253  -2.931  1.00  0.00     0.009 A 
ENDBRANCH  19  20
ENDBRANCH  15  19
ENDBRANCH   6  13
BRANCH   1  26
HETATM   26  O   UNL     1      39.654 -32.720   3.103  1.00  0.00    -0.356 OA
HETATM   27  C   UNL     1      39.015 -33.021   4.337  1.00  0.00     0.210 C 
ENDBRANCH   1  26
TORSDOF 4
ENDMDL
