MODEL 1
REMARK VINA RESULT:      -8.3      0.000      0.000
REMARK  7 active torsions:
REMARK  status: ('A' for Active; 'I' for Inactive)
REMARK    1  A    between atoms: C_8  and  C_9 
REMARK    2  A    between atoms: C_9  and  N_10 
REMARK    3  A    between atoms: C_9  and  C_14 
REMARK       I    between atoms: C_14  and  N_15 
REMARK    4  A    between atoms: N_15  and  C_16 
REMARK    5  A    between atoms: C_16  and  C_17 
REMARK    6  A    between atoms: C_17  and  C_18 
REMARK    7  A    between atoms: C_17  and  C_24 
ROOT
HETATM    1  C   UNL     1      40.222 -13.635   0.808  1.00  0.00     0.253 C 
HETATM    2  N   UNL     1      41.106 -14.673   0.642  1.00  0.00    -0.358 N 
HETATM    3  O   UNL     1      39.450 -13.518   1.762  1.00  0.00    -0.271 OA
HETATM    4  H   UNL     1      41.723 -14.714  -0.160  1.00  0.00     0.162 HD
ENDROOT
BRANCH   2   5
HETATM    5  C   UNL     1      41.191 -15.791   1.586  1.00  0.00     0.141 C 
BRANCH   5   6
HETATM    6  C   UNL     1      42.455 -15.755   2.518  1.00  0.00     0.026 C 
HETATM    7  C   UNL     1      43.581 -15.067   1.695  1.00  0.00     0.027 C 
BRANCH   6   8
HETATM    8  C   UNL     1      42.055 -14.926   3.775  1.00  0.00    -0.044 A 
HETATM    9  C   UNL     1      40.923 -15.268   4.546  1.00  0.00     0.008 A 
HETATM   10  C   UNL     1      40.566 -14.535   5.682  1.00  0.00     0.001 A 
HETATM   11  C   UNL     1      41.317 -13.428   6.060  1.00  0.00     0.000 A 
HETATM   12  C   UNL     1      42.419 -13.049   5.300  1.00  0.00     0.001 A 
HETATM   13  C   UNL     1      42.781 -13.787   4.168  1.00  0.00     0.008 A 
ENDBRANCH   6   8
BRANCH   6  14
HETATM   14  C   UNL     1      43.033 -17.154   2.876  1.00  0.00    -0.044 A 
HETATM   15  C   UNL     1      43.750 -17.412   4.057  1.00  0.00     0.008 A 
HETATM   16  C   UNL     1      44.238 -18.692   4.343  1.00  0.00     0.001 A 
HETATM   17  C   UNL     1      44.001 -19.747   3.467  1.00  0.00     0.000 A 
HETATM   18  C   UNL     1      43.261 -19.528   2.311  1.00  0.00     0.001 A 
HETATM   19  C   UNL     1      42.774 -18.252   2.025  1.00  0.00     0.008 A 
ENDBRANCH   6  14
ENDBRANCH   5   6
ENDBRANCH   2   5
BRANCH   1  20
HETATM   20  C   UNL     1      40.146 -12.604  -0.338  1.00  0.00     0.311 C 
BRANCH  20  21
HETATM   21  C   UNL     1      38.899 -12.771  -1.142  1.00  0.00     0.031 A 
HETATM   22  C   UNL     1      38.485 -13.833  -1.941  1.00  0.00     0.035 A 
HETATM   23  C   UNL     1      39.076 -15.155  -2.273  1.00  0.00     0.070 C 
HETATM   24  N   UNL     1      37.261 -13.474  -2.444  1.00  0.00    -0.282 N 
HETATM   25  H   UNL     1      36.645 -14.003  -3.058  1.00  0.00     0.189 HD
HETATM   26  N   UNL     1      36.864 -12.264  -2.046  1.00  0.00    -0.179 NA
HETATM   27  C   UNL     1      37.833 -11.827  -1.244  1.00  0.00     0.061 A 
HETATM   28  C   UNL     1      37.685 -10.498  -0.594  1.00  0.00     0.073 C 
ENDBRANCH  20  21
BRANCH  20  29
HETATM   29  N   UNL     1      41.372 -12.765  -1.183  1.00  0.00    -0.062 N 
HETATM   30  H   UNL     1      41.927 -13.569  -0.873  1.00  0.00     0.275 HD
HETATM   31  H   UNL     1      41.050 -12.998  -2.135  1.00  0.00     0.275 HD
HETATM   32  H   UNL     1      41.942 -11.916  -1.207  1.00  0.00     0.275 HD
ENDBRANCH  20  29
ENDBRANCH   1  20
TORSDOF 7
ENDMDL
MODEL 2
REMARK VINA RESULT:      -8.1      1.474      2.471
REMARK  7 active torsions:
REMARK  status: ('A' for Active; 'I' for Inactive)
REMARK    1  A    between atoms: C_8  and  C_9 
REMARK    2  A    between atoms: C_9  and  N_10 
REMARK    3  A    between atoms: C_9  and  C_14 
REMARK       I    between atoms: C_14  and  N_15 
REMARK    4  A    between atoms: N_15  and  C_16 
REMARK    5  A    between atoms: C_16  and  C_17 
REMARK    6  A    between atoms: C_17  and  C_18 
REMARK    7  A    between atoms: C_17  and  C_24 
ROOT
HETATM    1  C   UNL     1      39.591 -13.483   1.230  1.00  0.00     0.253 C 
HETATM    2  N   UNL     1      40.050 -14.770   1.370  1.00  0.00    -0.358 N 
HETATM    3  O   UNL     1      39.675 -12.611   2.097  1.00  0.00    -0.271 OA
HETATM    4  H   UNL     1      39.962 -15.443   0.620  1.00  0.00     0.162 HD
ENDROOT
BRANCH   2   5
HETATM    5  C   UNL     1      40.661 -15.254   2.611  1.00  0.00     0.141 C 
BRANCH   5   6
HETATM    6  C   UNL     1      42.229 -15.150   2.643  1.00  0.00     0.026 C 
HETATM    7  C   UNL     1      42.687 -15.058   1.159  1.00  0.00     0.027 C 
BRANCH   6   8
HETATM    8  C   UNL     1      42.571 -13.858   3.444  1.00  0.00    -0.044 A 
HETATM    9  C   UNL     1      41.950 -13.580   4.680  1.00  0.00     0.008 A 
HETATM   10  C   UNL     1      42.261 -12.429   5.410  1.00  0.00     0.001 A 
HETATM   11  C   UNL     1      43.182 -11.516   4.910  1.00  0.00     0.000 A 
HETATM   12  C   UNL     1      43.786 -11.749   3.679  1.00  0.00     0.001 A 
HETATM   13  C   UNL     1      43.481 -12.905   2.952  1.00  0.00     0.008 A 
ENDBRANCH   6   8
BRANCH   6  14
HETATM   14  C   UNL     1      42.949 -16.412   3.196  1.00  0.00    -0.044 A 
HETATM   15  C   UNL     1      43.518 -16.474   4.480  1.00  0.00     0.008 A 
HETATM   16  C   UNL     1      44.143 -17.639   4.940  1.00  0.00     0.001 A 
HETATM   17  C   UNL     1      44.192 -18.774   4.136  1.00  0.00     0.000 A 
HETATM   18  C   UNL     1      43.603 -18.753   2.878  1.00  0.00     0.001 A 
HETATM   19  C   UNL     1      42.981 -17.592   2.418  1.00  0.00     0.008 A 
ENDBRANCH   6  14
ENDBRANCH   5   6
ENDBRANCH   2   5
BRANCH   1  20
HETATM   20  C   UNL     1      38.844 -13.156  -0.080  1.00  0.00     0.311 C 
BRANCH  20  21
HETATM   21  C   UNL     1      39.784 -13.054  -1.236  1.00  0.00     0.031 A 
HETATM   22  C   UNL     1      40.833 -12.168  -1.458  1.00  0.00     0.035 A 
HETATM   23  C   UNL     1      41.415 -11.051  -0.670  1.00  0.00     0.070 C 
HETATM   24  N   UNL     1      41.373 -12.517  -2.670  1.00  0.00    -0.282 N 
HETATM   25  H   UNL     1      42.166 -12.103  -3.156  1.00  0.00     0.189 HD
HETATM   26  N   UNL     1      40.747 -13.543  -3.248  1.00  0.00    -0.179 NA
HETATM   27  C   UNL     1      39.792 -13.895  -2.389  1.00  0.00     0.061 A 
HETATM   28  C   UNL     1      38.915 -15.050  -2.720  1.00  0.00     0.073 C 
ENDBRANCH  20  21
BRANCH  20  29
HETATM   29  N   UNL     1      38.086 -11.881   0.129  1.00  0.00    -0.062 N 
HETATM   30  H   UNL     1      37.634 -11.578  -0.740  1.00  0.00     0.275 HD
HETATM   31  H   UNL     1      37.318 -12.094   0.784  1.00  0.00     0.275 HD
HETATM   32  H   UNL     1      38.674 -11.137   0.513  1.00  0.00     0.275 HD
ENDBRANCH  20  29
ENDBRANCH   1  20
TORSDOF 7
ENDMDL
MODEL 3
REMARK VINA RESULT:      -8.1      0.601      1.643
REMARK  7 active torsions:
REMARK  status: ('A' for Active; 'I' for Inactive)
REMARK    1  A    between atoms: C_8  and  C_9 
REMARK    2  A    between atoms: C_9  and  N_10 
REMARK    3  A    between atoms: C_9  and  C_14 
REMARK       I    between atoms: C_14  and  N_15 
REMARK    4  A    between atoms: N_15  and  C_16 
REMARK    5  A    between atoms: C_16  and  C_17 
REMARK    6  A    between atoms: C_17  and  C_18 
REMARK    7  A    between atoms: C_17  and  C_24 
ROOT
HETATM    1  C   UNL     1      40.305 -13.836   1.136  1.00  0.00     0.253 C 
HETATM    2  N   UNL     1      41.169 -14.865   0.851  1.00  0.00    -0.358 N 
HETATM    3  O   UNL     1      39.526 -13.821   2.092  1.00  0.00    -0.271 OA
HETATM    4  H   UNL     1      41.794 -14.820   0.056  1.00  0.00     0.162 HD
ENDROOT
BRANCH   2   5
HETATM    5  C   UNL     1      41.221 -16.093   1.650  1.00  0.00     0.141 C 
BRANCH   5   6
HETATM    6  C   UNL     1      42.437 -16.166   2.643  1.00  0.00     0.026 C 
HETATM    7  C   UNL     1      43.599 -15.389   1.962  1.00  0.00     0.027 C 
BRANCH   6   8
HETATM    8  C   UNL     1      41.971 -15.488   3.966  1.00  0.00    -0.044 A 
HETATM    9  C   UNL     1      40.904 -16.018   4.722  1.00  0.00     0.008 A 
HETATM   10  C   UNL     1      40.489 -15.421   5.916  1.00  0.00     0.001 A 
HETATM   11  C   UNL     1      41.114 -14.267   6.371  1.00  0.00     0.000 A 
HETATM   12  C   UNL     1      42.149 -13.705   5.629  1.00  0.00     0.001 A 
HETATM   13  C   UNL     1      42.570 -14.306   4.439  1.00  0.00     0.008 A 
ENDBRANCH   6   8
BRANCH   6  14
HETATM   14  C   UNL     1      43.003 -17.598   2.864  1.00  0.00    -0.044 A 
HETATM   15  C   UNL     1      43.784 -17.954   3.978  1.00  0.00     0.008 A 
HETATM   16  C   UNL     1      44.258 -19.260   4.141  1.00  0.00     0.001 A 
HETATM   17  C   UNL     1      43.945 -20.244   3.208  1.00  0.00     0.000 A 
HETATM   18  C   UNL     1      43.142 -19.929   2.119  1.00  0.00     0.001 A 
HETATM   19  C   UNL     1      42.669 -18.626   1.955  1.00  0.00     0.008 A 
ENDBRANCH   6  14
ENDBRANCH   5   6
ENDBRANCH   2   5
BRANCH   1  20
HETATM   20  C   UNL     1      40.263 -12.671   0.126  1.00  0.00     0.311 C 
BRANCH  20  21
HETATM   21  C   UNL     1      38.983 -12.660  -0.643  1.00  0.00     0.031 A 
HETATM   22  C   UNL     1      37.851 -11.867  -0.484  1.00  0.00     0.035 A 
HETATM   23  C   UNL     1      37.496 -10.764   0.446  1.00  0.00     0.070 C 
HETATM   24  N   UNL     1      36.971 -12.263  -1.458  1.00  0.00    -0.282 N 
HETATM   25  H   UNL     1      36.042 -11.901  -1.662  1.00  0.00     0.189 HD
HETATM   26  N   UNL     1      37.439 -13.255  -2.218  1.00  0.00    -0.179 NA
HETATM   27  C   UNL     1      38.663 -13.500  -1.753  1.00  0.00     0.061 A 
HETATM   28  C   UNL     1      39.488 -14.547  -2.411  1.00  0.00     0.073 C 
ENDBRANCH  20  21
BRANCH  20  29
HETATM   29  N   UNL     1      41.449 -12.804  -0.779  1.00  0.00    -0.062 N 
HETATM   30  H   UNL     1      42.161 -13.411  -0.361  1.00  0.00     0.275 HD
HETATM   31  H   UNL     1      41.124 -13.295  -1.626  1.00  0.00     0.275 HD
HETATM   32  H   UNL     1      41.847 -11.897  -1.035  1.00  0.00     0.275 HD
ENDBRANCH  20  29
ENDBRANCH   1  20
TORSDOF 7
ENDMDL
MODEL 4
REMARK VINA RESULT:      -8.0      1.678      4.270
REMARK  7 active torsions:
REMARK  status: ('A' for Active; 'I' for Inactive)
REMARK    1  A    between atoms: C_8  and  C_9 
REMARK    2  A    between atoms: C_9  and  N_10 
REMARK    3  A    between atoms: C_9  and  C_14 
REMARK       I    between atoms: C_14  and  N_15 
REMARK    4  A    between atoms: N_15  and  C_16 
REMARK    5  A    between atoms: C_16  and  C_17 
REMARK    6  A    between atoms: C_17  and  C_18 
REMARK    7  A    between atoms: C_17  and  C_24 
ROOT
HETATM    1  C   UNL     1      40.967 -13.629   1.155  1.00  0.00     0.253 C 
HETATM    2  N   UNL     1      41.486 -14.899   1.202  1.00  0.00    -0.358 N 
HETATM    3  O   UNL     1      41.389 -12.676   1.813  1.00  0.00    -0.271 OA
HETATM    4  H   UNL     1      41.103 -15.643   0.631  1.00  0.00     0.162 HD
ENDROOT
BRANCH   2   5
HETATM    5  C   UNL     1      42.593 -15.264   2.090  1.00  0.00     0.141 C 
BRANCH   5   6
HETATM    6  C   UNL     1      42.157 -16.060   3.373  1.00  0.00     0.026 C 
HETATM    7  C   UNL     1      40.605 -16.141   3.325  1.00  0.00     0.027 C 
BRANCH   6   8
HETATM    8  C   UNL     1      42.823 -17.464   3.272  1.00  0.00    -0.044 A 
HETATM    9  C   UNL     1      43.715 -17.923   4.265  1.00  0.00     0.008 A 
HETATM   10  C   UNL     1      44.307 -19.187   4.186  1.00  0.00     0.001 A 
HETATM   11  C   UNL     1      44.041 -20.013   3.101  1.00  0.00     0.000 A 
HETATM   12  C   UNL     1      43.191 -19.573   2.091  1.00  0.00     0.001 A 
HETATM   13  C   UNL     1      42.592 -18.312   2.173  1.00  0.00     0.008 A 
ENDBRANCH   6   8
BRANCH   6  14
HETATM   14  C   UNL     1      42.468 -15.338   4.715  1.00  0.00    -0.044 A 
HETATM   15  C   UNL     1      42.191 -15.901   5.974  1.00  0.00     0.008 A 
HETATM   16  C   UNL     1      42.503 -15.219   7.156  1.00  0.00     0.001 A 
HETATM   17  C   UNL     1      43.119 -13.972   7.107  1.00  0.00     0.000 A 
HETATM   18  C   UNL     1      43.440 -13.411   5.877  1.00  0.00     0.001 A 
HETATM   19  C   UNL     1      43.128 -14.089   4.697  1.00  0.00     0.008 A 
ENDBRANCH   6  14
ENDBRANCH   5   6
ENDBRANCH   2   5
BRANCH   1  20
HETATM   20  C   UNL     1      39.713 -13.427   0.280  1.00  0.00     0.311 C 
BRANCH  20  21
HETATM   21  C   UNL     1      40.077 -13.158  -1.144  1.00  0.00     0.031 A 
HETATM   22  C   UNL     1      40.791 -12.101  -1.699  1.00  0.00     0.035 A 
HETATM   23  C   UNL     1      41.455 -10.902  -1.128  1.00  0.00     0.070 C 
HETATM   24  N   UNL     1      40.844 -12.348  -3.048  1.00  0.00    -0.282 N 
HETATM   25  H   UNL     1      41.295 -11.800  -3.777  1.00  0.00     0.189 HD
HETATM   26  N   UNL     1      40.210 -13.467  -3.403  1.00  0.00    -0.179 NA
HETATM   27  C   UNL     1      39.752 -13.983  -2.263  1.00  0.00     0.061 A 
HETATM   28  C   UNL     1      39.014 -15.273  -2.302  1.00  0.00     0.073 C 
ENDBRANCH  20  21
BRANCH  20  29
HETATM   29  N   UNL     1      38.918 -12.301   0.867  1.00  0.00    -0.062 N 
HETATM   30  H   UNL     1      37.926 -12.552   0.936  1.00  0.00     0.275 HD
HETATM   31  H   UNL     1      39.244 -12.181   1.838  1.00  0.00     0.275 HD
HETATM   32  H   UNL     1      39.039 -11.428   0.349  1.00  0.00     0.275 HD
ENDBRANCH  20  29
ENDBRANCH   1  20
TORSDOF 7
ENDMDL
MODEL 5
REMARK VINA RESULT:      -8.0      1.983      2.761
REMARK  7 active torsions:
REMARK  status: ('A' for Active; 'I' for Inactive)
REMARK    1  A    between atoms: C_8  and  C_9 
REMARK    2  A    between atoms: C_9  and  N_10 
REMARK    3  A    between atoms: C_9  and  C_14 
REMARK       I    between atoms: C_14  and  N_15 
REMARK    4  A    between atoms: N_15  and  C_16 
REMARK    5  A    between atoms: C_16  and  C_17 
REMARK    6  A    between atoms: C_17  and  C_18 
REMARK    7  A    between atoms: C_17  and  C_24 
ROOT
HETATM    1  C   UNL     1      40.093 -14.146   1.522  1.00  0.00     0.253 C 
HETATM    2  N   UNL     1      41.006 -15.099   1.142  1.00  0.00    -0.358 N 
HETATM    3  O   UNL     1      39.355 -14.236   2.505  1.00  0.00    -0.271 OA
HETATM    4  H   UNL     1      41.593 -14.968   0.328  1.00  0.00     0.162 HD
ENDROOT
BRANCH   2   5
HETATM    5  C   UNL     1      41.166 -16.365   1.862  1.00  0.00     0.141 C 
BRANCH   5   6
HETATM    6  C   UNL     1      42.460 -16.445   2.750  1.00  0.00     0.026 C 
HETATM    7  C   UNL     1      43.571 -15.693   1.964  1.00  0.00     0.027 C 
BRANCH   6   8
HETATM    8  C   UNL     1      42.117 -15.744   4.098  1.00  0.00    -0.044 A 
HETATM    9  C   UNL     1      41.030 -16.174   4.889  1.00  0.00     0.008 A 
HETATM   10  C   UNL     1      40.724 -15.557   6.106  1.00  0.00     0.001 A 
HETATM   11  C   UNL     1      41.481 -14.479   6.549  1.00  0.00     0.000 A 
HETATM   12  C   UNL     1      42.538 -14.013   5.773  1.00  0.00     0.001 A 
HETATM   13  C   UNL     1      42.850 -14.636   4.560  1.00  0.00     0.008 A 
ENDBRANCH   6   8
BRANCH   6  14
HETATM   14  C   UNL     1      43.023 -17.882   2.942  1.00  0.00    -0.044 A 
HETATM   15  C   UNL     1      43.766 -18.273   4.070  1.00  0.00     0.008 A 
HETATM   16  C   UNL     1      44.240 -19.583   4.205  1.00  0.00     0.001 A 
HETATM   17  C   UNL     1      43.961 -20.536   3.230  1.00  0.00     0.000 A 
HETATM   18  C   UNL     1      43.196 -20.186   2.124  1.00  0.00     0.001 A 
HETATM   19  C   UNL     1      42.724 -18.880   1.988  1.00  0.00     0.008 A 
ENDBRANCH   6  14
ENDBRANCH   5   6
ENDBRANCH   2   5
BRANCH   1  20
HETATM   20  C   UNL     1      39.937 -12.929   0.587  1.00  0.00     0.311 C 
BRANCH  20  21
HETATM   21  C   UNL     1      39.674 -11.677   1.358  1.00  0.00     0.031 A 
HETATM   22  C   UNL     1      38.483 -10.986   1.561  1.00  0.00     0.035 A 
HETATM   23  C   UNL     1      37.080 -11.218   1.135  1.00  0.00     0.070 C 
HETATM   24  N   UNL     1      38.800  -9.909   2.349  1.00  0.00    -0.282 N 
HETATM   25  H   UNL     1      38.185  -9.186   2.715  1.00  0.00     0.189 HD
HETATM   26  N   UNL     1      40.097  -9.845   2.655  1.00  0.00    -0.179 NA
HETATM   27  C   UNL     1      40.643 -10.915   2.079  1.00  0.00     0.061 A 
HETATM   28  C   UNL     1      42.098 -11.165   2.255  1.00  0.00     0.073 C 
ENDBRANCH  20  21
BRANCH  20  29
HETATM   29  N   UNL     1      38.829 -13.227  -0.375  1.00  0.00    -0.062 N 
HETATM   30  H   UNL     1      39.197 -13.393  -1.317  1.00  0.00     0.275 HD
HETATM   31  H   UNL     1      38.408 -14.120  -0.078  1.00  0.00     0.275 HD
HETATM   32  H   UNL     1      38.115 -12.494  -0.387  1.00  0.00     0.275 HD
ENDBRANCH  20  29
ENDBRANCH   1  20
TORSDOF 7
ENDMDL
MODEL 6
REMARK VINA RESULT:      -7.6      2.194      3.295
REMARK  7 active torsions:
REMARK  status: ('A' for Active; 'I' for Inactive)
REMARK    1  A    between atoms: C_8  and  C_9 
REMARK    2  A    between atoms: C_9  and  N_10 
REMARK    3  A    between atoms: C_9  and  C_14 
REMARK       I    between atoms: C_14  and  N_15 
REMARK    4  A    between atoms: N_15  and  C_16 
REMARK    5  A    between atoms: C_16  and  C_17 
REMARK    6  A    between atoms: C_17  and  C_18 
REMARK    7  A    between atoms: C_17  and  C_24 
ROOT
HETATM    1  C   UNL     1      39.784 -13.505   2.514  1.00  0.00     0.253 C 
HETATM    2  N   UNL     1      40.410 -14.624   2.020  1.00  0.00    -0.358 N 
HETATM    3  O   UNL     1      39.519 -13.319   3.704  1.00  0.00    -0.271 OA
HETATM    4  H   UNL     1      40.610 -14.719   1.032  1.00  0.00     0.162 HD
ENDROOT
BRANCH   2   5
HETATM    5  C   UNL     1      40.796 -15.750   2.874  1.00  0.00     0.141 C 
BRANCH   5   6
HETATM    6  C   UNL     1      42.340 -15.853   3.148  1.00  0.00     0.026 C 
HETATM    7  C   UNL     1      43.040 -15.149   1.951  1.00  0.00     0.027 C 
BRANCH   6   8
HETATM    8  C   UNL     1      42.602 -15.120   4.497  1.00  0.00    -0.044 A 
HETATM    9  C   UNL     1      42.227 -15.699   5.728  1.00  0.00     0.008 A 
HETATM   10  C   UNL     1      42.470 -15.051   6.943  1.00  0.00     0.001 A 
HETATM   11  C   UNL     1      43.070 -13.798   6.956  1.00  0.00     0.000 A 
HETATM   12  C   UNL     1      43.420 -13.189   5.754  1.00  0.00     0.001 A 
HETATM   13  C   UNL     1      43.185 -13.840   4.539  1.00  0.00     0.008 A 
ENDBRANCH   6   8
BRANCH   6  14
HETATM   14  C   UNL     1      42.902 -17.303   3.130  1.00  0.00    -0.044 A 
HETATM   15  C   UNL     1      42.550 -18.254   2.155  1.00  0.00     0.008 A 
HETATM   16  C   UNL     1      43.094 -19.543   2.172  1.00  0.00     0.001 A 
HETATM   17  C   UNL     1      44.019 -19.904   3.147  1.00  0.00     0.000 A 
HETATM   18  C   UNL     1      44.414 -18.972   4.099  1.00  0.00     0.001 A 
HETATM   19  C   UNL     1      43.871 -17.686   4.084  1.00  0.00     0.008 A 
ENDBRANCH   6  14
ENDBRANCH   5   6
ENDBRANCH   2   5
BRANCH   1  20
HETATM   20  C   UNL     1      39.310 -12.466   1.478  1.00  0.00     0.311 C 
BRANCH  20  21
HETATM   21  C   UNL     1      40.317 -11.379   1.293  1.00  0.00     0.031 A 
HETATM   22  C   UNL     1      40.761 -10.411   2.187  1.00  0.00     0.035 A 
HETATM   23  C   UNL     1      40.445 -10.105   3.606  1.00  0.00     0.070 C 
HETATM   24  N   UNL     1      41.695  -9.669   1.509  1.00  0.00    -0.282 N 
HETATM   25  H   UNL     1      42.247  -8.882   1.843  1.00  0.00     0.189 HD
HETATM   26  N   UNL     1      41.874 -10.073   0.251  1.00  0.00    -0.179 NA
HETATM   27  C   UNL     1      41.062 -11.118   0.103  1.00  0.00     0.061 A 
HETATM   28  C   UNL     1      41.041 -11.836  -1.199  1.00  0.00     0.073 C 
ENDBRANCH  20  21
BRANCH  20  29
HETATM   29  N   UNL     1      37.992 -11.923   1.941  1.00  0.00    -0.062 N 
HETATM   30  H   UNL     1      37.630 -11.229   1.279  1.00  0.00     0.275 HD
HETATM   31  H   UNL     1      37.322 -12.707   1.917  1.00  0.00     0.275 HD
HETATM   32  H   UNL     1      38.041 -11.535   2.886  1.00  0.00     0.275 HD
ENDBRANCH  20  29
ENDBRANCH   1  20
TORSDOF 7
ENDMDL
MODEL 7
REMARK VINA RESULT:      -7.5      2.156      4.887
REMARK  7 active torsions:
REMARK  status: ('A' for Active; 'I' for Inactive)
REMARK    1  A    between atoms: C_8  and  C_9 
REMARK    2  A    between atoms: C_9  and  N_10 
REMARK    3  A    between atoms: C_9  and  C_14 
REMARK       I    between atoms: C_14  and  N_15 
REMARK    4  A    between atoms: N_15  and  C_16 
REMARK    5  A    between atoms: C_16  and  C_17 
REMARK    6  A    between atoms: C_17  and  C_18 
REMARK    7  A    between atoms: C_17  and  C_24 
ROOT
HETATM    1  C   UNL     1      39.339 -13.369   2.367  1.00  0.00     0.253 C 
HETATM    2  N   UNL     1      40.045 -14.513   2.085  1.00  0.00    -0.358 N 
HETATM    3  O   UNL     1      38.784 -13.135   3.443  1.00  0.00    -0.271 OA
HETATM    4  H   UNL     1      40.488 -14.647   1.185  1.00  0.00     0.162 HD
ENDROOT
BRANCH   2   5
HETATM    5  C   UNL     1      40.176 -15.611   3.046  1.00  0.00     0.141 C 
BRANCH   5   6
HETATM    6  C   UNL     1      41.398 -15.472   4.024  1.00  0.00     0.026 C 
HETATM    7  C   UNL     1      40.814 -15.561   5.463  1.00  0.00     0.027 C 
BRANCH   6   8
HETATM    8  C   UNL     1      42.359 -16.656   3.705  1.00  0.00    -0.044 A 
HETATM    9  C   UNL     1      43.397 -17.014   4.593  1.00  0.00     0.008 A 
HETATM   10  C   UNL     1      44.255 -18.083   4.318  1.00  0.00     0.001 A 
HETATM   11  C   UNL     1      44.113 -18.804   3.139  1.00  0.00     0.000 A 
HETATM   12  C   UNL     1      43.118 -18.453   2.231  1.00  0.00     0.001 A 
HETATM   13  C   UNL     1      42.254 -17.388   2.509  1.00  0.00     0.008 A 
ENDBRANCH   6   8
BRANCH   6  14
HETATM   14  C   UNL     1      42.107 -14.088   3.977  1.00  0.00    -0.044 A 
HETATM   15  C   UNL     1      41.996 -13.130   5.000  1.00  0.00     0.008 A 
HETATM   16  C   UNL     1      42.665 -11.904   4.919  1.00  0.00     0.001 A 
HETATM   17  C   UNL     1      43.479 -11.617   3.827  1.00  0.00     0.000 A 
HETATM   18  C   UNL     1      43.638 -12.562   2.820  1.00  0.00     0.001 A 
HETATM   19  C   UNL     1      42.970 -13.785   2.900  1.00  0.00     0.008 A 
ENDBRANCH   6  14
ENDBRANCH   5   6
ENDBRANCH   2   5
BRANCH   1  20
HETATM   20  C   UNL     1      39.167 -12.362   1.210  1.00  0.00     0.311 C 
BRANCH  20  21
HETATM   21  C   UNL     1      40.194 -11.280   1.270  1.00  0.00     0.031 A 
HETATM   22  C   UNL     1      40.444 -10.338   2.264  1.00  0.00     0.035 A 
HETATM   23  C   UNL     1      39.838 -10.066   3.592  1.00  0.00     0.070 C 
HETATM   24  N   UNL     1      41.502  -9.588   1.817  1.00  0.00    -0.282 N 
HETATM   25  H   UNL     1      41.973  -8.814   2.280  1.00  0.00     0.189 HD
HETATM   26  N   UNL     1      41.940  -9.961   0.613  1.00  0.00    -0.179 NA
HETATM   27  C   UNL     1      41.173 -10.995   0.270  1.00  0.00     0.061 A 
HETATM   28  C   UNL     1      41.424 -11.679  -1.026  1.00  0.00     0.073 C 
ENDBRANCH  20  21
BRANCH  20  29
HETATM   29  N   UNL     1      37.777 -11.808   1.286  1.00  0.00    -0.062 N 
HETATM   30  H   UNL     1      37.638 -11.074   0.584  1.00  0.00     0.275 HD
HETATM   31  H   UNL     1      37.137 -12.572   1.021  1.00  0.00     0.275 HD
HETATM   32  H   UNL     1      37.544 -11.467   2.222  1.00  0.00     0.275 HD
ENDBRANCH  20  29
ENDBRANCH   1  20
TORSDOF 7
ENDMDL
MODEL 8
REMARK VINA RESULT:      -7.5      0.973      3.788
REMARK  7 active torsions:
REMARK  status: ('A' for Active; 'I' for Inactive)
REMARK    1  A    between atoms: C_8  and  C_9 
REMARK    2  A    between atoms: C_9  and  N_10 
REMARK    3  A    between atoms: C_9  and  C_14 
REMARK       I    between atoms: C_14  and  N_15 
REMARK    4  A    between atoms: N_15  and  C_16 
REMARK    5  A    between atoms: C_16  and  C_17 
REMARK    6  A    between atoms: C_17  and  C_18 
REMARK    7  A    between atoms: C_17  and  C_24 
ROOT
HETATM    1  C   UNL     1      39.759 -13.327   1.563  1.00  0.00     0.253 C 
HETATM    2  N   UNL     1      40.500 -14.478   1.675  1.00  0.00    -0.358 N 
HETATM    3  O   UNL     1      38.875 -12.983   2.351  1.00  0.00    -0.271 OA
HETATM    4  H   UNL     1      41.220 -14.705   1.002  1.00  0.00     0.162 HD
ENDROOT
BRANCH   2   5
HETATM    5  C   UNL     1      40.279 -15.453   2.746  1.00  0.00     0.141 C 
BRANCH   5   6
HETATM    6  C   UNL     1      41.344 -15.399   3.900  1.00  0.00     0.026 C 
HETATM    7  C   UNL     1      40.551 -15.549   5.229  1.00  0.00     0.027 C 
BRANCH   6   8
HETATM    8  C   UNL     1      42.320 -16.590   3.660  1.00  0.00    -0.044 A 
HETATM    9  C   UNL     1      42.253 -17.362   2.480  1.00  0.00     0.008 A 
HETATM   10  C   UNL     1      43.133 -18.424   2.253  1.00  0.00     0.001 A 
HETATM   11  C   UNL     1      44.084 -18.757   3.210  1.00  0.00     0.000 A 
HETATM   12  C   UNL     1      44.151 -18.033   4.397  1.00  0.00     0.001 A 
HETATM   13  C   UNL     1      43.276 -16.965   4.621  1.00  0.00     0.008 A 
ENDBRANCH   6   8
BRANCH   6  14
HETATM   14  C   UNL     1      42.079 -14.035   4.036  1.00  0.00    -0.044 A 
HETATM   15  C   UNL     1      41.862 -13.147   5.105  1.00  0.00     0.008 A 
HETATM   16  C   UNL     1      42.558 -11.936   5.191  1.00  0.00     0.001 A 
HETATM   17  C   UNL     1      43.502 -11.596   4.226  1.00  0.00     0.000 A 
HETATM   18  C   UNL     1      43.764 -12.473   3.181  1.00  0.00     0.001 A 
HETATM   19  C   UNL     1      43.069 -13.681   3.093  1.00  0.00     0.008 A 
ENDBRANCH   6  14
ENDBRANCH   5   6
ENDBRANCH   2   5
BRANCH   1  20
HETATM   20  C   UNL     1      40.007 -12.466   0.307  1.00  0.00     0.311 C 
BRANCH  20  21
HETATM   21  C   UNL     1      38.919 -12.642  -0.701  1.00  0.00     0.031 A 
HETATM   22  C   UNL     1      38.640 -13.720  -1.536  1.00  0.00     0.035 A 
HETATM   23  C   UNL     1      39.263 -15.054  -1.729  1.00  0.00     0.070 C 
HETATM   24  N   UNL     1      37.528 -13.363  -2.255  1.00  0.00    -0.282 N 
HETATM   25  H   UNL     1      37.023 -13.902  -2.955  1.00  0.00     0.189 HD
HETATM   26  N   UNL     1      37.081 -12.140  -1.960  1.00  0.00    -0.179 NA
HETATM   27  C   UNL     1      37.899 -11.692  -1.009  1.00  0.00     0.061 A 
HETATM   28  C   UNL     1      37.656 -10.347  -0.425  1.00  0.00     0.073 C 
ENDBRANCH  20  21
BRANCH  20  29
HETATM   29  N   UNL     1      41.344 -12.846  -0.253  1.00  0.00    -0.062 N 
HETATM   30  H   UNL     1      41.876 -13.408   0.419  1.00  0.00     0.275 HD
HETATM   31  H   UNL     1      41.165 -13.467  -1.057  1.00  0.00     0.275 HD
HETATM   32  H   UNL     1      41.884 -12.032  -0.557  1.00  0.00     0.275 HD
ENDBRANCH  20  29
ENDBRANCH   1  20
TORSDOF 7
ENDMDL
MODEL 9
REMARK VINA RESULT:      -7.5      1.979      4.630
REMARK  7 active torsions:
REMARK  status: ('A' for Active; 'I' for Inactive)
REMARK    1  A    between atoms: C_8  and  C_9 
REMARK    2  A    between atoms: C_9  and  N_10 
REMARK    3  A    between atoms: C_9  and  C_14 
REMARK       I    between atoms: C_14  and  N_15 
REMARK    4  A    between atoms: N_15  and  C_16 
REMARK    5  A    between atoms: C_16  and  C_17 
REMARK    6  A    between atoms: C_17  and  C_18 
REMARK    7  A    between atoms: C_17  and  C_24 
ROOT
HETATM    1  C   UNL     1      40.038 -11.574   0.843  1.00  0.00     0.253 C 
HETATM    2  N   UNL     1      41.062 -12.366   1.302  1.00  0.00    -0.358 N 
HETATM    3  O   UNL     1      39.733 -10.478   1.318  1.00  0.00    -0.271 OA
HETATM    4  H   UNL     1      41.273 -13.255   0.867  1.00  0.00     0.162 HD
ENDROOT
BRANCH   2   5
HETATM    5  C   UNL     1      41.885 -11.995   2.457  1.00  0.00     0.141 C 
BRANCH   5   6
HETATM    6  C   UNL     1      41.842 -13.029   3.640  1.00  0.00     0.026 C 
HETATM    7  C   UNL     1      40.399 -12.967   4.216  1.00  0.00     0.027 C 
BRANCH   6   8
HETATM    8  C   UNL     1      42.169 -14.422   3.024  1.00  0.00    -0.044 A 
HETATM    9  C   UNL     1      43.284 -14.602   2.177  1.00  0.00     0.008 A 
HETATM   10  C   UNL     1      43.590 -15.852   1.630  1.00  0.00     0.001 A 
HETATM   11  C   UNL     1      42.777 -16.947   1.898  1.00  0.00     0.000 A 
HETATM   12  C   UNL     1      41.654 -16.790   2.704  1.00  0.00     0.001 A 
HETATM   13  C   UNL     1      41.351 -15.542   3.258  1.00  0.00     0.008 A 
ENDBRANCH   6   8
BRANCH   6  14
HETATM   14  C   UNL     1      42.758 -12.669   4.844  1.00  0.00    -0.044 A 
HETATM   15  C   UNL     1      43.258 -11.375   5.072  1.00  0.00     0.008 A 
HETATM   16  C   UNL     1      44.068 -11.096   6.178  1.00  0.00     0.001 A 
HETATM   17  C   UNL     1      44.378 -12.098   7.093  1.00  0.00     0.000 A 
HETATM   18  C   UNL     1      43.865 -13.377   6.913  1.00  0.00     0.001 A 
HETATM   19  C   UNL     1      43.058 -13.656   5.809  1.00  0.00     0.008 A 
ENDBRANCH   6  14
ENDBRANCH   5   6
ENDBRANCH   2   5
BRANCH   1  20
HETATM   20  C   UNL     1      39.169 -12.159  -0.290  1.00  0.00     0.311 C 
BRANCH  20  21
HETATM   21  C   UNL     1      39.990 -12.498  -1.490  1.00  0.00     0.031 A 
HETATM   22  C   UNL     1      40.976 -11.760  -2.137  1.00  0.00     0.035 A 
HETATM   23  C   UNL     1      41.583 -10.427  -1.891  1.00  0.00     0.070 C 
HETATM   24  N   UNL     1      41.412 -12.540  -3.177  1.00  0.00    -0.282 N 
HETATM   25  H   UNL     1      42.136 -12.339  -3.863  1.00  0.00     0.189 HD
HETATM   26  N   UNL     1      40.776 -13.710  -3.259  1.00  0.00    -0.179 NA
HETATM   27  C   UNL     1      39.922 -13.713  -2.237  1.00  0.00     0.061 A 
HETATM   28  C   UNL     1      39.067 -14.909  -2.017  1.00  0.00     0.073 C 
ENDBRANCH  20  21
BRANCH  20  29
HETATM   29  N   UNL     1      38.104 -11.156  -0.616  1.00  0.00    -0.062 N 
HETATM   30  H   UNL     1      37.918 -11.136  -1.623  1.00  0.00     0.275 HD
HETATM   31  H   UNL     1      37.234 -11.493  -0.177  1.00  0.00     0.275 HD
HETATM   32  H   UNL     1      38.330 -10.222  -0.268  1.00  0.00     0.275 HD
ENDBRANCH  20  29
ENDBRANCH   1  20
TORSDOF 7
ENDMDL
MODEL 10
REMARK VINA RESULT:      -7.3      3.849      6.798
REMARK  7 active torsions:
REMARK  status: ('A' for Active; 'I' for Inactive)
REMARK    1  A    between atoms: C_8  and  C_9 
REMARK    2  A    between atoms: C_9  and  N_10 
REMARK    3  A    between atoms: C_9  and  C_14 
REMARK       I    between atoms: C_14  and  N_15 
REMARK    4  A    between atoms: N_15  and  C_16 
REMARK    5  A    between atoms: C_16  and  C_17 
REMARK    6  A    between atoms: C_17  and  C_18 
REMARK    7  A    between atoms: C_17  and  C_24 
ROOT
HETATM    1  C   UNL     1      42.301 -11.592   4.859  1.00  0.00     0.253 C 
HETATM    2  N   UNL     1      42.110 -12.950   4.935  1.00  0.00    -0.358 N 
HETATM    3  O   UNL     1      43.026 -11.031   4.035  1.00  0.00    -0.271 OA
HETATM    4  H   UNL     1      41.495 -13.355   5.630  1.00  0.00     0.162 HD
ENDROOT
BRANCH   2   5
HETATM    5  C   UNL     1      42.799 -13.891   4.047  1.00  0.00     0.141 C 
BRANCH   5   6
HETATM    6  C   UNL     1      41.986 -15.200   3.738  1.00  0.00     0.026 C 
HETATM    7  C   UNL     1      40.943 -15.343   4.883  1.00  0.00     0.027 C 
BRANCH   6   8
HETATM    8  C   UNL     1      41.310 -14.984   2.351  1.00  0.00    -0.044 A 
HETATM    9  C   UNL     1      41.659 -13.890   1.530  1.00  0.00     0.008 A 
HETATM   10  C   UNL     1      41.065 -13.698   0.279  1.00  0.00     0.001 A 
HETATM   11  C   UNL     1      40.090 -14.581  -0.171  1.00  0.00     0.000 A 
HETATM   12  C   UNL     1      39.704 -15.650   0.632  1.00  0.00     0.001 A 
HETATM   13  C   UNL     1      40.304 -15.847   1.880  1.00  0.00     0.008 A 
ENDBRANCH   6   8
BRANCH   6  14
HETATM   14  C   UNL     1      42.822 -16.509   3.806  1.00  0.00    -0.044 A 
HETATM   15  C   UNL     1      43.204 -17.239   2.667  1.00  0.00     0.008 A 
HETATM   16  C   UNL     1      43.970 -18.405   2.777  1.00  0.00     0.001 A 
HETATM   17  C   UNL     1      44.391 -18.854   4.026  1.00  0.00     0.000 A 
HETATM   18  C   UNL     1      44.061 -18.130   5.165  1.00  0.00     0.001 A 
HETATM   19  C   UNL     1      43.297 -16.967   5.055  1.00  0.00     0.008 A 
ENDBRANCH   6  14
ENDBRANCH   5   6
ENDBRANCH   2   5
BRANCH   1  20
HETATM   20  C   UNL     1      41.620 -10.737   5.949  1.00  0.00     0.311 C 
BRANCH  20  21
HETATM   21  C   UNL     1      42.626 -10.081   6.837  1.00  0.00     0.031 A 
HETATM   22  C   UNL     1      43.785 -10.596   7.408  1.00  0.00     0.035 A 
HETATM   23  C   UNL     1      44.457 -11.919   7.346  1.00  0.00     0.070 C 
HETATM   24  N   UNL     1      44.341  -9.568   8.127  1.00  0.00    -0.282 N 
HETATM   25  H   UNL     1      45.203  -9.565   8.669  1.00  0.00     0.189 HD
HETATM   26  N   UNL     1      43.626  -8.443   8.076  1.00  0.00    -0.179 NA
HETATM   27  C   UNL     1      42.591  -8.726   7.286  1.00  0.00     0.061 A 
HETATM   28  C   UNL     1      41.599  -7.659   6.989  1.00  0.00     0.073 C 
ENDBRANCH  20  21
BRANCH  20  29
HETATM   29  N   UNL     1      40.699 -11.630   6.724  1.00  0.00    -0.062 N 
HETATM   30  H   UNL     1      40.862 -12.614   6.490  1.00  0.00     0.275 HD
HETATM   31  H   UNL     1      40.957 -11.532   7.718  1.00  0.00     0.275 HD
HETATM   32  H   UNL     1      39.716 -11.381   6.594  1.00  0.00     0.275 HD
ENDBRANCH  20  29
ENDBRANCH   1  20
TORSDOF 7
ENDMDL
