MODEL 1
REMARK VINA RESULT:      -8.4      0.000      0.000
REMARK  5 active torsions:
REMARK  status: ('A' for Active; 'I' for Inactive)
REMARK    1  A    between atoms: C_8  and  C_9 
REMARK       I    between atoms: N_10  and  C_11 
REMARK       I    between atoms: C_11  and  N_12 
REMARK    2  A    between atoms: N_12  and  C_13 
REMARK    3  A    between atoms: C_15  and  O_16 
REMARK    4  A    between atoms: O_16  and  C_17 
REMARK    5  A    between atoms: C_17  and  C_18 
ROOT
HETATM    1  C   UNL     1      38.827 -12.732  -0.233  1.00  0.00     0.126 C 
HETATM    2  N   UNL     1      39.511 -12.800   1.054  1.00  0.00    -0.325 N 
HETATM    3  C   UNL     1      39.958 -14.014   1.557  1.00  0.00     0.323 C 
HETATM    4  N   UNL     1      40.813 -13.846   2.628  1.00  0.00    -0.309 N 
HETATM    5  O   UNL     1      39.656 -15.088   1.047  1.00  0.00    -0.247 OA
HETATM    6  C   UNL     1      39.129 -11.683   1.910  1.00  0.00     0.128 C 
HETATM    7  C   UNL     1      37.883 -11.112   1.252  1.00  0.00     0.022 C 
HETATM    8  C   UNL     1      38.143 -11.358  -0.227  1.00  0.00     0.032 C 
HETATM    9  H   UNL     1      41.267 -12.946   2.645  1.00  0.00     0.170 HD
ENDROOT
BRANCH   4  10
HETATM   10  C   UNL     1      41.416 -14.866   3.386  1.00  0.00     0.039 A 
HETATM   11  C   UNL     1      42.249 -15.765   2.712  1.00  0.00     0.066 A 
HETATM   12  C   UNL     1      42.851 -16.830   3.388  1.00  0.00     0.071 A 
HETATM   13  C   UNL     1      42.685 -16.951   4.767  1.00  0.00     0.037 A 
HETATM   14  C   UNL     1      41.876 -16.040   5.450  1.00  0.00     0.005 A 
HETATM   15  C   UNL     1      41.235 -15.008   4.761  1.00  0.00     0.030 A 
BRANCH  12  16
HETATM   16  O   UNL     1      43.575 -17.678   2.596  1.00  0.00    -0.347 OA
BRANCH  16  17
HETATM   17  C   UNL     1      44.400 -18.628   3.272  1.00  0.00     0.208 C 
BRANCH  17  18
HETATM   18  C   UNL     1      43.814 -20.005   3.062  1.00  0.00    -0.069 C 
HETATM   19  C   UNL     1      43.147 -20.253   1.739  1.00  0.00     0.044 C 
HETATM   20  C   UNL     1      43.889 -20.964   4.002  1.00  0.00     0.016 C 
ENDBRANCH  17  18
ENDBRANCH  16  17
ENDBRANCH  12  16
ENDBRANCH   4  10
BRANCH   1  21
HETATM   21  C   UNL     1      39.777 -12.877  -1.386  1.00  0.00     0.014 A 
HETATM   22  C   UNL     1      40.876 -12.073  -1.651  1.00  0.00     0.034 A 
HETATM   23  C   UNL     1      41.421 -10.888  -0.950  1.00  0.00     0.070 C 
HETATM   24  N   UNL     1      41.447 -12.568  -2.787  1.00  0.00    -0.282 N 
HETATM   25  H   UNL     1      42.259 -12.218  -3.285  1.00  0.00     0.189 HD
HETATM   26  N   UNL     1      40.845 -13.664  -3.260  1.00  0.00    -0.179 NA
HETATM   27  C   UNL     1      39.812 -13.853  -2.430  1.00  0.00     0.061 A 
HETATM   28  C   UNL     1      38.890 -14.990  -2.681  1.00  0.00     0.073 C 
ENDBRANCH   1  21
TORSDOF 5
ENDMDL
MODEL 2
REMARK VINA RESULT:      -8.0      5.630      8.485
REMARK  5 active torsions:
REMARK  status: ('A' for Active; 'I' for Inactive)
REMARK    1  A    between atoms: C_8  and  C_9 
REMARK       I    between atoms: N_10  and  C_11 
REMARK       I    between atoms: C_11  and  N_12 
REMARK    2  A    between atoms: N_12  and  C_13 
REMARK    3  A    between atoms: C_15  and  O_16 
REMARK    4  A    between atoms: O_16  and  C_17 
REMARK    5  A    between atoms: C_17  and  C_18 
ROOT
HETATM    1  C   UNL     1      42.053 -15.862   5.233  1.00  0.00     0.126 C 
HETATM    2  N   UNL     1      42.063 -14.561   5.892  1.00  0.00    -0.325 N 
HETATM    3  C   UNL     1      43.251 -14.007   6.349  1.00  0.00     0.323 C 
HETATM    4  N   UNL     1      43.106 -12.674   6.682  1.00  0.00    -0.309 N 
HETATM    5  O   UNL     1      44.301 -14.640   6.384  1.00  0.00    -0.247 OA
HETATM    6  C   UNL     1      40.771 -14.271   6.499  1.00  0.00     0.128 C 
HETATM    7  C   UNL     1      40.055 -15.612   6.523  1.00  0.00     0.022 C 
HETATM    8  C   UNL     1      40.580 -16.294   5.269  1.00  0.00     0.032 C 
HETATM    9  H   UNL     1      42.333 -12.224   6.216  1.00  0.00     0.170 HD
ENDROOT
BRANCH   4  10
HETATM   10  C   UNL     1      44.099 -11.829   7.207  1.00  0.00     0.039 A 
HETATM   11  C   UNL     1      43.825 -11.184   8.417  1.00  0.00     0.066 A 
HETATM   12  C   UNL     1      44.745 -10.296   8.981  1.00  0.00     0.071 A 
HETATM   13  C   UNL     1      45.985 -10.112   8.371  1.00  0.00     0.037 A 
HETATM   14  C   UNL     1      46.276 -10.774   7.176  1.00  0.00     0.005 A 
HETATM   15  C   UNL     1      45.332 -11.620   6.590  1.00  0.00     0.030 A 
BRANCH  12  16
HETATM   16  O   UNL     1      44.319  -9.675  10.123  1.00  0.00    -0.347 OA
BRANCH  16  17
HETATM   17  C   UNL     1      43.469 -10.439  10.980  1.00  0.00     0.208 C 
BRANCH  17  18
HETATM   18  C   UNL     1      42.917  -9.523  12.047  1.00  0.00    -0.069 C 
HETATM   19  C   UNL     1      41.701 -10.009  12.783  1.00  0.00     0.044 C 
HETATM   20  C   UNL     1      43.484  -8.338  12.334  1.00  0.00     0.016 C 
ENDBRANCH  17  18
ENDBRANCH  16  17
ENDBRANCH  12  16
ENDBRANCH   4  10
BRANCH   1  21
HETATM   21  C   UNL     1      42.579 -15.790   3.829  1.00  0.00     0.014 A 
HETATM   22  C   UNL     1      43.308 -16.770   3.173  1.00  0.00     0.034 A 
HETATM   23  C   UNL     1      43.788 -18.100   3.613  1.00  0.00     0.070 C 
HETATM   24  N   UNL     1      43.570 -16.282   1.926  1.00  0.00    -0.282 N 
HETATM   25  H   UNL     1      44.100 -16.721   1.179  1.00  0.00     0.189 HD
HETATM   26  N   UNL     1      43.027 -15.084   1.690  1.00  0.00    -0.179 NA
HETATM   27  C   UNL     1      42.437 -14.760   2.847  1.00  0.00     0.061 A 
HETATM   28  C   UNL     1      41.745 -13.450   2.956  1.00  0.00     0.073 C 
ENDBRANCH   1  21
TORSDOF 5
ENDMDL
MODEL 3
REMARK VINA RESULT:      -7.9      5.646      8.645
REMARK  5 active torsions:
REMARK  status: ('A' for Active; 'I' for Inactive)
REMARK    1  A    between atoms: C_8  and  C_9 
REMARK       I    between atoms: N_10  and  C_11 
REMARK       I    between atoms: C_11  and  N_12 
REMARK    2  A    between atoms: N_12  and  C_13 
REMARK    3  A    between atoms: C_15  and  O_16 
REMARK    4  A    between atoms: O_16  and  C_17 
REMARK    5  A    between atoms: C_17  and  C_18 
ROOT
HETATM    1  C   UNL     1      41.700 -15.735   4.700  1.00  0.00     0.126 C 
HETATM    2  N   UNL     1      42.216 -14.370   4.726  1.00  0.00    -0.325 N 
HETATM    3  C   UNL     1      42.925 -13.900   5.823  1.00  0.00     0.323 C 
HETATM    4  N   UNL     1      43.563 -12.706   5.552  1.00  0.00    -0.309 N 
HETATM    5  O   UNL     1      43.000 -14.527   6.874  1.00  0.00    -0.247 OA
HETATM    6  C   UNL     1      41.436 -13.499   3.856  1.00  0.00     0.128 C 
HETATM    7  C   UNL     1      40.168 -14.287   3.571  1.00  0.00     0.022 C 
HETATM    8  C   UNL     1      40.661 -15.726   3.571  1.00  0.00     0.032 C 
HETATM    9  H   UNL     1      43.739 -12.556   4.571  1.00  0.00     0.170 HD
ENDROOT
BRANCH   4  10
HETATM   10  C   UNL     1      44.334 -11.946   6.450  1.00  0.00     0.039 A 
HETATM   11  C   UNL     1      43.734 -11.566   7.655  1.00  0.00     0.066 A 
HETATM   12  C   UNL     1      44.421 -10.775   8.581  1.00  0.00     0.071 A 
HETATM   13  C   UNL     1      45.749 -10.428   8.336  1.00  0.00     0.037 A 
HETATM   14  C   UNL     1      46.362 -10.828   7.147  1.00  0.00     0.005 A 
HETATM   15  C   UNL     1      45.655 -11.573   6.202  1.00  0.00     0.030 A 
BRANCH  12  16
HETATM   16  O   UNL     1      43.691 -10.411   9.679  1.00  0.00    -0.347 OA
BRANCH  16  17
HETATM   17  C   UNL     1      44.410  -9.770  10.734  1.00  0.00     0.208 C 
BRANCH  17  18
HETATM   18  C   UNL     1      43.603  -8.585  11.212  1.00  0.00    -0.069 C 
HETATM   19  C   UNL     1      43.137  -7.624  10.156  1.00  0.00     0.044 C 
HETATM   20  C   UNL     1      43.308  -8.400  12.510  1.00  0.00     0.016 C 
ENDBRANCH  17  18
ENDBRANCH  16  17
ENDBRANCH  12  16
ENDBRANCH   4  10
BRANCH   1  21
HETATM   21  C   UNL     1      42.784 -16.744   4.455  1.00  0.00     0.014 A 
HETATM   22  C   UNL     1      43.416 -16.992   3.245  1.00  0.00     0.034 A 
HETATM   23  C   UNL     1      43.234 -16.403   1.899  1.00  0.00     0.070 C 
HETATM   24  N   UNL     1      44.327 -17.980   3.486  1.00  0.00    -0.282 N 
HETATM   25  H   UNL     1      44.955 -18.428   2.827  1.00  0.00     0.189 HD
HETATM   26  N   UNL     1      44.381 -18.363   4.765  1.00  0.00    -0.179 NA
HETATM   27  C   UNL     1      43.432 -17.636   5.365  1.00  0.00     0.061 A 
HETATM   28  C   UNL     1      43.191 -17.830   6.818  1.00  0.00     0.073 C 
ENDBRANCH   1  21
TORSDOF 5
ENDMDL
MODEL 4
REMARK VINA RESULT:      -7.8      1.438      2.946
REMARK  5 active torsions:
REMARK  status: ('A' for Active; 'I' for Inactive)
REMARK    1  A    between atoms: C_8  and  C_9 
REMARK       I    between atoms: N_10  and  C_11 
REMARK       I    between atoms: C_11  and  N_12 
REMARK    2  A    between atoms: N_12  and  C_13 
REMARK    3  A    between atoms: C_15  and  O_16 
REMARK    4  A    between atoms: O_16  and  C_17 
REMARK    5  A    between atoms: C_17  and  C_18 
ROOT
HETATM    1  C   UNL     1      39.070 -12.859  -0.080  1.00  0.00     0.126 C 
HETATM    2  N   UNL     1      39.900 -13.106   1.094  1.00  0.00    -0.325 N 
HETATM    3  C   UNL     1      40.385 -14.378   1.365  1.00  0.00     0.323 C 
HETATM    4  N   UNL     1      41.364 -14.361   2.339  1.00  0.00    -0.309 N 
HETATM    5  O   UNL     1      40.007 -15.370   0.751  1.00  0.00    -0.247 OA
HETATM    6  C   UNL     1      39.641 -12.120   2.136  1.00  0.00     0.128 C 
HETATM    7  C   UNL     1      38.335 -11.464   1.718  1.00  0.00     0.022 C 
HETATM    8  C   UNL     1      38.414 -11.500   0.199  1.00  0.00     0.032 C 
HETATM    9  H   UNL     1      41.831 -13.472   2.427  1.00  0.00     0.170 HD
ENDROOT
BRANCH   4  10
HETATM   10  C   UNL     1      42.036 -15.476   2.870  1.00  0.00     0.039 A 
HETATM   11  C   UNL     1      41.705 -15.872   4.170  1.00  0.00     0.066 A 
HETATM   12  C   UNL     1      42.359 -16.945   4.782  1.00  0.00     0.071 A 
HETATM   13  C   UNL     1      43.297 -17.681   4.059  1.00  0.00     0.037 A 
HETATM   14  C   UNL     1      43.612 -17.308   2.751  1.00  0.00     0.005 A 
HETATM   15  C   UNL     1      42.994 -16.203   2.162  1.00  0.00     0.030 A 
BRANCH  12  16
HETATM   16  O   UNL     1      41.994 -17.175   6.080  1.00  0.00    -0.347 OA
BRANCH  16  17
HETATM   17  C   UNL     1      41.748 -16.019   6.884  1.00  0.00     0.208 C 
BRANCH  17  18
HETATM   18  C   UNL     1      43.074 -15.479   7.366  1.00  0.00    -0.069 C 
HETATM   19  C   UNL     1      44.008 -16.470   8.000  1.00  0.00     0.044 C 
HETATM   20  C   UNL     1      43.409 -14.185   7.231  1.00  0.00     0.016 C 
ENDBRANCH  17  18
ENDBRANCH  16  17
ENDBRANCH  12  16
ENDBRANCH   4  10
BRANCH   1  21
HETATM   21  C   UNL     1      39.875 -12.840  -1.347  1.00  0.00     0.014 A 
HETATM   22  C   UNL     1      40.880 -11.940  -1.669  1.00  0.00     0.034 A 
HETATM   23  C   UNL     1      41.435 -10.781  -0.935  1.00  0.00     0.070 C 
HETATM   24  N   UNL     1      41.332 -12.299  -2.906  1.00  0.00    -0.282 N 
HETATM   25  H   UNL     1      42.052 -11.852  -3.464  1.00  0.00     0.189 HD
HETATM   26  N   UNL     1      40.743 -13.392  -3.400  1.00  0.00    -0.179 NA
HETATM   27  C   UNL     1      39.837 -13.722  -2.472  1.00  0.00     0.061 A 
HETATM   28  C   UNL     1      38.962 -14.899  -2.712  1.00  0.00     0.073 C 
ENDBRANCH   1  21
TORSDOF 5
ENDMDL
MODEL 5
REMARK VINA RESULT:      -7.8      2.191      8.002
REMARK  5 active torsions:
REMARK  status: ('A' for Active; 'I' for Inactive)
REMARK    1  A    between atoms: C_8  and  C_9 
REMARK       I    between atoms: N_10  and  C_11 
REMARK       I    between atoms: C_11  and  N_12 
REMARK    2  A    between atoms: N_12  and  C_13 
REMARK    3  A    between atoms: C_15  and  O_16 
REMARK    4  A    between atoms: O_16  and  C_17 
REMARK    5  A    between atoms: C_17  and  C_18 
ROOT
HETATM    1  C   UNL     1      41.834 -16.041   3.669  1.00  0.00     0.126 C 
HETATM    2  N   UNL     1      41.913 -15.635   2.270  1.00  0.00    -0.325 N 
HETATM    3  C   UNL     1      40.780 -15.207   1.591  1.00  0.00     0.323 C 
HETATM    4  N   UNL     1      41.095 -14.607   0.388  1.00  0.00    -0.309 N 
HETATM    5  O   UNL     1      39.652 -15.314   2.061  1.00  0.00    -0.247 OA
HETATM    6  C   UNL     1      43.042 -16.270   1.603  1.00  0.00     0.128 C 
HETATM    7  C   UNL     1      43.452 -17.394   2.541  1.00  0.00     0.022 C 
HETATM    8  C   UNL     1      43.137 -16.816   3.912  1.00  0.00     0.032 C 
HETATM    9  H   UNL     1      42.032 -14.239   0.354  1.00  0.00     0.170 HD
ENDROOT
BRANCH   4  10
HETATM   10  C   UNL     1      40.186 -14.096  -0.556  1.00  0.00     0.039 A 
HETATM   11  C   UNL     1      40.067 -12.706  -0.651  1.00  0.00     0.066 A 
HETATM   12  C   UNL     1      39.156 -12.123  -1.536  1.00  0.00     0.071 A 
HETATM   13  C   UNL     1      38.413 -12.935  -2.392  1.00  0.00     0.037 A 
HETATM   14  C   UNL     1      38.547 -14.323  -2.321  1.00  0.00     0.005 A 
HETATM   15  C   UNL     1      39.421 -14.903  -1.399  1.00  0.00     0.030 A 
BRANCH  12  16
HETATM   16  O   UNL     1      39.086 -10.758  -1.472  1.00  0.00    -0.347 OA
BRANCH  16  17
HETATM   17  C   UNL     1      38.791 -10.198  -0.190  1.00  0.00     0.208 C 
BRANCH  17  18
HETATM   18  C   UNL     1      37.330 -10.434   0.111  1.00  0.00    -0.069 C 
HETATM   19  C   UNL     1      36.343  -9.821  -0.842  1.00  0.00     0.044 C 
HETATM   20  C   UNL     1      36.927 -11.159   1.169  1.00  0.00     0.016 C 
ENDBRANCH  17  18
ENDBRANCH  16  17
ENDBRANCH  12  16
ENDBRANCH   4  10
BRANCH   1  21
HETATM   21  C   UNL     1      41.704 -14.865   4.593  1.00  0.00     0.014 A 
HETATM   22  C   UNL     1      40.997 -14.833   5.786  1.00  0.00     0.034 A 
HETATM   23  C   UNL     1      40.187 -15.860   6.479  1.00  0.00     0.070 C 
HETATM   24  N   UNL     1      41.154 -13.573   6.289  1.00  0.00    -0.282 N 
HETATM   25  H   UNL     1      40.760 -13.184   7.139  1.00  0.00     0.189 HD
HETATM   26  N   UNL     1      41.949 -12.793   5.551  1.00  0.00    -0.179 NA
HETATM   27  C   UNL     1      42.276 -13.558   4.502  1.00  0.00     0.061 A 
HETATM   28  C   UNL     1      43.145 -12.987   3.442  1.00  0.00     0.073 C 
ENDBRANCH   1  21
TORSDOF 5
ENDMDL
MODEL 6
REMARK VINA RESULT:      -7.7      1.597      2.852
REMARK  5 active torsions:
REMARK  status: ('A' for Active; 'I' for Inactive)
REMARK    1  A    between atoms: C_8  and  C_9 
REMARK       I    between atoms: N_10  and  C_11 
REMARK       I    between atoms: C_11  and  N_12 
REMARK    2  A    between atoms: N_12  and  C_13 
REMARK    3  A    between atoms: C_15  and  O_16 
REMARK    4  A    between atoms: O_16  and  C_17 
REMARK    5  A    between atoms: C_17  and  C_18 
ROOT
HETATM    1  C   UNL     1      40.114 -12.214  -1.505  1.00  0.00     0.126 C 
HETATM    2  N   UNL     1      39.877 -13.435  -0.742  1.00  0.00    -0.325 N 
HETATM    3  C   UNL     1      40.728 -13.803   0.291  1.00  0.00     0.323 C 
HETATM    4  N   UNL     1      40.194 -14.814   1.065  1.00  0.00    -0.309 N 
HETATM    5  O   UNL     1      41.795 -13.234   0.497  1.00  0.00    -0.247 OA
HETATM    6  C   UNL     1      39.120 -14.403  -1.525  1.00  0.00     0.128 C 
HETATM    7  C   UNL     1      39.216 -13.892  -2.954  1.00  0.00     0.022 C 
HETATM    8  C   UNL     1      39.256 -12.382  -2.766  1.00  0.00     0.032 C 
HETATM    9  H   UNL     1      39.188 -14.867   1.022  1.00  0.00     0.170 HD
ENDROOT
BRANCH   4  10
HETATM   10  C   UNL     1      40.807 -15.439   2.166  1.00  0.00     0.039 A 
HETATM   11  C   UNL     1      41.938 -16.223   1.915  1.00  0.00     0.066 A 
HETATM   12  C   UNL     1      42.578 -16.910   2.951  1.00  0.00     0.071 A 
HETATM   13  C   UNL     1      42.133 -16.747   4.262  1.00  0.00     0.037 A 
HETATM   14  C   UNL     1      41.021 -15.944   4.522  1.00  0.00     0.005 A 
HETATM   15  C   UNL     1      40.353 -15.302   3.477  1.00  0.00     0.030 A 
BRANCH  12  16
HETATM   16  O   UNL     1      43.622 -17.701   2.556  1.00  0.00    -0.347 OA
BRANCH  16  17
HETATM   17  C   UNL     1      44.167 -18.573   3.548  1.00  0.00     0.208 C 
BRANCH  17  18
HETATM   18  C   UNL     1      43.820 -19.996   3.177  1.00  0.00    -0.069 C 
HETATM   19  C   UNL     1      43.801 -20.994   4.300  1.00  0.00     0.044 C 
HETATM   20  C   UNL     1      43.535 -20.355   1.913  1.00  0.00     0.016 C 
ENDBRANCH  17  18
ENDBRANCH  16  17
ENDBRANCH  12  16
ENDBRANCH   4  10
BRANCH   1  21
HETATM   21  C   UNL     1      39.737 -10.983  -0.734  1.00  0.00     0.014 A 
HETATM   22  C   UNL     1      40.532  -9.864  -0.533  1.00  0.00     0.034 A 
HETATM   23  C   UNL     1      41.913  -9.547  -0.963  1.00  0.00     0.070 C 
HETATM   24  N   UNL     1      39.790  -8.997   0.216  1.00  0.00    -0.282 N 
HETATM   25  H   UNL     1      40.058  -8.085   0.569  1.00  0.00     0.189 HD
HETATM   26  N   UNL     1      38.554  -9.433   0.478  1.00  0.00    -0.179 NA
HETATM   27  C   UNL     1      38.512 -10.651  -0.075  1.00  0.00     0.061 A 
HETATM   28  C   UNL     1      37.269 -11.454   0.053  1.00  0.00     0.073 C 
ENDBRANCH   1  21
TORSDOF 5
ENDMDL
MODEL 7
REMARK VINA RESULT:      -7.5      6.095      8.944
REMARK  5 active torsions:
REMARK  status: ('A' for Active; 'I' for Inactive)
REMARK    1  A    between atoms: C_8  and  C_9 
REMARK       I    between atoms: N_10  and  C_11 
REMARK       I    between atoms: C_11  and  N_12 
REMARK    2  A    between atoms: N_12  and  C_13 
REMARK    3  A    between atoms: C_15  and  O_16 
REMARK    4  A    between atoms: O_16  and  C_17 
REMARK    5  A    between atoms: C_17  and  C_18 
ROOT
HETATM    1  C   UNL     1      42.855 -14.600   4.395  1.00  0.00     0.126 C 
HETATM    2  N   UNL     1      43.352 -14.149   5.690  1.00  0.00    -0.325 N 
HETATM    3  C   UNL     1      43.828 -12.856   5.858  1.00  0.00     0.323 C 
HETATM    4  N   UNL     1      43.987 -12.532   7.191  1.00  0.00    -0.309 N 
HETATM    5  O   UNL     1      44.018 -12.098   4.912  1.00  0.00    -0.247 OA
HETATM    6  C   UNL     1      43.822 -15.274   6.490  1.00  0.00     0.128 C 
HETATM    7  C   UNL     1      43.953 -16.416   5.496  1.00  0.00     0.022 C 
HETATM    8  C   UNL     1      42.832 -16.130   4.508  1.00  0.00     0.032 C 
HETATM    9  H   UNL     1      43.414 -13.083   7.811  1.00  0.00     0.170 HD
ENDROOT
BRANCH   4  10
HETATM   10  C   UNL     1      44.480 -11.319   7.705  1.00  0.00     0.039 A 
HETATM   11  C   UNL     1      43.665 -10.620   8.602  1.00  0.00     0.066 A 
HETATM   12  C   UNL     1      44.067  -9.388   9.124  1.00  0.00     0.071 A 
HETATM   13  C   UNL     1      45.330  -8.887   8.810  1.00  0.00     0.037 A 
HETATM   14  C   UNL     1      46.159  -9.594   7.936  1.00  0.00     0.005 A 
HETATM   15  C   UNL     1      45.731 -10.799   7.376  1.00  0.00     0.030 A 
BRANCH  12  16
HETATM   16  O   UNL     1      43.144  -8.775   9.926  1.00  0.00    -0.347 OA
BRANCH  16  17
HETATM   17  C   UNL     1      43.633  -8.228  11.152  1.00  0.00     0.208 C 
BRANCH  17  18
HETATM   18  C   UNL     1      42.745  -8.708  12.277  1.00  0.00    -0.069 C 
HETATM   19  C   UNL     1      41.761  -9.790  11.937  1.00  0.00     0.044 C 
HETATM   20  C   UNL     1      42.832  -8.202  13.520  1.00  0.00     0.016 C 
ENDBRANCH  17  18
ENDBRANCH  16  17
ENDBRANCH  12  16
ENDBRANCH   4  10
BRANCH   1  21
HETATM   21  C   UNL     1      41.496 -14.042   4.086  1.00  0.00     0.014 A 
HETATM   22  C   UNL     1      40.417 -13.982   4.955  1.00  0.00     0.034 A 
HETATM   23  C   UNL     1      40.255 -14.429   6.357  1.00  0.00     0.070 C 
HETATM   24  N   UNL     1      39.397 -13.401   4.258  1.00  0.00    -0.282 N 
HETATM   25  H   UNL     1      38.450 -13.215   4.571  1.00  0.00     0.189 HD
HETATM   26  N   UNL     1      39.735 -13.027   3.020  1.00  0.00    -0.179 NA
HETATM   27  C   UNL     1      41.004 -13.430   2.892  1.00  0.00     0.061 A 
HETATM   28  C   UNL     1      41.703 -13.197   1.601  1.00  0.00     0.073 C 
ENDBRANCH   1  21
TORSDOF 5
ENDMDL
MODEL 8
REMARK VINA RESULT:      -7.3      1.813      3.244
REMARK  5 active torsions:
REMARK  status: ('A' for Active; 'I' for Inactive)
REMARK    1  A    between atoms: C_8  and  C_9 
REMARK       I    between atoms: N_10  and  C_11 
REMARK       I    between atoms: C_11  and  N_12 
REMARK    2  A    between atoms: N_12  and  C_13 
REMARK    3  A    between atoms: C_15  and  O_16 
REMARK    4  A    between atoms: O_16  and  C_17 
REMARK    5  A    between atoms: C_17  and  C_18 
ROOT
HETATM    1  C   UNL     1      40.407 -12.165  -1.646  1.00  0.00     0.126 C 
HETATM    2  N   UNL     1      40.042 -13.193  -0.677  1.00  0.00    -0.325 N 
HETATM    3  C   UNL     1      40.712 -13.296   0.534  1.00  0.00     0.323 C 
HETATM    4  N   UNL     1      40.055 -14.127   1.420  1.00  0.00    -0.309 N 
HETATM    5  O   UNL     1      41.735 -12.663   0.775  1.00  0.00    -0.247 OA
HETATM    6  C   UNL     1      39.417 -14.334  -1.334  1.00  0.00     0.128 C 
HETATM    7  C   UNL     1      39.747 -14.149  -2.807  1.00  0.00     0.022 C 
HETATM    8  C   UNL     1      39.764 -12.636  -2.958  1.00  0.00     0.032 C 
HETATM    9  H   UNL     1      39.069 -14.220   1.230  1.00  0.00     0.170 HD
ENDROOT
BRANCH   4  10
HETATM   10  C   UNL     1      40.478 -14.473   2.715  1.00  0.00     0.039 A 
HETATM   11  C   UNL     1      41.301 -15.596   2.847  1.00  0.00     0.066 A 
HETATM   12  C   UNL     1      41.729 -16.028   4.106  1.00  0.00     0.071 A 
HETATM   13  C   UNL     1      41.398 -15.283   5.237  1.00  0.00     0.037 A 
HETATM   14  C   UNL     1      40.599 -14.146   5.109  1.00  0.00     0.005 A 
HETATM   15  C   UNL     1      40.130 -13.748   3.855  1.00  0.00     0.030 A 
BRANCH  12  16
HETATM   16  O   UNL     1      42.463 -17.182   4.098  1.00  0.00    -0.347 OA
BRANCH  16  17
HETATM   17  C   UNL     1      42.964 -17.606   2.829  1.00  0.00     0.208 C 
BRANCH  17  18
HETATM   18  C   UNL     1      43.605 -18.964   2.997  1.00  0.00    -0.069 C 
HETATM   19  C   UNL     1      44.440 -19.162   4.230  1.00  0.00     0.044 C 
HETATM   20  C   UNL     1      43.434 -19.950   2.099  1.00  0.00     0.016 C 
ENDBRANCH  17  18
ENDBRANCH  16  17
ENDBRANCH  12  16
ENDBRANCH   4  10
BRANCH   1  21
HETATM   21  C   UNL     1      39.916 -10.806  -1.240  1.00  0.00     0.014 A 
HETATM   22  C   UNL     1      38.629 -10.485  -0.835  1.00  0.00     0.034 A 
HETATM   23  C   UNL     1      37.406 -11.308  -0.696  1.00  0.00     0.070 C 
HETATM   24  N   UNL     1      38.636  -9.147  -0.562  1.00  0.00    -0.282 N 
HETATM   25  H   UNL     1      37.863  -8.565  -0.259  1.00  0.00     0.189 HD
HETATM   26  N   UNL     1      39.836  -8.575  -0.704  1.00  0.00    -0.179 NA
HETATM   27  C   UNL     1      40.622  -9.567  -1.138  1.00  0.00     0.061 A 
HETATM   28  C   UNL     1      42.048  -9.274  -1.436  1.00  0.00     0.073 C 
ENDBRANCH   1  21
TORSDOF 5
ENDMDL
MODEL 9
REMARK VINA RESULT:      -7.0      2.708      8.024
REMARK  5 active torsions:
REMARK  status: ('A' for Active; 'I' for Inactive)
REMARK    1  A    between atoms: C_8  and  C_9 
REMARK       I    between atoms: N_10  and  C_11 
REMARK       I    between atoms: C_11  and  N_12 
REMARK    2  A    between atoms: N_12  and  C_13 
REMARK    3  A    between atoms: C_15  and  O_16 
REMARK    4  A    between atoms: O_16  and  C_17 
REMARK    5  A    between atoms: C_17  and  C_18 
ROOT
HETATM    1  C   UNL     1      42.762 -13.700   4.286  1.00  0.00     0.126 C 
HETATM    2  N   UNL     1      42.147 -13.008   3.159  1.00  0.00    -0.325 N 
HETATM    3  C   UNL     1      41.813 -13.697   2.000  1.00  0.00     0.323 C 
HETATM    4  N   UNL     1      41.000 -12.950   1.171  1.00  0.00    -0.309 N 
HETATM    5  O   UNL     1      42.169 -14.853   1.798  1.00  0.00    -0.247 OA
HETATM    6  C   UNL     1      42.486 -11.591   3.165  1.00  0.00     0.128 C 
HETATM    7  C   UNL     1      43.655 -11.486   4.132  1.00  0.00     0.022 C 
HETATM    8  C   UNL     1      43.344 -12.573   5.151  1.00  0.00     0.032 C 
HETATM    9  H   UNL     1      40.483 -12.231   1.654  1.00  0.00     0.170 HD
ENDROOT
BRANCH   4  10
HETATM   10  C   UNL     1      40.509 -13.336  -0.089  1.00  0.00     0.039 A 
HETATM   11  C   UNL     1      40.811 -12.513  -1.179  1.00  0.00     0.066 A 
HETATM   12  C   UNL     1      40.324 -12.806  -2.456  1.00  0.00     0.071 A 
HETATM   13  C   UNL     1      39.596 -13.977  -2.662  1.00  0.00     0.037 A 
HETATM   14  C   UNL     1      39.315 -14.817  -1.582  1.00  0.00     0.005 A 
HETATM   15  C   UNL     1      39.758 -14.492  -0.299  1.00  0.00     0.030 A 
BRANCH  12  16
HETATM   16  O   UNL     1      40.628 -11.878  -3.414  1.00  0.00    -0.347 OA
BRANCH  16  17
HETATM   17  C   UNL     1      40.968 -10.572  -2.945  1.00  0.00     0.208 C 
BRANCH  17  18
HETATM   18  C   UNL     1      40.243  -9.555  -3.797  1.00  0.00    -0.069 C 
HETATM   19  C   UNL     1      38.752  -9.706  -3.895  1.00  0.00     0.044 C 
HETATM   20  C   UNL     1      40.892  -8.562  -4.429  1.00  0.00     0.016 C 
ENDBRANCH  17  18
ENDBRANCH  16  17
ENDBRANCH  12  16
ENDBRANCH   4  10
BRANCH   1  21
HETATM   21  C   UNL     1      41.772 -14.532   5.048  1.00  0.00     0.014 A 
HETATM   22  C   UNL     1      40.613 -14.076   5.659  1.00  0.00     0.034 A 
HETATM   23  C   UNL     1      40.026 -12.721   5.769  1.00  0.00     0.070 C 
HETATM   24  N   UNL     1      40.023 -15.169   6.225  1.00  0.00    -0.282 N 
HETATM   25  H   UNL     1      39.170 -15.208   6.771  1.00  0.00     0.189 HD
HETATM   26  N   UNL     1      40.672 -16.313   5.990  1.00  0.00    -0.179 NA
HETATM   27  C   UNL     1      41.751 -15.940   5.293  1.00  0.00     0.061 A 
HETATM   28  C   UNL     1      42.732 -16.978   4.880  1.00  0.00     0.073 C 
ENDBRANCH   1  21
TORSDOF 5
ENDMDL
MODEL 10
REMARK VINA RESULT:      -7.0      5.598      7.826
REMARK  5 active torsions:
REMARK  status: ('A' for Active; 'I' for Inactive)
REMARK    1  A    between atoms: C_8  and  C_9 
REMARK       I    between atoms: N_10  and  C_11 
REMARK       I    between atoms: C_11  and  N_12 
REMARK    2  A    between atoms: N_12  and  C_13 
REMARK    3  A    between atoms: C_15  and  O_16 
REMARK    4  A    between atoms: O_16  and  C_17 
REMARK    5  A    between atoms: C_17  and  C_18 
ROOT
HETATM    1  C   UNL     1      42.245 -12.776   2.092  1.00  0.00     0.126 C 
HETATM    2  N   UNL     1      42.752 -13.073   3.427  1.00  0.00    -0.325 N 
HETATM    3  C   UNL     1      43.505 -12.138   4.125  1.00  0.00     0.323 C 
HETATM    4  N   UNL     1      43.652 -12.481   5.454  1.00  0.00    -0.309 N 
HETATM    5  O   UNL     1      43.923 -11.110   3.603  1.00  0.00    -0.247 OA
HETATM    6  C   UNL     1      42.897 -14.510   3.625  1.00  0.00     0.128 C 
HETATM    7  C   UNL     1      42.819 -15.094   2.224  1.00  0.00     0.022 C 
HETATM    8  C   UNL     1      41.859 -14.147   1.520  1.00  0.00     0.032 C 
HETATM    9  H   UNL     1      42.930 -13.097   5.795  1.00  0.00     0.170 HD
ENDROOT
BRANCH   4  10
HETATM   10  C   UNL     1      44.381 -11.773   6.426  1.00  0.00     0.039 A 
HETATM   11  C   UNL     1      43.722 -11.442   7.614  1.00  0.00     0.066 A 
HETATM   12  C   UNL     1      44.366 -10.703   8.610  1.00  0.00     0.071 A 
HETATM   13  C   UNL     1      45.708 -10.360   8.453  1.00  0.00     0.037 A 
HETATM   14  C   UNL     1      46.380 -10.712   7.280  1.00  0.00     0.005 A 
HETATM   15  C   UNL     1      45.717 -11.404   6.265  1.00  0.00     0.030 A 
BRANCH  12  16
HETATM   16  O   UNL     1      43.582 -10.381   9.684  1.00  0.00    -0.347 OA
BRANCH  16  17
HETATM   17  C   UNL     1      43.953  -9.209  10.411  1.00  0.00     0.208 C 
BRANCH  17  18
HETATM   18  C   UNL     1      43.410  -9.325  11.816  1.00  0.00    -0.069 C 
HETATM   19  C   UNL     1      43.386  -8.062  12.630  1.00  0.00     0.044 C 
HETATM   20  C   UNL     1      42.964 -10.490  12.315  1.00  0.00     0.016 C 
ENDBRANCH  17  18
ENDBRANCH  16  17
ENDBRANCH  12  16
ENDBRANCH   4  10
BRANCH   1  21
HETATM   21  C   UNL     1      41.074 -11.837   2.129  1.00  0.00     0.014 A 
HETATM   22  C   UNL     1      39.983 -11.917   2.981  1.00  0.00     0.034 A 
HETATM   23  C   UNL     1      39.631 -12.889   4.041  1.00  0.00     0.070 C 
HETATM   24  N   UNL     1      39.173 -10.865   2.666  1.00  0.00    -0.282 N 
HETATM   25  H   UNL     1      38.276 -10.620   3.072  1.00  0.00     0.189 HD
HETATM   26  N   UNL     1      39.669 -10.070   1.712  1.00  0.00    -0.179 NA
HETATM   27  C   UNL     1      40.816 -10.660   1.359  1.00  0.00     0.061 A 
HETATM   28  C   UNL     1      41.633 -10.050   0.278  1.00  0.00     0.073 C 
ENDBRANCH   1  21
TORSDOF 5
ENDMDL
