MODEL 1
REMARK VINA RESULT:      -9.0      0.000      0.000
REMARK  8 active torsions:
REMARK  status: ('A' for Active; 'I' for Inactive)
REMARK    1  A    between atoms: O_2  and  C_3 
REMARK    2  A    between atoms: C_5  and  O_6 
REMARK    3  A    between atoms: C_8  and  C_9 
REMARK    4  A    between atoms: N_10  and  C_12 
REMARK    5  A    between atoms: C_12  and  C_13 
REMARK       I    between atoms: C_13  and  N_14 
REMARK    6  A    between atoms: N_14  and  C_15 
REMARK    7  A    between atoms: C_16  and  C_17 
REMARK    8  A    between atoms: C_17  and  C_18 
ROOT
HETATM    1  C   UNL     1      41.089 -12.515   5.691  1.00  0.00     0.338 C 
ENDROOT
BRANCH   1   2
HETATM    2  N   UNL     1      41.335 -13.324   4.421  1.00  0.00    -0.054 N 
HETATM    3  C   UNL     1      42.818 -13.698   4.196  1.00  0.00     0.224 C 
HETATM    4  C   UNL     1      43.218 -12.793   3.028  1.00  0.00     0.040 C 
HETATM    5  C   UNL     1      41.973 -12.743   2.168  1.00  0.00     0.030 C 
HETATM    6  C   UNL     1      40.856 -12.598   3.179  1.00  0.00     0.236 C 
HETATM    7  H   UNL     1      40.821 -14.198   4.534  1.00  0.00     0.281 HD
BRANCH   3   8
HETATM    8  C   UNL     1      43.066 -15.171   3.891  1.00  0.00     0.006 A 
HETATM    9  C   UNL     1      43.212 -16.063   4.976  1.00  0.00     0.079 A 
HETATM   10  C   UNL     1      43.422 -17.427   4.747  1.00  0.00     0.074 A 
HETATM   11  C   UNL     1      43.522 -17.930   3.449  1.00  0.00     0.070 A 
HETATM   12  C   UNL     1      43.431 -17.055   2.373  1.00  0.00     0.037 A 
HETATM   13  C   UNL     1      43.214 -15.688   2.589  1.00  0.00     0.015 A 
BRANCH   9  14
HETATM   14  O   UNL     1      43.136 -15.495   6.222  1.00  0.00    -0.355 OA
HETATM   15  C   UNL     1      42.109 -15.981   7.087  1.00  0.00     0.210 C 
ENDBRANCH   9  14
BRANCH  11  16
HETATM   16  O   UNL     1      43.728 -19.278   3.374  1.00  0.00    -0.356 OA
HETATM   17  C   UNL     1      43.344 -19.933   2.170  1.00  0.00     0.210 C 
ENDBRANCH  11  16
ENDBRANCH   3   8
ENDBRANCH   1   2
BRANCH   1  18
HETATM   18  C   UNL     1      42.162 -11.457   5.957  1.00  0.00     0.248 C 
HETATM   19  N   UNL     1      42.959 -11.736   7.060  1.00  0.00    -0.325 N 
HETATM   20  H   UNL     1      43.082 -12.707   7.313  1.00  0.00     0.169 HD
HETATM   21  O   UNL     1      42.304 -10.516   5.184  1.00  0.00    -0.271 OA
BRANCH  19  22
HETATM   22  C   UNL     1      44.022 -10.893   7.461  1.00  0.00     0.041 A 
HETATM   23  C   UNL     1      43.853  -9.685   8.162  1.00  0.00    -0.027 A 
HETATM   24  C   UNL     1      44.999  -8.911   8.444  1.00  0.00     0.010 A 
HETATM   25  C   UNL     1      46.275  -9.342   8.083  1.00  0.00     0.001 A 
HETATM   26  C   UNL     1      46.435 -10.569   7.453  1.00  0.00     0.002 A 
HETATM   27  C   UNL     1      45.317 -11.346   7.155  1.00  0.00     0.030 A 
BRANCH  23  28
HETATM   28  C   UNL     1      42.548  -9.235   8.792  1.00  0.00     0.079 C 
BRANCH  28  29
HETATM   29  C   UNL     1      42.672  -8.976  10.282  1.00  0.00    -0.054 A 
HETATM   30  C   UNL     1      42.793 -10.044  11.184  1.00  0.00     0.007 A 
HETATM   31  C   UNL     1      42.876  -9.806  12.557  1.00  0.00     0.001 A 
HETATM   32  C   UNL     1      42.840  -8.502  13.045  1.00  0.00     0.000 A 
HETATM   33  C   UNL     1      42.720  -7.433  12.161  1.00  0.00     0.001 A 
HETATM   34  C   UNL     1      42.634  -7.668  10.787  1.00  0.00     0.007 A 
ENDBRANCH  28  29
ENDBRANCH  23  28
ENDBRANCH  19  22
ENDBRANCH   1  18
TORSDOF 8
ENDMDL
MODEL 2
REMARK VINA RESULT:      -8.5      3.893      8.404
REMARK  8 active torsions:
REMARK  status: ('A' for Active; 'I' for Inactive)
REMARK    1  A    between atoms: O_2  and  C_3 
REMARK    2  A    between atoms: C_5  and  O_6 
REMARK    3  A    between atoms: C_8  and  C_9 
REMARK    4  A    between atoms: N_10  and  C_12 
REMARK    5  A    between atoms: C_12  and  C_13 
REMARK       I    between atoms: C_13  and  N_14 
REMARK    6  A    between atoms: N_14  and  C_15 
REMARK    7  A    between atoms: C_16  and  C_17 
REMARK    8  A    between atoms: C_17  and  C_18 
ROOT
HETATM    1  C   UNL     1      41.671 -12.422   4.329  1.00  0.00     0.338 C 
ENDROOT
BRANCH   1   2
HETATM    2  N   UNL     1      42.651 -13.482   4.822  1.00  0.00    -0.054 N 
HETATM    3  C   UNL     1      41.978 -14.809   5.241  1.00  0.00     0.224 C 
HETATM    4  C   UNL     1      42.106 -14.782   6.766  1.00  0.00     0.040 C 
HETATM    5  C   UNL     1      43.452 -14.131   7.003  1.00  0.00     0.030 C 
HETATM    6  C   UNL     1      43.473 -12.998   6.000  1.00  0.00     0.236 C 
HETATM    7  H   UNL     1      43.264 -13.696   4.033  1.00  0.00     0.281 HD
BRANCH   3   8
HETATM    8  C   UNL     1      42.600 -16.062   4.635  1.00  0.00     0.006 A 
HETATM    9  C   UNL     1      42.371 -16.328   3.267  1.00  0.00     0.079 A 
HETATM   10  C   UNL     1      42.937 -17.455   2.661  1.00  0.00     0.074 A 
HETATM   11  C   UNL     1      43.712 -18.352   3.397  1.00  0.00     0.070 A 
HETATM   12  C   UNL     1      43.904 -18.130   4.755  1.00  0.00     0.037 A 
HETATM   13  C   UNL     1      43.347 -17.002   5.372  1.00  0.00     0.015 A 
BRANCH   9  14
HETATM   14  O   UNL     1      41.574 -15.422   2.614  1.00  0.00    -0.355 OA
HETATM   15  C   UNL     1      40.360 -15.921   2.053  1.00  0.00     0.210 C 
ENDBRANCH   9  14
BRANCH  11  16
HETATM   16  O   UNL     1      44.200 -19.406   2.679  1.00  0.00    -0.356 OA
HETATM   17  C   UNL     1      43.265 -20.188   1.945  1.00  0.00     0.210 C 
ENDBRANCH  11  16
ENDBRANCH   3   8
ENDBRANCH   1   2
BRANCH   1  18
HETATM   18  C   UNL     1      42.069 -11.800   2.990  1.00  0.00     0.248 C 
HETATM   19  N   UNL     1      41.009 -11.657   2.104  1.00  0.00    -0.325 N 
HETATM   20  H   UNL     1      40.084 -11.548   2.497  1.00  0.00     0.169 HD
HETATM   21  O   UNL     1      43.218 -11.413   2.807  1.00  0.00    -0.271 OA
BRANCH  19  22
HETATM   22  C   UNL     1      41.164 -11.083   0.820  1.00  0.00     0.041 A 
HETATM   23  C   UNL     1      41.134 -11.813  -0.383  1.00  0.00    -0.027 A 
HETATM   24  C   UNL     1      41.366 -11.120  -1.590  1.00  0.00     0.010 A 
HETATM   25  C   UNL     1      41.576  -9.742  -1.609  1.00  0.00     0.001 A 
HETATM   26  C   UNL     1      41.535  -9.022  -0.423  1.00  0.00     0.002 A 
HETATM   27  C   UNL     1      41.318  -9.686   0.784  1.00  0.00     0.030 A 
BRANCH  23  28
HETATM   28  C   UNL     1      40.697 -13.261  -0.495  1.00  0.00     0.079 C 
BRANCH  28  29
HETATM   29  C   UNL     1      39.510 -13.448  -1.421  1.00  0.00    -0.054 A 
HETATM   30  C   UNL     1      39.563 -14.378  -2.470  1.00  0.00     0.007 A 
HETATM   31  C   UNL     1      38.481 -14.528  -3.340  1.00  0.00     0.001 A 
HETATM   32  C   UNL     1      37.335 -13.752  -3.172  1.00  0.00     0.000 A 
HETATM   33  C   UNL     1      37.270 -12.826  -2.135  1.00  0.00     0.001 A 
HETATM   34  C   UNL     1      38.351 -12.673  -1.264  1.00  0.00     0.007 A 
ENDBRANCH  28  29
ENDBRANCH  23  28
ENDBRANCH  19  22
ENDBRANCH   1  18
TORSDOF 8
ENDMDL
MODEL 3
REMARK VINA RESULT:      -8.5      3.932      8.008
REMARK  8 active torsions:
REMARK  status: ('A' for Active; 'I' for Inactive)
REMARK    1  A    between atoms: O_2  and  C_3 
REMARK    2  A    between atoms: C_5  and  O_6 
REMARK    3  A    between atoms: C_8  and  C_9 
REMARK    4  A    between atoms: N_10  and  C_12 
REMARK    5  A    between atoms: C_12  and  C_13 
REMARK       I    between atoms: C_13  and  N_14 
REMARK    6  A    between atoms: N_14  and  C_15 
REMARK    7  A    between atoms: C_16  and  C_17 
REMARK    8  A    between atoms: C_17  and  C_18 
ROOT
HETATM    1  C   UNL     1      39.850 -14.281   1.071  1.00  0.00     0.338 C 
ENDROOT
BRANCH   1   2
HETATM    2  N   UNL     1      39.997 -13.684  -0.325  1.00  0.00    -0.054 N 
HETATM    3  C   UNL     1      39.190 -12.384  -0.537  1.00  0.00     0.224 C 
HETATM    4  C   UNL     1      38.056 -12.840  -1.459  1.00  0.00     0.040 C 
HETATM    5  C   UNL     1      38.715 -13.862  -2.361  1.00  0.00     0.030 C 
HETATM    6  C   UNL     1      39.582 -14.658  -1.410  1.00  0.00     0.236 C 
HETATM    7  H   UNL     1      40.983 -13.443  -0.431  1.00  0.00     0.281 HD
BRANCH   3   8
HETATM    8  C   UNL     1      39.984 -11.227  -1.134  1.00  0.00     0.006 A 
HETATM    9  C   UNL     1      41.086 -10.727  -0.405  1.00  0.00     0.079 A 
HETATM   10  C   UNL     1      41.857  -9.680  -0.920  1.00  0.00     0.074 A 
HETATM   11  C   UNL     1      41.541  -9.089  -2.144  1.00  0.00     0.070 A 
HETATM   12  C   UNL     1      40.429  -9.537  -2.847  1.00  0.00     0.037 A 
HETATM   13  C   UNL     1      39.652 -10.590  -2.345  1.00  0.00     0.015 A 
BRANCH   9  14
HETATM   14  O   UNL     1      41.320 -11.333   0.803  1.00  0.00    -0.355 OA
HETATM   15  C   UNL     1      41.668 -10.479   1.893  1.00  0.00     0.210 C 
ENDBRANCH   9  14
BRANCH  11  16
HETATM   16  O   UNL     1      42.377  -8.079  -2.523  1.00  0.00    -0.356 OA
HETATM   17  C   UNL     1      43.175  -7.474  -1.512  1.00  0.00     0.210 C 
ENDBRANCH  11  16
ENDBRANCH   3   8
ENDBRANCH   1   2
BRANCH   1  18
HETATM   18  C   UNL     1      41.152 -14.859   1.627  1.00  0.00     0.248 C 
HETATM   19  N   UNL     1      40.962 -15.913   2.512  1.00  0.00    -0.325 N 
HETATM   20  H   UNL     1      40.127 -16.471   2.401  1.00  0.00     0.169 HD
HETATM   21  O   UNL     1      42.233 -14.440   1.227  1.00  0.00    -0.271 OA
BRANCH  19  22
HETATM   22  C   UNL     1      42.041 -16.599   3.119  1.00  0.00     0.041 A 
HETATM   23  C   UNL     1      42.616 -16.236   4.351  1.00  0.00    -0.027 A 
HETATM   24  C   UNL     1      43.730 -16.972   4.809  1.00  0.00     0.010 A 
HETATM   25  C   UNL     1      44.229 -18.059   4.093  1.00  0.00     0.001 A 
HETATM   26  C   UNL     1      43.610 -18.449   2.914  1.00  0.00     0.002 A 
HETATM   27  C   UNL     1      42.514 -17.732   2.435  1.00  0.00     0.030 A 
BRANCH  23  28
HETATM   28  C   UNL     1      42.020 -15.223   5.311  1.00  0.00     0.079 C 
BRANCH  28  29
HETATM   29  C   UNL     1      42.876 -13.980   5.461  1.00  0.00    -0.054 A 
HETATM   30  C   UNL     1      43.547 -13.717   6.665  1.00  0.00     0.007 A 
HETATM   31  C   UNL     1      44.311 -12.557   6.813  1.00  0.00     0.001 A 
HETATM   32  C   UNL     1      44.412 -11.648   5.762  1.00  0.00     0.000 A 
HETATM   33  C   UNL     1      43.751 -11.897   4.562  1.00  0.00     0.001 A 
HETATM   34  C   UNL     1      42.985 -13.055   4.412  1.00  0.00     0.007 A 
ENDBRANCH  28  29
ENDBRANCH  23  28
ENDBRANCH  19  22
ENDBRANCH   1  18
TORSDOF 8
ENDMDL
MODEL 4
REMARK VINA RESULT:      -8.5      4.884      8.164
REMARK  8 active torsions:
REMARK  status: ('A' for Active; 'I' for Inactive)
REMARK    1  A    between atoms: O_2  and  C_3 
REMARK    2  A    between atoms: C_5  and  O_6 
REMARK    3  A    between atoms: C_8  and  C_9 
REMARK    4  A    between atoms: N_10  and  C_12 
REMARK    5  A    between atoms: C_12  and  C_13 
REMARK       I    between atoms: C_13  and  N_14 
REMARK    6  A    between atoms: N_14  and  C_15 
REMARK    7  A    between atoms: C_16  and  C_17 
REMARK    8  A    between atoms: C_17  and  C_18 
ROOT
HETATM    1  C   UNL     1      41.054 -13.263   3.955  1.00  0.00     0.338 C 
ENDROOT
BRANCH   1   2
HETATM    2  N   UNL     1      41.026 -14.711   3.474  1.00  0.00    -0.054 N 
HETATM    3  C   UNL     1      42.291 -15.134   2.694  1.00  0.00     0.224 C 
HETATM    4  C   UNL     1      41.779 -15.233   1.254  1.00  0.00     0.040 C 
HETATM    5  C   UNL     1      40.373 -15.772   1.409  1.00  0.00     0.030 C 
HETATM    6  C   UNL     1      39.829 -14.997   2.589  1.00  0.00     0.236 C 
HETATM    7  H   UNL     1      40.986 -15.291   4.313  1.00  0.00     0.281 HD
BRANCH   3   8
HETATM    8  C   UNL     1      42.929 -16.436   3.165  1.00  0.00     0.006 A 
HETATM    9  C   UNL     1      43.490 -16.475   4.461  1.00  0.00     0.079 A 
HETATM   10  C   UNL     1      44.068 -17.652   4.946  1.00  0.00     0.074 A 
HETATM   11  C   UNL     1      44.131 -18.800   4.155  1.00  0.00     0.070 A 
HETATM   12  C   UNL     1      43.628 -18.761   2.860  1.00  0.00     0.037 A 
HETATM   13  C   UNL     1      43.040 -17.590   2.365  1.00  0.00     0.015 A 
BRANCH   9  14
HETATM   14  O   UNL     1      43.422 -15.302   5.169  1.00  0.00    -0.355 OA
HETATM   15  C   UNL     1      43.031 -15.400   6.539  1.00  0.00     0.210 C 
ENDBRANCH   9  14
BRANCH  11  16
HETATM   16  O   UNL     1      44.722 -19.875   4.756  1.00  0.00    -0.356 OA
HETATM   17  C   UNL     1      43.868 -20.888   5.273  1.00  0.00     0.210 C 
ENDBRANCH  11  16
ENDBRANCH   3   8
ENDBRANCH   1   2
BRANCH   1  18
HETATM   18  C   UNL     1      41.480 -12.270   2.873  1.00  0.00     0.248 C 
HETATM   19  N   UNL     1      40.424 -11.788   2.110  1.00  0.00    -0.325 N 
HETATM   20  H   UNL     1      39.511 -11.757   2.544  1.00  0.00     0.169 HD
HETATM   21  O   UNL     1      42.650 -11.912   2.791  1.00  0.00    -0.271 OA
BRANCH  19  22
HETATM   22  C   UNL     1      40.605 -10.843   1.073  1.00  0.00     0.041 A 
HETATM   23  C   UNL     1      41.012 -11.171  -0.234  1.00  0.00    -0.027 A 
HETATM   24  C   UNL     1      41.215 -10.119  -1.153  1.00  0.00     0.010 A 
HETATM   25  C   UNL     1      40.978  -8.791  -0.802  1.00  0.00     0.001 A 
HETATM   26  C   UNL     1      40.511  -8.487   0.469  1.00  0.00     0.002 A 
HETATM   27  C   UNL     1      40.313  -9.507   1.398  1.00  0.00     0.030 A 
BRANCH  23  28
HETATM   28  C   UNL     1      41.081 -12.584  -0.781  1.00  0.00     0.079 C 
BRANCH  28  29
HETATM   29  C   UNL     1      39.820 -12.993  -1.519  1.00  0.00    -0.054 A 
HETATM   30  C   UNL     1      39.850 -14.030  -2.463  1.00  0.00     0.007 A 
HETATM   31  C   UNL     1      38.695 -14.386  -3.163  1.00  0.00     0.001 A 
HETATM   32  C   UNL     1      37.500 -13.709  -2.930  1.00  0.00     0.000 A 
HETATM   33  C   UNL     1      37.457 -12.677  -1.996  1.00  0.00     0.001 A 
HETATM   34  C   UNL     1      38.610 -12.319  -1.296  1.00  0.00     0.007 A 
ENDBRANCH  28  29
ENDBRANCH  23  28
ENDBRANCH  19  22
ENDBRANCH   1  18
TORSDOF 8
ENDMDL
MODEL 5
REMARK VINA RESULT:      -8.4      2.293      3.763
REMARK  8 active torsions:
REMARK  status: ('A' for Active; 'I' for Inactive)
REMARK    1  A    between atoms: O_2  and  C_3 
REMARK    2  A    between atoms: C_5  and  O_6 
REMARK    3  A    between atoms: C_8  and  C_9 
REMARK    4  A    between atoms: N_10  and  C_12 
REMARK    5  A    between atoms: C_12  and  C_13 
REMARK       I    between atoms: C_13  and  N_14 
REMARK    6  A    between atoms: N_14  and  C_15 
REMARK    7  A    between atoms: C_16  and  C_17 
REMARK    8  A    between atoms: C_17  and  C_18 
ROOT
HETATM    1  C   UNL     1      41.343 -12.503   5.661  1.00  0.00     0.338 C 
ENDROOT
BRANCH   1   2
HETATM    2  N   UNL     1      41.656 -13.446   4.503  1.00  0.00    -0.054 N 
HETATM    3  C   UNL     1      40.438 -14.264   4.017  1.00  0.00     0.224 C 
HETATM    4  C   UNL     1      40.760 -15.674   4.519  1.00  0.00     0.040 C 
HETATM    5  C   UNL     1      42.262 -15.777   4.364  1.00  0.00     0.030 C 
HETATM    6  C   UNL     1      42.756 -14.431   4.848  1.00  0.00     0.236 C 
HETATM    7  H   UNL     1      41.949 -12.855   3.723  1.00  0.00     0.281 HD
BRANCH   3   8
HETATM    8  C   UNL     1      40.206 -14.231   2.510  1.00  0.00     0.006 A 
HETATM    9  C   UNL     1      40.043 -12.974   1.886  1.00  0.00     0.079 A 
HETATM   10  C   UNL     1      39.847 -12.891   0.504  1.00  0.00     0.074 A 
HETATM   11  C   UNL     1      39.777 -14.042  -0.282  1.00  0.00     0.070 A 
HETATM   12  C   UNL     1      39.884 -15.287   0.326  1.00  0.00     0.037 A 
HETATM   13  C   UNL     1      40.088 -15.383   1.709  1.00  0.00     0.015 A 
BRANCH   9  14
HETATM   14  O   UNL     1      40.090 -11.888   2.724  1.00  0.00    -0.355 OA
HETATM   15  C   UNL     1      40.213 -10.606   2.107  1.00  0.00     0.210 C 
ENDBRANCH   9  14
BRANCH  11  16
HETATM   16  O   UNL     1      39.582 -13.813  -1.613  1.00  0.00    -0.356 OA
HETATM   17  C   UNL     1      40.495 -12.939  -2.268  1.00  0.00     0.210 C 
ENDBRANCH  11  16
ENDBRANCH   3   8
ENDBRANCH   1   2
BRANCH   1  18
HETATM   18  C   UNL     1      42.436 -11.463   5.912  1.00  0.00     0.248 C 
HETATM   19  N   UNL     1      43.047 -11.584   7.153  1.00  0.00    -0.325 N 
HETATM   20  H   UNL     1      43.067 -12.502   7.577  1.00  0.00     0.169 HD
HETATM   21  O   UNL     1      42.751 -10.674   5.027  1.00  0.00    -0.271 OA
BRANCH  19  22
HETATM   22  C   UNL     1      44.097 -10.731   7.569  1.00  0.00     0.041 A 
HETATM   23  C   UNL     1      43.907  -9.521   8.262  1.00  0.00    -0.027 A 
HETATM   24  C   UNL     1      45.042  -8.737   8.560  1.00  0.00     0.010 A 
HETATM   25  C   UNL     1      46.327  -9.160   8.223  1.00  0.00     0.001 A 
HETATM   26  C   UNL     1      46.507 -10.388   7.602  1.00  0.00     0.002 A 
HETATM   27  C   UNL     1      45.401 -11.176   7.287  1.00  0.00     0.030 A 
BRANCH  23  28
HETATM   28  C   UNL     1      42.588  -9.078   8.867  1.00  0.00     0.079 C 
BRANCH  28  29
HETATM   29  C   UNL     1      42.657  -8.913  10.374  1.00  0.00    -0.054 A 
HETATM   30  C   UNL     1      42.761 -10.035  11.210  1.00  0.00     0.007 A 
HETATM   31  C   UNL     1      42.794  -9.884  12.598  1.00  0.00     0.001 A 
HETATM   32  C   UNL     1      42.724  -8.614  13.166  1.00  0.00     0.000 A 
HETATM   33  C   UNL     1      42.621  -7.492  12.347  1.00  0.00     0.001 A 
HETATM   34  C   UNL     1      42.586  -7.640  10.959  1.00  0.00     0.007 A 
ENDBRANCH  28  29
ENDBRANCH  23  28
ENDBRANCH  19  22
ENDBRANCH   1  18
TORSDOF 8
ENDMDL
MODEL 6
REMARK VINA RESULT:      -8.4      4.098      8.107
REMARK  8 active torsions:
REMARK  status: ('A' for Active; 'I' for Inactive)
REMARK    1  A    between atoms: O_2  and  C_3 
REMARK    2  A    between atoms: C_5  and  O_6 
REMARK    3  A    between atoms: C_8  and  C_9 
REMARK    4  A    between atoms: N_10  and  C_12 
REMARK    5  A    between atoms: C_12  and  C_13 
REMARK       I    between atoms: C_13  and  N_14 
REMARK    6  A    between atoms: N_14  and  C_15 
REMARK    7  A    between atoms: C_16  and  C_17 
REMARK    8  A    between atoms: C_17  and  C_18 
ROOT
HETATM    1  C   UNL     1      39.143 -13.495   2.415  1.00  0.00     0.338 C 
ENDROOT
BRANCH   1   2
HETATM    2  N   UNL     1      39.947 -13.317   1.131  1.00  0.00    -0.054 N 
HETATM    3  C   UNL     1      39.356 -12.266   0.164  1.00  0.00     0.224 C 
HETATM    4  C   UNL     1      38.795 -13.131  -0.968  1.00  0.00     0.040 C 
HETATM    5  C   UNL     1      39.792 -14.265  -1.082  1.00  0.00     0.030 C 
HETATM    6  C   UNL     1      40.089 -14.615   0.360  1.00  0.00     0.236 C 
HETATM    7  H   UNL     1      40.868 -12.977   1.414  1.00  0.00     0.281 HD
BRANCH   3   8
HETATM    8  C   UNL     1      40.354 -11.232  -0.345  1.00  0.00     0.006 A 
HETATM    9  C   UNL     1      40.810 -10.243   0.555  1.00  0.00     0.079 A 
HETATM   10  C   UNL     1      41.741  -9.285   0.141  1.00  0.00     0.074 A 
HETATM   11  C   UNL     1      42.214  -9.264  -1.172  1.00  0.00     0.070 A 
HETATM   12  C   UNL     1      41.736 -10.200  -2.082  1.00  0.00     0.037 A 
HETATM   13  C   UNL     1      40.809 -11.169  -1.677  1.00  0.00     0.015 A 
BRANCH   9  14
HETATM   14  O   UNL     1      40.279 -10.304   1.818  1.00  0.00    -0.355 OA
HETATM   15  C   UNL     1      41.076  -9.773   2.877  1.00  0.00     0.210 C 
ENDBRANCH   9  14
BRANCH  11  16
HETATM   16  O   UNL     1      43.117  -8.275  -1.437  1.00  0.00    -0.356 OA
HETATM   17  C   UNL     1      42.812  -6.967  -0.969  1.00  0.00     0.210 C 
ENDBRANCH  11  16
ENDBRANCH   3   8
ENDBRANCH   1   2
BRANCH   1  18
HETATM   18  C   UNL     1      39.973 -13.305   3.685  1.00  0.00     0.248 C 
HETATM   19  N   UNL     1      41.287 -13.739   3.562  1.00  0.00    -0.325 N 
HETATM   20  H   UNL     1      41.699 -13.724   2.639  1.00  0.00     0.169 HD
HETATM   21  O   UNL     1      39.488 -12.742   4.660  1.00  0.00    -0.271 OA
BRANCH  19  22
HETATM   22  C   UNL     1      42.224 -13.630   4.618  1.00  0.00     0.041 A 
HETATM   23  C   UNL     1      42.437 -14.623   5.592  1.00  0.00    -0.027 A 
HETATM   24  C   UNL     1      43.360 -14.355   6.627  1.00  0.00     0.010 A 
HETATM   25  C   UNL     1      44.081 -13.164   6.667  1.00  0.00     0.001 A 
HETATM   26  C   UNL     1      43.914 -12.222   5.661  1.00  0.00     0.002 A 
HETATM   27  C   UNL     1      43.000 -12.458   4.635  1.00  0.00     0.030 A 
BRANCH  23  28
HETATM   28  C   UNL     1      41.877 -16.031   5.519  1.00  0.00     0.079 C 
BRANCH  28  29
HETATM   29  C   UNL     1      42.697 -16.946   4.629  1.00  0.00    -0.054 A 
HETATM   30  C   UNL     1      42.414 -17.050   3.259  1.00  0.00     0.007 A 
HETATM   31  C   UNL     1      43.150 -17.915   2.447  1.00  0.00     0.001 A 
HETATM   32  C   UNL     1      44.175 -18.685   2.992  1.00  0.00     0.000 A 
HETATM   33  C   UNL     1      44.466 -18.591   4.351  1.00  0.00     0.001 A 
HETATM   34  C   UNL     1      43.730 -17.728   5.166  1.00  0.00     0.007 A 
ENDBRANCH  28  29
ENDBRANCH  23  28
ENDBRANCH  19  22
ENDBRANCH   1  18
TORSDOF 8
ENDMDL
MODEL 7
REMARK VINA RESULT:      -8.2      2.204      9.030
REMARK  8 active torsions:
REMARK  status: ('A' for Active; 'I' for Inactive)
REMARK    1  A    between atoms: O_2  and  C_3 
REMARK    2  A    between atoms: C_5  and  O_6 
REMARK    3  A    between atoms: C_8  and  C_9 
REMARK    4  A    between atoms: N_10  and  C_12 
REMARK    5  A    between atoms: C_12  and  C_13 
REMARK       I    between atoms: C_13  and  N_14 
REMARK    6  A    between atoms: N_14  and  C_15 
REMARK    7  A    between atoms: C_16  and  C_17 
REMARK    8  A    between atoms: C_17  and  C_18 
ROOT
HETATM    1  C   UNL     1      41.103 -11.219   5.418  1.00  0.00     0.338 C 
ENDROOT
BRANCH   1   2
HETATM    2  N   UNL     1      42.076 -11.641   6.515  1.00  0.00    -0.054 N 
HETATM    3  C   UNL     1      43.295 -10.702   6.664  1.00  0.00     0.224 C 
HETATM    4  C   UNL     1      44.440 -11.547   6.098  1.00  0.00     0.040 C 
HETATM    5  C   UNL     1      44.099 -12.955   6.539  1.00  0.00     0.030 C 
HETATM    6  C   UNL     1      42.607 -13.045   6.300  1.00  0.00     0.236 C 
HETATM    7  H   UNL     1      41.556 -11.596   7.393  1.00  0.00     0.281 HD
BRANCH   3   8
HETATM    8  C   UNL     1      43.575 -10.239   8.090  1.00  0.00     0.006 A 
HETATM    9  C   UNL     1      42.546  -9.570   8.789  1.00  0.00     0.079 A 
HETATM   10  C   UNL     1      42.748  -9.143  10.106  1.00  0.00     0.074 A 
HETATM   11  C   UNL     1      43.973  -9.339  10.744  1.00  0.00     0.070 A 
HETATM   12  C   UNL     1      45.011  -9.950  10.050  1.00  0.00     0.037 A 
HETATM   13  C   UNL     1      44.819 -10.388   8.733  1.00  0.00     0.015 A 
BRANCH   9  14
HETATM   14  O   UNL     1      41.381  -9.383   8.090  1.00  0.00    -0.355 OA
HETATM   15  C   UNL     1      40.766  -8.099   8.198  1.00  0.00     0.210 C 
ENDBRANCH   9  14
BRANCH  11  16
HETATM   16  O   UNL     1      44.030  -8.873  12.026  1.00  0.00    -0.356 OA
HETATM   17  C   UNL     1      43.057  -7.911  12.417  1.00  0.00     0.210 C 
ENDBRANCH  11  16
ENDBRANCH   3   8
ENDBRANCH   1   2
BRANCH   1  18
HETATM   18  C   UNL     1      41.274 -12.005   4.117  1.00  0.00     0.248 C 
HETATM   19  N   UNL     1      40.182 -12.803   3.800  1.00  0.00    -0.325 N 
HETATM   20  H   UNL     1      39.276 -12.512   4.141  1.00  0.00     0.169 HD
HETATM   21  O   UNL     1      42.272 -11.840   3.424  1.00  0.00    -0.271 OA
BRANCH  19  22
HETATM   22  C   UNL     1      40.134 -13.592   2.626  1.00  0.00     0.041 A 
HETATM   23  C   UNL     1      40.426 -14.968   2.585  1.00  0.00    -0.027 A 
HETATM   24  C   UNL     1      40.400 -15.618   1.332  1.00  0.00     0.010 A 
HETATM   25  C   UNL     1      40.050 -14.938   0.167  1.00  0.00     0.001 A 
HETATM   26  C   UNL     1      39.696 -13.597   0.232  1.00  0.00     0.002 A 
HETATM   27  C   UNL     1      39.725 -12.930   1.456  1.00  0.00     0.030 A 
BRANCH  23  28
HETATM   28  C   UNL     1      40.599 -15.846   3.810  1.00  0.00     0.079 C 
BRANCH  28  29
HETATM   29  C   UNL     1      41.888 -16.644   3.786  1.00  0.00    -0.054 A 
HETATM   30  C   UNL     1      42.253 -17.375   2.646  1.00  0.00     0.007 A 
HETATM   31  C   UNL     1      43.425 -18.135   2.635  1.00  0.00     0.001 A 
HETATM   32  C   UNL     1      44.245 -18.172   3.762  1.00  0.00     0.000 A 
HETATM   33  C   UNL     1      43.893 -17.451   4.900  1.00  0.00     0.001 A 
HETATM   34  C   UNL     1      42.721 -16.693   4.914  1.00  0.00     0.007 A 
ENDBRANCH  28  29
ENDBRANCH  23  28
ENDBRANCH  19  22
ENDBRANCH   1  18
TORSDOF 8
ENDMDL
MODEL 8
REMARK VINA RESULT:      -8.1     17.997     19.737
REMARK  8 active torsions:
REMARK  status: ('A' for Active; 'I' for Inactive)
REMARK    1  A    between atoms: O_2  and  C_3 
REMARK    2  A    between atoms: C_5  and  O_6 
REMARK    3  A    between atoms: C_8  and  C_9 
REMARK    4  A    between atoms: N_10  and  C_12 
REMARK    5  A    between atoms: C_12  and  C_13 
REMARK       I    between atoms: C_13  and  N_14 
REMARK    6  A    between atoms: N_14  and  C_15 
REMARK    7  A    between atoms: C_16  and  C_17 
REMARK    8  A    between atoms: C_17  and  C_18 
ROOT
HETATM    1  C   UNL     1      44.469 -32.556   2.020  1.00  0.00     0.338 C 
ENDROOT
BRANCH   1   2
HETATM    2  N   UNL     1      43.702 -31.698   1.019  1.00  0.00    -0.054 N 
HETATM    3  C   UNL     1      44.490 -30.468   0.516  1.00  0.00     0.224 C 
HETATM    4  C   UNL     1      43.776 -29.305   1.211  1.00  0.00     0.040 C 
HETATM    5  C   UNL     1      42.323 -29.729   1.218  1.00  0.00     0.030 C 
HETATM    6  C   UNL     1      42.388 -31.196   1.585  1.00  0.00     0.236 C 
HETATM    7  H   UNL     1      43.527 -32.292   0.207  1.00  0.00     0.281 HD
BRANCH   3   8
HETATM    8  C   UNL     1      44.517 -30.300  -0.999  1.00  0.00     0.006 A 
HETATM    9  C   UNL     1      45.198 -31.271  -1.767  1.00  0.00     0.079 A 
HETATM   10  C   UNL     1      45.234 -31.172  -3.162  1.00  0.00     0.074 A 
HETATM   11  C   UNL     1      44.627 -30.102  -3.821  1.00  0.00     0.070 A 
HETATM   12  C   UNL     1      43.998 -29.112  -3.075  1.00  0.00     0.037 A 
HETATM   13  C   UNL     1      43.950 -29.204  -1.678  1.00  0.00     0.015 A 
BRANCH   9  14
HETATM   14  O   UNL     1      45.798 -32.276  -1.052  1.00  0.00    -0.355 OA
HETATM   15  C   UNL     1      46.862 -32.977  -1.696  1.00  0.00     0.210 C 
ENDBRANCH   9  14
BRANCH  11  16
HETATM   16  O   UNL     1      44.741 -30.132  -5.181  1.00  0.00    -0.356 OA
HETATM   17  C   UNL     1      43.950 -31.084  -5.884  1.00  0.00     0.210 C 
ENDBRANCH  11  16
ENDBRANCH   3   8
ENDBRANCH   1   2
BRANCH   1  18
HETATM   18  C   UNL     1      45.444 -31.756   2.886  1.00  0.00     0.248 C 
HETATM   19  N   UNL     1      46.756 -31.798   2.433  1.00  0.00    -0.325 N 
HETATM   20  H   UNL     1      46.904 -31.940   1.443  1.00  0.00     0.169 HD
HETATM   21  O   UNL     1      45.029 -31.096   3.833  1.00  0.00    -0.271 OA
BRANCH  19  22
HETATM   22  C   UNL     1      47.806 -31.105   3.082  1.00  0.00     0.041 A 
HETATM   23  C   UNL     1      48.126 -29.754   2.850  1.00  0.00    -0.027 A 
HETATM   24  C   UNL     1      49.241 -29.208   3.521  1.00  0.00     0.010 A 
HETATM   25  C   UNL     1      49.985 -29.961   4.428  1.00  0.00     0.001 A 
HETATM   26  C   UNL     1      49.617 -31.271   4.701  1.00  0.00     0.002 A 
HETATM   27  C   UNL     1      48.526 -31.837   4.042  1.00  0.00     0.030 A 
BRANCH  23  28
HETATM   28  C   UNL     1      47.258 -28.791   2.062  1.00  0.00     0.079 C 
BRANCH  28  29
HETATM   29  C   UNL     1      47.572 -28.793   0.578  1.00  0.00    -0.054 A 
HETATM   30  C   UNL     1      47.054 -27.796  -0.262  1.00  0.00     0.007 A 
HETATM   31  C   UNL     1      47.319 -27.815  -1.633  1.00  0.00     0.001 A 
HETATM   32  C   UNL     1      48.103 -28.829  -2.179  1.00  0.00     0.000 A 
HETATM   33  C   UNL     1      48.623 -29.825  -1.356  1.00  0.00     0.001 A 
HETATM   34  C   UNL     1      48.358 -29.809   0.015  1.00  0.00     0.007 A 
ENDBRANCH  28  29
ENDBRANCH  23  28
ENDBRANCH  19  22
ENDBRANCH   1  18
TORSDOF 8
ENDMDL
MODEL 9
REMARK VINA RESULT:      -8.0      5.504      9.477
REMARK  8 active torsions:
REMARK  status: ('A' for Active; 'I' for Inactive)
REMARK    1  A    between atoms: O_2  and  C_3 
REMARK    2  A    between atoms: C_5  and  O_6 
REMARK    3  A    between atoms: C_8  and  C_9 
REMARK    4  A    between atoms: N_10  and  C_12 
REMARK    5  A    between atoms: C_12  and  C_13 
REMARK       I    between atoms: C_13  and  N_14 
REMARK    6  A    between atoms: N_14  and  C_15 
REMARK    7  A    between atoms: C_16  and  C_17 
REMARK    8  A    between atoms: C_17  and  C_18 
ROOT
HETATM    1  C   UNL     1      40.833 -14.035   0.485  1.00  0.00     0.338 C 
ENDROOT
BRANCH   1   2
HETATM    2  N   UNL     1      40.260 -12.624   0.578  1.00  0.00    -0.054 N 
HETATM    3  C   UNL     1      41.323 -11.536   0.850  1.00  0.00     0.224 C 
HETATM    4  C   UNL     1      41.039 -11.146   2.304  1.00  0.00     0.040 C 
HETATM    5  C   UNL     1      39.532 -11.236   2.412  1.00  0.00     0.030 C 
HETATM    6  C   UNL     1      39.203 -12.506   1.658  1.00  0.00     0.236 C 
HETATM    7  H   UNL     1      39.852 -12.419  -0.335  1.00  0.00     0.281 HD
BRANCH   3   8
HETATM    8  C   UNL     1      41.264 -10.335  -0.087  1.00  0.00     0.006 A 
HETATM    9  C   UNL     1      41.323 -10.569  -1.479  1.00  0.00     0.079 A 
HETATM   10  C   UNL     1      41.253  -9.502  -2.380  1.00  0.00     0.074 A 
HETATM   11  C   UNL     1      41.154  -8.186  -1.927  1.00  0.00     0.070 A 
HETATM   12  C   UNL     1      41.147  -7.936  -0.559  1.00  0.00     0.037 A 
HETATM   13  C   UNL     1      41.210  -8.998   0.353  1.00  0.00     0.015 A 
BRANCH   9  14
HETATM   14  O   UNL     1      41.452 -11.884  -1.851  1.00  0.00    -0.355 OA
HETATM   15  C   UNL     1      40.721 -12.299  -3.004  1.00  0.00     0.210 C 
ENDBRANCH   9  14
BRANCH  11  16
HETATM   16  O   UNL     1      41.095  -7.246  -2.915  1.00  0.00    -0.356 OA
HETATM   17  C   UNL     1      40.149  -6.193  -2.762  1.00  0.00     0.210 C 
ENDBRANCH  11  16
ENDBRANCH   3   8
ENDBRANCH   1   2
BRANCH   1  18
HETATM   18  C   UNL     1      40.679 -14.842   1.775  1.00  0.00     0.248 C 
HETATM   19  N   UNL     1      41.566 -14.467   2.776  1.00  0.00    -0.325 N 
HETATM   20  H   UNL     1      41.899 -13.513   2.771  1.00  0.00     0.169 HD
HETATM   21  O   UNL     1      39.784 -15.673   1.879  1.00  0.00    -0.271 OA
BRANCH  19  22
HETATM   22  C   UNL     1      41.571 -15.077   4.053  1.00  0.00     0.041 A 
HETATM   23  C   UNL     1      42.414 -16.143   4.418  1.00  0.00    -0.027 A 
HETATM   24  C   UNL     1      42.268 -16.697   5.708  1.00  0.00     0.010 A 
HETATM   25  C   UNL     1      41.350 -16.183   6.622  1.00  0.00     0.001 A 
HETATM   26  C   UNL     1      40.572 -15.086   6.273  1.00  0.00     0.002 A 
HETATM   27  C   UNL     1      40.690 -14.528   5.001  1.00  0.00     0.030 A 
BRANCH  23  28
HETATM   28  C   UNL     1      43.589 -16.628   3.591  1.00  0.00     0.079 C 
BRANCH  28  29
HETATM   29  C   UNL     1      43.662 -18.141   3.502  1.00  0.00    -0.054 A 
HETATM   30  C   UNL     1      44.230 -18.890   4.544  1.00  0.00     0.007 A 
HETATM   31  C   UNL     1      44.324 -20.280   4.448  1.00  0.00     0.001 A 
HETATM   32  C   UNL     1      43.853 -20.937   3.313  1.00  0.00     0.000 A 
HETATM   33  C   UNL     1      43.288 -20.205   2.272  1.00  0.00     0.001 A 
HETATM   34  C   UNL     1      43.194 -18.814   2.364  1.00  0.00     0.007 A 
ENDBRANCH  28  29
ENDBRANCH  23  28
ENDBRANCH  19  22
ENDBRANCH   1  18
TORSDOF 8
ENDMDL
MODEL 10
REMARK VINA RESULT:      -7.8      4.277      8.225
REMARK  8 active torsions:
REMARK  status: ('A' for Active; 'I' for Inactive)
REMARK    1  A    between atoms: O_2  and  C_3 
REMARK    2  A    between atoms: C_5  and  O_6 
REMARK    3  A    between atoms: C_8  and  C_9 
REMARK    4  A    between atoms: N_10  and  C_12 
REMARK    5  A    between atoms: C_12  and  C_13 
REMARK       I    between atoms: C_13  and  N_14 
REMARK    6  A    between atoms: N_14  and  C_15 
REMARK    7  A    between atoms: C_16  and  C_17 
REMARK    8  A    between atoms: C_17  and  C_18 
ROOT
HETATM    1  C   UNL     1      40.803 -12.503   2.928  1.00  0.00     0.338 C 
ENDROOT
BRANCH   1   2
HETATM    2  N   UNL     1      42.004 -13.256   3.494  1.00  0.00    -0.054 N 
HETATM    3  C   UNL     1      41.625 -14.489   4.345  1.00  0.00     0.224 C 
HETATM    4  C   UNL     1      41.951 -14.027   5.768  1.00  0.00     0.040 C 
HETATM    5  C   UNL     1      43.189 -13.173   5.593  1.00  0.00     0.030 C 
HETATM    6  C   UNL     1      42.885 -12.367   4.350  1.00  0.00     0.236 C 
HETATM    7  H   UNL     1      42.532 -13.600   2.690  1.00  0.00     0.281 HD
BRANCH   3   8
HETATM    8  C   UNL     1      42.360 -15.772   3.975  1.00  0.00     0.006 A 
HETATM    9  C   UNL     1      42.084 -16.365   2.724  1.00  0.00     0.079 A 
HETATM   10  C   UNL     1      42.747 -17.532   2.332  1.00  0.00     0.074 A 
HETATM   11  C   UNL     1      43.671 -18.151   3.175  1.00  0.00     0.070 A 
HETATM   12  C   UNL     1      43.915 -17.606   4.431  1.00  0.00     0.037 A 
HETATM   13  C   UNL     1      43.261 -16.434   4.832  1.00  0.00     0.015 A 
BRANCH   9  14
HETATM   14  O   UNL     1      41.142 -15.722   1.960  1.00  0.00    -0.355 OA
HETATM   15  C   UNL     1      39.907 -16.406   1.752  1.00  0.00     0.210 C 
ENDBRANCH   9  14
BRANCH  11  16
HETATM   16  O   UNL     1      44.242 -19.281   2.665  1.00  0.00    -0.356 OA
HETATM   17  C   UNL     1      43.669 -20.529   3.037  1.00  0.00     0.210 C 
ENDBRANCH  11  16
ENDBRANCH   3   8
ENDBRANCH   1   2
BRANCH   1  18
HETATM   18  C   UNL     1      40.698 -12.581   1.405  1.00  0.00     0.248 C 
HETATM   19  N   UNL     1      39.464 -13.031   0.953  1.00  0.00    -0.325 N 
HETATM   20  H   UNL     1      38.661 -12.861   1.542  1.00  0.00     0.169 HD
HETATM   21  O   UNL     1      41.625 -12.191   0.702  1.00  0.00    -0.271 OA
BRANCH  19  22
HETATM   22  C   UNL     1      39.158 -13.153  -0.424  1.00  0.00     0.041 A 
HETATM   23  C   UNL     1      38.507 -12.162  -1.181  1.00  0.00    -0.027 A 
HETATM   24  C   UNL     1      38.208 -12.443  -2.531  1.00  0.00     0.010 A 
HETATM   25  C   UNL     1      38.582 -13.648  -3.124  1.00  0.00     0.001 A 
HETATM   26  C   UNL     1      39.285 -14.589  -2.385  1.00  0.00     0.002 A 
HETATM   27  C   UNL     1      39.583 -14.340  -1.046  1.00  0.00     0.030 A 
BRANCH  23  28
HETATM   28  C   UNL     1      38.257 -10.744  -0.702  1.00  0.00     0.079 C 
BRANCH  28  29
HETATM   29  C   UNL     1      39.517  -9.899  -0.679  1.00  0.00    -0.054 A 
HETATM   30  C   UNL     1      39.799  -9.069   0.416  1.00  0.00     0.007 A 
HETATM   31  C   UNL     1      40.944  -8.269   0.424  1.00  0.00     0.001 A 
HETATM   32  C   UNL     1      41.818  -8.289  -0.661  1.00  0.00     0.000 A 
HETATM   33  C   UNL     1      41.550  -9.109  -1.754  1.00  0.00     0.001 A 
HETATM   34  C   UNL     1      40.405  -9.909  -1.765  1.00  0.00     0.007 A 
ENDBRANCH  28  29
ENDBRANCH  23  28
ENDBRANCH  19  22
ENDBRANCH   1  18
TORSDOF 8
ENDMDL
