MODEL 1
REMARK VINA RESULT:      -8.6      0.000      0.000
REMARK  7 active torsions:
REMARK  status: ('A' for Active; 'I' for Inactive)
REMARK       I    between atoms: C_2  and  N_3 
REMARK    1  A    between atoms: N_3  and  C_4 
REMARK    2  A    between atoms: C_7  and  C_8 
REMARK    3  A    between atoms: C_8  and  C_9 
REMARK       I    between atoms: C_9  and  N_10 
REMARK    4  A    between atoms: N_10  and  C_11 
REMARK    5  A    between atoms: C_11  and  C_12 
REMARK    6  A    between atoms: C_14  and  O_15 
REMARK    7  A    between atoms: O_15  and  C_16 
ROOT
HETATM    1  C   UNL     1      43.896 -11.803   5.129  1.00  0.00     0.222 C 
HETATM    2  N   UNL     1      42.965 -12.816   5.059  1.00  0.00    -0.357 N 
HETATM    3  O   UNL     1      43.976 -10.903   4.297  1.00  0.00    -0.273 OA
HETATM    4  H   UNL     1      42.749 -13.325   5.908  1.00  0.00     0.162 HD
ENDROOT
BRANCH   2   5
HETATM    5  C   UNL     1      41.968 -12.817   4.011  1.00  0.00     0.161 C 
BRANCH   5   6
HETATM    6  C   UNL     1      41.755 -14.186   3.419  1.00  0.00    -0.038 A 
HETATM    7  C   UNL     1      42.862 -15.002   3.133  1.00  0.00     0.046 A 
HETATM    8  C   UNL     1      42.683 -16.288   2.613  1.00  0.00     0.078 A 
HETATM    9  C   UNL     1      41.395 -16.785   2.416  1.00  0.00     0.037 A 
HETATM   10  C   UNL     1      40.287 -15.994   2.715  1.00  0.00     0.003 A 
HETATM   11  C   UNL     1      40.466 -14.706   3.221  1.00  0.00     0.009 A 
BRANCH   8  12
HETATM   12  O   UNL     1      43.717 -17.169   2.390  1.00  0.00    -0.292 OA
BRANCH  12  13
HETATM   13  C   UNL     1      43.769 -18.336   3.140  1.00  0.00     0.169 A 
HETATM   14  N   UNL     1      43.998 -18.277   4.472  1.00  0.00    -0.237 NA
HETATM   15  C   UNL     1      44.081 -19.457   5.122  1.00  0.00     0.119 A 
HETATM   16  C   UNL     1      43.954 -20.691   4.503  1.00  0.00     0.019 A 
HETATM   17  C   UNL     1      43.737 -20.722   3.130  1.00  0.00     0.006 A 
HETATM   18  C   UNL     1      43.649 -19.523   2.430  1.00  0.00     0.058 A 
ENDBRANCH  12  13
ENDBRANCH   8  12
ENDBRANCH   5   6
ENDBRANCH   2   5
BRANCH   1  19
HETATM   19  C   UNL     1      44.838 -11.898   6.314  1.00  0.00     0.141 C 
BRANCH  19  20
HETATM   20  C   UNL     1      44.495 -11.046   7.514  1.00  0.00    -0.049 A 
HETATM   21  C   UNL     1      43.226 -10.498   7.735  1.00  0.00     0.010 A 
HETATM   22  C   UNL     1      42.974  -9.695   8.858  1.00  0.00     0.030 A 
HETATM   23  C   UNL     1      43.988  -9.410   9.771  1.00  0.00     0.034 A 
HETATM   24  C   UNL     1      45.261  -9.943   9.546  1.00  0.00     0.030 A 
HETATM   25  C   UNL     1      45.512 -10.750   8.433  1.00  0.00     0.010 A 
BRANCH  23  26
HETATM   26  N   UNL     1      43.821  -8.603  10.917  1.00  0.00    -0.328 N 
HETATM   27  C   UNL     1      43.262  -8.965  12.128  1.00  0.00     0.218 C 
HETATM   28  C   UNL     1      43.228  -7.831  13.124  1.00  0.00     0.117 C 
HETATM   29  O   UNL     1      42.823 -10.068  12.437  1.00  0.00    -0.274 OA
HETATM   30  H   UNL     1      44.158  -7.653  10.833  1.00  0.00     0.169 HD
ENDBRANCH  23  26
ENDBRANCH  19  20
ENDBRANCH   1  19
TORSDOF 7
ENDMDL
MODEL 2
REMARK VINA RESULT:      -8.5      1.780     10.376
REMARK  7 active torsions:
REMARK  status: ('A' for Active; 'I' for Inactive)
REMARK       I    between atoms: C_2  and  N_3 
REMARK    1  A    between atoms: N_3  and  C_4 
REMARK    2  A    between atoms: C_7  and  C_8 
REMARK    3  A    between atoms: C_8  and  C_9 
REMARK       I    between atoms: C_9  and  N_10 
REMARK    4  A    between atoms: N_10  and  C_11 
REMARK    5  A    between atoms: C_11  and  C_12 
REMARK    6  A    between atoms: C_14  and  O_15 
REMARK    7  A    between atoms: O_15  and  C_16 
ROOT
HETATM    1  C   UNL     1      42.655 -12.493   5.385  1.00  0.00     0.222 C 
HETATM    2  N   UNL     1      43.824 -12.687   6.089  1.00  0.00    -0.357 N 
HETATM    3  O   UNL     1      41.600 -12.153   5.913  1.00  0.00    -0.273 OA
HETATM    4  H   UNL     1      44.698 -12.654   5.580  1.00  0.00     0.162 HD
ENDROOT
BRANCH   2   5
HETATM    5  C   UNL     1      43.870 -12.418   7.509  1.00  0.00     0.161 C 
BRANCH   5   6
HETATM    6  C   UNL     1      44.460 -11.067   7.822  1.00  0.00    -0.038 A 
HETATM    7  C   UNL     1      43.675 -10.096   8.466  1.00  0.00     0.046 A 
HETATM    8  C   UNL     1      44.214  -8.848   8.793  1.00  0.00     0.078 A 
HETATM    9  C   UNL     1      45.554  -8.576   8.520  1.00  0.00     0.037 A 
HETATM   10  C   UNL     1      46.351  -9.538   7.900  1.00  0.00     0.003 A 
HETATM   11  C   UNL     1      45.808 -10.778   7.561  1.00  0.00     0.009 A 
BRANCH   8  12
HETATM   12  O   UNL     1      43.528  -7.884   9.497  1.00  0.00    -0.292 OA
BRANCH  12  13
HETATM   13  C   UNL     1      42.822  -8.265  10.630  1.00  0.00     0.169 A 
HETATM   14  N   UNL     1      41.472  -8.343  10.593  1.00  0.00    -0.237 NA
HETATM   15  C   UNL     1      40.856  -8.675  11.747  1.00  0.00     0.119 A 
HETATM   16  C   UNL     1      41.523  -8.923  12.937  1.00  0.00     0.019 A 
HETATM   17  C   UNL     1      42.910  -8.818  12.949  1.00  0.00     0.006 A 
HETATM   18  C   UNL     1      43.575  -8.476  11.776  1.00  0.00     0.058 A 
ENDBRANCH  12  13
ENDBRANCH   8  12
ENDBRANCH   5   6
ENDBRANCH   2   5
BRANCH   1  19
HETATM   19  C   UNL     1      42.770 -12.754   3.896  1.00  0.00     0.141 C 
BRANCH  19  20
HETATM   20  C   UNL     1      42.772 -14.203   3.466  1.00  0.00    -0.049 A 
HETATM   21  C   UNL     1      42.296 -15.247   4.268  1.00  0.00     0.010 A 
HETATM   22  C   UNL     1      42.345 -16.576   3.823  1.00  0.00     0.030 A 
HETATM   23  C   UNL     1      42.885 -16.891   2.577  1.00  0.00     0.034 A 
HETATM   24  C   UNL     1      43.377 -15.853   1.779  1.00  0.00     0.030 A 
HETATM   25  C   UNL     1      43.321 -14.527   2.217  1.00  0.00     0.010 A 
BRANCH  23  26
HETATM   26  N   UNL     1      42.982 -18.201   2.061  1.00  0.00    -0.328 N 
HETATM   27  C   UNL     1      43.668 -19.271   2.604  1.00  0.00     0.218 C 
HETATM   28  C   UNL     1      43.569 -20.522   1.765  1.00  0.00     0.117 C 
HETATM   29  O   UNL     1      44.307 -19.282   3.651  1.00  0.00    -0.274 OA
HETATM   30  H   UNL     1      42.484 -18.367   1.197  1.00  0.00     0.169 HD
ENDBRANCH  23  26
ENDBRANCH  19  20
ENDBRANCH   1  19
TORSDOF 7
ENDMDL
MODEL 3
REMARK VINA RESULT:      -8.5      2.033      2.518
REMARK  7 active torsions:
REMARK  status: ('A' for Active; 'I' for Inactive)
REMARK       I    between atoms: C_2  and  N_3 
REMARK    1  A    between atoms: N_3  and  C_4 
REMARK    2  A    between atoms: C_7  and  C_8 
REMARK    3  A    between atoms: C_8  and  C_9 
REMARK       I    between atoms: C_9  and  N_10 
REMARK    4  A    between atoms: N_10  and  C_11 
REMARK    5  A    between atoms: C_11  and  C_12 
REMARK    6  A    between atoms: C_14  and  O_15 
REMARK    7  A    between atoms: O_15  and  C_16 
ROOT
HETATM    1  C   UNL     1      45.046 -11.352   6.637  1.00  0.00     0.222 C 
HETATM    2  N   UNL     1      43.914 -12.076   6.947  1.00  0.00    -0.357 N 
HETATM    3  O   UNL     1      45.414 -11.141   5.485  1.00  0.00    -0.273 OA
HETATM    4  H   UNL     1      43.504 -11.949   7.864  1.00  0.00     0.162 HD
ENDROOT
BRANCH   2   5
HETATM    5  C   UNL     1      43.052 -12.565   5.894  1.00  0.00     0.161 C 
BRANCH   5   6
HETATM    6  C   UNL     1      42.780 -14.042   6.011  1.00  0.00    -0.038 A 
HETATM    7  C   UNL     1      43.715 -14.965   5.514  1.00  0.00     0.046 A 
HETATM    8  C   UNL     1      43.495 -16.341   5.642  1.00  0.00     0.078 A 
HETATM    9  C   UNL     1      42.361 -16.804   6.308  1.00  0.00     0.037 A 
HETATM   10  C   UNL     1      41.435 -15.900   6.825  1.00  0.00     0.003 A 
HETATM   11  C   UNL     1      41.647 -14.527   6.684  1.00  0.00     0.009 A 
BRANCH   8  12
HETATM   12  O   UNL     1      44.406 -17.296   5.253  1.00  0.00    -0.292 OA
BRANCH  12  13
HETATM   13  C   UNL     1      44.019 -18.238   4.310  1.00  0.00     0.169 A 
HETATM   14  N   UNL     1      44.285 -19.549   4.511  1.00  0.00    -0.237 NA
HETATM   15  C   UNL     1      43.919 -20.397   3.526  1.00  0.00     0.119 A 
HETATM   16  C   UNL     1      43.308 -19.996   2.348  1.00  0.00     0.019 A 
HETATM   17  C   UNL     1      43.062 -18.640   2.161  1.00  0.00     0.006 A 
HETATM   18  C   UNL     1      43.430 -17.740   3.156  1.00  0.00     0.058 A 
ENDBRANCH  12  13
ENDBRANCH   8  12
ENDBRANCH   5   6
ENDBRANCH   2   5
BRANCH   1  19
HETATM   19  C   UNL     1      45.818 -10.851   7.842  1.00  0.00     0.141 C 
BRANCH  19  20
HETATM   20  C   UNL     1      45.056  -9.977   8.812  1.00  0.00    -0.049 A 
HETATM   21  C   UNL     1      44.830 -10.323  10.149  1.00  0.00     0.010 A 
HETATM   22  C   UNL     1      44.096  -9.480  10.996  1.00  0.00     0.030 A 
HETATM   23  C   UNL     1      43.559  -8.285  10.520  1.00  0.00     0.034 A 
HETATM   24  C   UNL     1      43.768  -7.943   9.181  1.00  0.00     0.030 A 
HETATM   25  C   UNL     1      44.507  -8.777   8.337  1.00  0.00     0.010 A 
BRANCH  23  26
HETATM   26  N   UNL     1      42.799  -7.389  11.302  1.00  0.00    -0.328 N 
HETATM   27  C   UNL     1      41.490  -7.537  11.721  1.00  0.00     0.218 C 
HETATM   28  C   UNL     1      40.993  -6.363  12.530  1.00  0.00     0.117 C 
HETATM   29  O   UNL     1      40.750  -8.491  11.503  1.00  0.00    -0.274 OA
HETATM   30  H   UNL     1      43.279  -6.546  11.589  1.00  0.00     0.169 HD
ENDBRANCH  23  26
ENDBRANCH  19  20
ENDBRANCH   1  19
TORSDOF 7
ENDMDL
MODEL 4
REMARK VINA RESULT:      -8.4      3.955      7.866
REMARK  7 active torsions:
REMARK  status: ('A' for Active; 'I' for Inactive)
REMARK       I    between atoms: C_2  and  N_3 
REMARK    1  A    between atoms: N_3  and  C_4 
REMARK    2  A    between atoms: C_7  and  C_8 
REMARK    3  A    between atoms: C_8  and  C_9 
REMARK       I    between atoms: C_9  and  N_10 
REMARK    4  A    between atoms: N_10  and  C_11 
REMARK    5  A    between atoms: C_11  and  C_12 
REMARK    6  A    between atoms: C_14  and  O_15 
REMARK    7  A    between atoms: O_15  and  C_16 
ROOT
HETATM    1  C   UNL     1      42.836 -11.645   3.521  1.00  0.00     0.222 C 
HETATM    2  N   UNL     1      42.239 -11.888   4.739  1.00  0.00    -0.357 N 
HETATM    3  O   UNL     1      43.990 -11.973   3.259  1.00  0.00    -0.273 OA
HETATM    4  H   UNL     1      41.227 -11.883   4.783  1.00  0.00     0.162 HD
ENDROOT
BRANCH   2   5
HETATM    5  C   UNL     1      42.947 -12.626   5.761  1.00  0.00     0.161 C 
BRANCH   5   6
HETATM    6  C   UNL     1      42.596 -14.092   5.761  1.00  0.00    -0.038 A 
HETATM    7  C   UNL     1      43.580 -15.044   5.446  1.00  0.00     0.046 A 
HETATM    8  C   UNL     1      43.282 -16.411   5.473  1.00  0.00     0.078 A 
HETATM    9  C   UNL     1      42.011 -16.838   5.857  1.00  0.00     0.037 A 
HETATM   10  C   UNL     1      41.031 -15.905   6.192  1.00  0.00     0.003 A 
HETATM   11  C   UNL     1      41.325 -14.541   6.152  1.00  0.00     0.009 A 
BRANCH   8  12
HETATM   12  O   UNL     1      44.217 -17.397   5.258  1.00  0.00    -0.292 OA
BRANCH  12  13
HETATM   13  C   UNL     1      43.928 -18.398   4.339  1.00  0.00     0.169 A 
HETATM   14  N   UNL     1      44.116 -19.696   4.669  1.00  0.00    -0.237 NA
HETATM   15  C   UNL     1      43.857 -20.606   3.706  1.00  0.00     0.119 A 
HETATM   16  C   UNL     1      43.428 -20.280   2.429  1.00  0.00     0.019 A 
HETATM   17  C   UNL     1      43.261 -18.936   2.113  1.00  0.00     0.006 A 
HETATM   18  C   UNL     1      43.522 -17.973   3.083  1.00  0.00     0.058 A 
ENDBRANCH  12  13
ENDBRANCH   8  12
ENDBRANCH   5   6
ENDBRANCH   2   5
BRANCH   1  19
HETATM   19  C   UNL     1      41.954 -10.915   2.526  1.00  0.00     0.141 C 
BRANCH  19  20
HETATM   20  C   UNL     1      41.154 -11.779   1.578  1.00  0.00    -0.049 A 
HETATM   21  C   UNL     1      40.937 -13.147   1.776  1.00  0.00     0.010 A 
HETATM   22  C   UNL     1      40.205 -13.902   0.849  1.00  0.00     0.030 A 
HETATM   23  C   UNL     1      39.689 -13.310  -0.303  1.00  0.00     0.034 A 
HETATM   24  C   UNL     1      39.917 -11.946  -0.514  1.00  0.00     0.030 A 
HETATM   25  C   UNL     1      40.640 -11.191   0.414  1.00  0.00     0.010 A 
BRANCH  23  26
HETATM   26  N   UNL     1      38.954 -14.000  -1.290  1.00  0.00    -0.328 N 
HETATM   27  C   UNL     1      39.337 -14.273  -2.589  1.00  0.00     0.218 C 
HETATM   28  C   UNL     1      38.282 -15.017  -3.372  1.00  0.00     0.117 C 
HETATM   29  O   UNL     1      40.403 -13.979  -3.121  1.00  0.00    -0.274 OA
HETATM   30  H   UNL     1      38.044 -14.334  -1.001  1.00  0.00     0.169 HD
ENDBRANCH  23  26
ENDBRANCH  19  20
ENDBRANCH   1  19
TORSDOF 7
ENDMDL
MODEL 5
REMARK VINA RESULT:      -8.3      2.961      6.403
REMARK  7 active torsions:
REMARK  status: ('A' for Active; 'I' for Inactive)
REMARK       I    between atoms: C_2  and  N_3 
REMARK    1  A    between atoms: N_3  and  C_4 
REMARK    2  A    between atoms: C_7  and  C_8 
REMARK    3  A    between atoms: C_8  and  C_9 
REMARK       I    between atoms: C_9  and  N_10 
REMARK    4  A    between atoms: N_10  and  C_11 
REMARK    5  A    between atoms: C_11  and  C_12 
REMARK    6  A    between atoms: C_14  and  O_15 
REMARK    7  A    between atoms: O_15  and  C_16 
ROOT
HETATM    1  C   UNL     1      43.509 -10.416  11.392  1.00  0.00     0.222 C 
HETATM    2  N   UNL     1      43.999  -9.703  10.320  1.00  0.00    -0.357 N 
HETATM    3  O   UNL     1      44.074 -11.399  11.861  1.00  0.00    -0.273 OA
HETATM    4  H   UNL     1      43.671  -8.754  10.188  1.00  0.00     0.162 HD
ENDROOT
BRANCH   2   5
HETATM    5  C   UNL     1      45.275 -10.052   9.736  1.00  0.00     0.161 C 
BRANCH   5   6
HETATM    6  C   UNL     1      45.131 -10.745   8.406  1.00  0.00    -0.038 A 
HETATM    7  C   UNL     1      43.951 -11.449   8.111  1.00  0.00     0.046 A 
HETATM    8  C   UNL     1      43.785 -12.071   6.870  1.00  0.00     0.078 A 
HETATM    9  C   UNL     1      44.777 -11.958   5.897  1.00  0.00     0.037 A 
HETATM   10  C   UNL     1      45.944 -11.246   6.168  1.00  0.00     0.003 A 
HETATM   11  C   UNL     1      46.116 -10.637   7.412  1.00  0.00     0.009 A 
BRANCH   8  12
HETATM   12  O   UNL     1      42.624 -12.704   6.485  1.00  0.00    -0.292 OA
BRANCH  12  13
HETATM   13  C   UNL     1      42.654 -14.076   6.276  1.00  0.00     0.169 A 
HETATM   14  N   UNL     1      42.374 -14.582   5.053  1.00  0.00    -0.237 NA
HETATM   15  C   UNL     1      42.377 -15.927   4.942  1.00  0.00     0.119 A 
HETATM   16  C   UNL     1      42.639 -16.790   5.995  1.00  0.00     0.019 A 
HETATM   17  C   UNL     1      42.906 -16.242   7.245  1.00  0.00     0.006 A 
HETATM   18  C   UNL     1      42.908 -14.858   7.394  1.00  0.00     0.058 A 
ENDBRANCH  12  13
ENDBRANCH   8  12
ENDBRANCH   5   6
ENDBRANCH   2   5
BRANCH   1  19
HETATM   19  C   UNL     1      42.192  -9.898  11.939  1.00  0.00     0.141 C 
BRANCH  19  20
HETATM   20  C   UNL     1      42.281  -8.914  13.083  1.00  0.00    -0.049 A 
HETATM   21  C   UNL     1      43.207  -7.866  13.130  1.00  0.00     0.010 A 
HETATM   22  C   UNL     1      43.257  -6.997  14.230  1.00  0.00     0.030 A 
HETATM   23  C   UNL     1      42.393  -7.169  15.312  1.00  0.00     0.034 A 
HETATM   24  C   UNL     1      41.477  -8.224  15.276  1.00  0.00     0.030 A 
HETATM   25  C   UNL     1      41.421  -9.086  14.177  1.00  0.00     0.010 A 
BRANCH  23  26
HETATM   26  N   UNL     1      42.387  -6.348  16.460  1.00  0.00    -0.328 N 
HETATM   27  C   UNL     1      41.510  -5.322  16.756  1.00  0.00     0.218 C 
HETATM   28  C   UNL     1      41.818  -4.644  18.069  1.00  0.00     0.117 C 
HETATM   29  O   UNL     1      40.559  -4.946  16.078  1.00  0.00    -0.274 OA
HETATM   30  H   UNL     1      43.107  -6.547  17.141  1.00  0.00     0.169 HD
ENDBRANCH  23  26
ENDBRANCH  19  20
ENDBRANCH   1  19
TORSDOF 7
ENDMDL
MODEL 6
REMARK VINA RESULT:      -8.2      1.923     10.975
REMARK  7 active torsions:
REMARK  status: ('A' for Active; 'I' for Inactive)
REMARK       I    between atoms: C_2  and  N_3 
REMARK    1  A    between atoms: N_3  and  C_4 
REMARK    2  A    between atoms: C_7  and  C_8 
REMARK    3  A    between atoms: C_8  and  C_9 
REMARK       I    between atoms: C_9  and  N_10 
REMARK    4  A    between atoms: N_10  and  C_11 
REMARK    5  A    between atoms: C_11  and  C_12 
REMARK    6  A    between atoms: C_14  and  O_15 
REMARK    7  A    between atoms: O_15  and  C_16 
ROOT
HETATM    1  C   UNL     1      43.512 -13.177   6.768  1.00  0.00     0.222 C 
HETATM    2  N   UNL     1      42.687 -12.077   6.868  1.00  0.00    -0.357 N 
HETATM    3  O   UNL     1      44.706 -13.099   6.492  1.00  0.00    -0.273 OA
HETATM    4  H   UNL     1      41.825 -12.174   7.391  1.00  0.00     0.162 HD
ENDROOT
BRANCH   2   5
HETATM    5  C   UNL     1      43.229 -10.745   6.721  1.00  0.00     0.161 C 
BRANCH   5   6
HETATM    6  C   UNL     1      43.800 -10.208   8.008  1.00  0.00    -0.038 A 
HETATM    7  C   UNL     1      42.965 -10.046   9.126  1.00  0.00     0.046 A 
HETATM    8  C   UNL     1      43.483  -9.580  10.339  1.00  0.00     0.078 A 
HETATM    9  C   UNL     1      44.847  -9.315  10.457  1.00  0.00     0.037 A 
HETATM   10  C   UNL     1      45.690  -9.491   9.361  1.00  0.00     0.003 A 
HETATM   11  C   UNL     1      45.171  -9.942   8.147  1.00  0.00     0.009 A 
BRANCH   8  12
HETATM   12  O   UNL     1      42.740  -9.478  11.494  1.00  0.00    -0.292 OA
BRANCH  12  13
HETATM   13  C   UNL     1      42.574  -8.224  12.068  1.00  0.00     0.169 A 
HETATM   14  N   UNL     1      42.002  -7.224  11.360  1.00  0.00    -0.237 NA
HETATM   15  C   UNL     1      41.919  -6.024  11.972  1.00  0.00     0.119 A 
HETATM   16  C   UNL     1      42.388  -5.774  13.252  1.00  0.00     0.019 A 
HETATM   17  C   UNL     1      42.988  -6.817  13.950  1.00  0.00     0.006 A 
HETATM   18  C   UNL     1      43.091  -8.067  13.347  1.00  0.00     0.058 A 
ENDBRANCH  12  13
ENDBRANCH   8  12
ENDBRANCH   5   6
ENDBRANCH   2   5
BRANCH   1  19
HETATM   19  C   UNL     1      42.818 -14.504   7.007  1.00  0.00     0.141 C 
BRANCH  19  20
HETATM   20  C   UNL     1      43.057 -15.582   5.975  1.00  0.00    -0.049 A 
HETATM   21  C   UNL     1      44.173 -16.427   5.985  1.00  0.00     0.010 A 
HETATM   22  C   UNL     1      44.352 -17.396   4.987  1.00  0.00     0.030 A 
HETATM   23  C   UNL     1      43.430 -17.527   3.949  1.00  0.00     0.034 A 
HETATM   24  C   UNL     1      42.323 -16.674   3.925  1.00  0.00     0.030 A 
HETATM   25  C   UNL     1      42.138 -15.714   4.925  1.00  0.00     0.010 A 
BRANCH  23  26
HETATM   26  N   UNL     1      43.543 -18.466   2.901  1.00  0.00    -0.328 N 
HETATM   27  C   UNL     1      43.737 -19.830   3.009  1.00  0.00     0.218 C 
HETATM   28  C   UNL     1      43.832 -20.520   1.670  1.00  0.00     0.117 C 
HETATM   29  O   UNL     1      43.829 -20.481   4.045  1.00  0.00    -0.274 OA
HETATM   30  H   UNL     1      43.465 -18.086   1.967  1.00  0.00     0.169 HD
ENDBRANCH  23  26
ENDBRANCH  19  20
ENDBRANCH   1  19
TORSDOF 7
ENDMDL
MODEL 7
REMARK VINA RESULT:      -8.1      1.921      2.500
REMARK  7 active torsions:
REMARK  status: ('A' for Active; 'I' for Inactive)
REMARK       I    between atoms: C_2  and  N_3 
REMARK    1  A    between atoms: N_3  and  C_4 
REMARK    2  A    between atoms: C_7  and  C_8 
REMARK    3  A    between atoms: C_8  and  C_9 
REMARK       I    between atoms: C_9  and  N_10 
REMARK    4  A    between atoms: N_10  and  C_11 
REMARK    5  A    between atoms: C_11  and  C_12 
REMARK    6  A    between atoms: C_14  and  O_15 
REMARK    7  A    between atoms: O_15  and  C_16 
ROOT
HETATM    1  C   UNL     1      43.979 -11.360   7.708  1.00  0.00     0.222 C 
HETATM    2  N   UNL     1      43.180 -12.398   7.279  1.00  0.00    -0.357 N 
HETATM    3  O   UNL     1      45.184 -11.479   7.913  1.00  0.00    -0.273 OA
HETATM    4  H   UNL     1      42.298 -12.170   6.838  1.00  0.00     0.162 HD
ENDROOT
BRANCH   2   5
HETATM    5  C   UNL     1      43.763 -13.686   6.975  1.00  0.00     0.161 C 
BRANCH   5   6
HETATM    6  C   UNL     1      42.873 -14.529   6.098  1.00  0.00    -0.038 A 
HETATM    7  C   UNL     1      43.409 -15.159   4.962  1.00  0.00     0.046 A 
HETATM    8  C   UNL     1      42.607 -15.972   4.154  1.00  0.00     0.078 A 
HETATM    9  C   UNL     1      41.274 -16.197   4.499  1.00  0.00     0.037 A 
HETATM   10  C   UNL     1      40.735 -15.595   5.635  1.00  0.00     0.003 A 
HETATM   11  C   UNL     1      41.532 -14.773   6.433  1.00  0.00     0.009 A 
BRANCH   8  12
HETATM   12  O   UNL     1      43.086 -16.684   3.078  1.00  0.00    -0.292 OA
BRANCH  12  13
HETATM   13  C   UNL     1      43.330 -18.042   3.235  1.00  0.00     0.169 A 
HETATM   14  N   UNL     1      43.910 -18.500   4.367  1.00  0.00    -0.237 NA
HETATM   15  C   UNL     1      44.157 -19.826   4.424  1.00  0.00     0.119 A 
HETATM   16  C   UNL     1      43.858 -20.712   3.401  1.00  0.00     0.019 A 
HETATM   17  C   UNL     1      43.277 -20.210   2.241  1.00  0.00     0.006 A 
HETATM   18  C   UNL     1      43.013 -18.847   2.150  1.00  0.00     0.058 A 
ENDBRANCH  12  13
ENDBRANCH   8  12
ENDBRANCH   5   6
ENDBRANCH   2   5
BRANCH   1  19
HETATM   19  C   UNL     1      43.242 -10.053   7.929  1.00  0.00     0.141 C 
BRANCH  19  20
HETATM   20  C   UNL     1      43.030  -9.636   9.366  1.00  0.00    -0.049 A 
HETATM   21  C   UNL     1      41.766  -9.496   9.951  1.00  0.00     0.010 A 
HETATM   22  C   UNL     1      41.631  -9.084  11.284  1.00  0.00     0.030 A 
HETATM   23  C   UNL     1      42.755  -8.786  12.054  1.00  0.00     0.034 A 
HETATM   24  C   UNL     1      44.019  -8.909  11.470  1.00  0.00     0.030 A 
HETATM   25  C   UNL     1      44.155  -9.328  10.143  1.00  0.00     0.010 A 
BRANCH  23  26
HETATM   26  N   UNL     1      42.705  -8.354  13.397  1.00  0.00    -0.328 N 
HETATM   27  C   UNL     1      42.588  -7.057  13.861  1.00  0.00     0.218 C 
HETATM   28  C   UNL     1      42.588  -6.967  15.367  1.00  0.00     0.117 C 
HETATM   29  O   UNL     1      42.486  -6.039  13.183  1.00  0.00    -0.274 OA
HETATM   30  H   UNL     1      42.756  -9.086  14.092  1.00  0.00     0.169 HD
ENDBRANCH  23  26
ENDBRANCH  19  20
ENDBRANCH   1  19
TORSDOF 7
ENDMDL
MODEL 8
REMARK VINA RESULT:      -8.0      2.839      9.771
REMARK  7 active torsions:
REMARK  status: ('A' for Active; 'I' for Inactive)
REMARK       I    between atoms: C_2  and  N_3 
REMARK    1  A    between atoms: N_3  and  C_4 
REMARK    2  A    between atoms: C_7  and  C_8 
REMARK    3  A    between atoms: C_8  and  C_9 
REMARK       I    between atoms: C_9  and  N_10 
REMARK    4  A    between atoms: N_10  and  C_11 
REMARK    5  A    between atoms: C_11  and  C_12 
REMARK    6  A    between atoms: C_14  and  O_15 
REMARK    7  A    between atoms: O_15  and  C_16 
ROOT
HETATM    1  C   UNL     1      43.165 -16.908   4.792  1.00  0.00     0.222 C 
HETATM    2  N   UNL     1      43.353 -15.559   5.000  1.00  0.00    -0.357 N 
HETATM    3  O   UNL     1      43.222 -17.742   5.691  1.00  0.00    -0.273 OA
HETATM    4  H   UNL     1      42.991 -14.915   4.307  1.00  0.00     0.162 HD
ENDROOT
BRANCH   2   5
HETATM    5  C   UNL     1      43.558 -15.051   6.338  1.00  0.00     0.161 C 
BRANCH   5   6
HETATM    6  C   UNL     1      43.219 -13.588   6.458  1.00  0.00    -0.038 A 
HETATM    7  C   UNL     1      44.036 -12.744   7.230  1.00  0.00     0.046 A 
HETATM    8  C   UNL     1      43.757 -11.377   7.327  1.00  0.00     0.078 A 
HETATM    9  C   UNL     1      42.685 -10.834   6.619  1.00  0.00     0.037 A 
HETATM   10  C   UNL     1      41.878 -11.656   5.833  1.00  0.00     0.003 A 
HETATM   11  C   UNL     1      42.149 -13.022   5.748  1.00  0.00     0.009 A 
BRANCH   8  12
HETATM   12  O   UNL     1      44.562 -10.482   7.995  1.00  0.00    -0.292 OA
BRANCH  12  13
HETATM   13  C   UNL     1      44.215 -10.114   9.288  1.00  0.00     0.169 A 
HETATM   14  N   UNL     1      44.060 -11.058  10.244  1.00  0.00    -0.237 NA
HETATM   15  C   UNL     1      43.677 -10.624  11.463  1.00  0.00     0.119 A 
HETATM   16  C   UNL     1      43.433  -9.294  11.769  1.00  0.00     0.019 A 
HETATM   17  C   UNL     1      43.583  -8.347  10.762  1.00  0.00     0.006 A 
HETATM   18  C   UNL     1      43.975  -8.762   9.493  1.00  0.00     0.058 A 
ENDBRANCH  12  13
ENDBRANCH   8  12
ENDBRANCH   5   6
ENDBRANCH   2   5
BRANCH   1  19
HETATM   19  C   UNL     1      42.900 -17.288   3.348  1.00  0.00     0.141 C 
BRANCH  19  20
HETATM   20  C   UNL     1      41.977 -16.376   2.572  1.00  0.00    -0.049 A 
HETATM   21  C   UNL     1      40.593 -16.326   2.772  1.00  0.00     0.010 A 
HETATM   22  C   UNL     1      39.784 -15.475   2.005  1.00  0.00     0.030 A 
HETATM   23  C   UNL     1      40.340 -14.669   1.011  1.00  0.00     0.034 A 
HETATM   24  C   UNL     1      41.720 -14.727   0.797  1.00  0.00     0.030 A 
HETATM   25  C   UNL     1      42.529 -15.569   1.567  1.00  0.00     0.010 A 
BRANCH  23  26
HETATM   26  N   UNL     1      39.596 -13.796   0.189  1.00  0.00    -0.328 N 
HETATM   27  C   UNL     1      39.086 -14.054  -1.069  1.00  0.00     0.218 C 
HETATM   28  C   UNL     1      38.357 -12.874  -1.664  1.00  0.00     0.117 C 
HETATM   29  O   UNL     1      39.171 -15.105  -1.698  1.00  0.00    -0.274 OA
HETATM   30  H   UNL     1      39.417 -12.880   0.577  1.00  0.00     0.169 HD
ENDBRANCH  23  26
ENDBRANCH  19  20
ENDBRANCH   1  19
TORSDOF 7
ENDMDL
MODEL 9
REMARK VINA RESULT:      -7.8      2.544      3.938
REMARK  7 active torsions:
REMARK  status: ('A' for Active; 'I' for Inactive)
REMARK       I    between atoms: C_2  and  N_3 
REMARK    1  A    between atoms: N_3  and  C_4 
REMARK    2  A    between atoms: C_7  and  C_8 
REMARK    3  A    between atoms: C_8  and  C_9 
REMARK       I    between atoms: C_9  and  N_10 
REMARK    4  A    between atoms: N_10  and  C_11 
REMARK    5  A    between atoms: C_11  and  C_12 
REMARK    6  A    between atoms: C_14  and  O_15 
REMARK    7  A    between atoms: O_15  and  C_16 
ROOT
HETATM    1  C   UNL     1      45.604  -9.995   8.655  1.00  0.00     0.222 C 
HETATM    2  N   UNL     1      45.058 -11.202   8.275  1.00  0.00    -0.357 N 
HETATM    3  O   UNL     1      46.160  -9.231   7.872  1.00  0.00    -0.273 OA
HETATM    4  H   UNL     1      44.361 -11.621   8.878  1.00  0.00     0.162 HD
ENDROOT
BRANCH   2   5
HETATM    5  C   UNL     1      45.056 -11.592   6.883  1.00  0.00     0.161 C 
BRANCH   5   6
HETATM    6  C   UNL     1      43.774 -12.272   6.476  1.00  0.00    -0.038 A 
HETATM    7  C   UNL     1      43.700 -13.675   6.473  1.00  0.00     0.046 A 
HETATM    8  C   UNL     1      42.509 -14.324   6.130  1.00  0.00     0.078 A 
HETATM    9  C   UNL     1      41.370 -13.576   5.831  1.00  0.00     0.037 A 
HETATM   10  C   UNL     1      41.424 -12.183   5.850  1.00  0.00     0.003 A 
HETATM   11  C   UNL     1      42.616 -11.536   6.179  1.00  0.00     0.009 A 
BRANCH   8  12
HETATM   12  O   UNL     1      42.343 -15.689   6.187  1.00  0.00    -0.292 OA
BRANCH  12  13
HETATM   13  C   UNL     1      42.734 -16.452   5.095  1.00  0.00     0.169 A 
HETATM   14  N   UNL     1      42.015 -16.416   3.950  1.00  0.00    -0.237 NA
HETATM   15  C   UNL     1      42.433 -17.222   2.951  1.00  0.00     0.119 A 
HETATM   16  C   UNL     1      43.529 -18.066   3.045  1.00  0.00     0.019 A 
HETATM   17  C   UNL     1      44.239 -18.095   4.241  1.00  0.00     0.006 A 
HETATM   18  C   UNL     1      43.832 -17.278   5.291  1.00  0.00     0.058 A 
ENDBRANCH  12  13
ENDBRANCH   8  12
ENDBRANCH   5   6
ENDBRANCH   2   5
BRANCH   1  19
HETATM   19  C   UNL     1      45.480  -9.691  10.136  1.00  0.00     0.141 C 
BRANCH  19  20
HETATM   20  C   UNL     1      44.097  -9.343  10.637  1.00  0.00    -0.049 A 
HETATM   21  C   UNL     1      43.326 -10.199  11.432  1.00  0.00     0.010 A 
HETATM   22  C   UNL     1      42.038  -9.830  11.848  1.00  0.00     0.030 A 
HETATM   23  C   UNL     1      41.489  -8.608  11.464  1.00  0.00     0.034 A 
HETATM   24  C   UNL     1      42.249  -7.756  10.656  1.00  0.00     0.030 A 
HETATM   25  C   UNL     1      43.536  -8.119  10.247  1.00  0.00     0.010 A 
BRANCH  23  26
HETATM   26  N   UNL     1      40.199  -8.168  11.828  1.00  0.00    -0.328 N 
HETATM   27  C   UNL     1      39.792  -7.672  13.052  1.00  0.00     0.218 C 
HETATM   28  C   UNL     1      38.326  -7.317  13.088  1.00  0.00     0.117 C 
HETATM   29  O   UNL     1      40.490  -7.505  14.048  1.00  0.00    -0.274 OA
HETATM   30  H   UNL     1      39.499  -8.220  11.100  1.00  0.00     0.169 HD
ENDBRANCH  23  26
ENDBRANCH  19  20
ENDBRANCH   1  19
TORSDOF 7
ENDMDL
MODEL 10
REMARK VINA RESULT:      -7.7      4.853      9.123
REMARK  7 active torsions:
REMARK  status: ('A' for Active; 'I' for Inactive)
REMARK       I    between atoms: C_2  and  N_3 
REMARK    1  A    between atoms: N_3  and  C_4 
REMARK    2  A    between atoms: C_7  and  C_8 
REMARK    3  A    between atoms: C_8  and  C_9 
REMARK       I    between atoms: C_9  and  N_10 
REMARK    4  A    between atoms: N_10  and  C_11 
REMARK    5  A    between atoms: C_11  and  C_12 
REMARK    6  A    between atoms: C_14  and  O_15 
REMARK    7  A    between atoms: O_15  and  C_16 
ROOT
HETATM    1  C   UNL     1      41.413 -11.875   3.198  1.00  0.00     0.222 C 
HETATM    2  N   UNL     1      41.774 -10.778   2.446  1.00  0.00    -0.357 N 
HETATM    3  O   UNL     1      40.245 -12.196   3.403  1.00  0.00    -0.273 OA
HETATM    4  H   UNL     1      42.711 -10.751   2.062  1.00  0.00     0.162 HD
ENDROOT
BRANCH   2   5
HETATM    5  C   UNL     1      40.762  -9.981   1.790  1.00  0.00     0.161 C 
BRANCH   5   6
HETATM    6  C   UNL     1      41.067  -9.747   0.333  1.00  0.00    -0.038 A 
HETATM    7  C   UNL     1      41.024 -10.823  -0.570  1.00  0.00     0.046 A 
HETATM    8  C   UNL     1      41.273 -10.620  -1.931  1.00  0.00     0.078 A 
HETATM    9  C   UNL     1      41.521  -9.333  -2.408  1.00  0.00     0.037 A 
HETATM   10  C   UNL     1      41.546  -8.253  -1.527  1.00  0.00     0.003 A 
HETATM   11  C   UNL     1      41.312  -8.458  -0.166  1.00  0.00     0.009 A 
BRANCH   8  12
HETATM   12  O   UNL     1      41.165 -11.611  -2.880  1.00  0.00    -0.292 OA
BRANCH  12  13
HETATM   13  C   UNL     1      40.082 -12.478  -2.816  1.00  0.00     0.169 A 
HETATM   14  N   UNL     1      40.277 -13.814  -2.890  1.00  0.00    -0.237 NA
HETATM   15  C   UNL     1      39.170 -14.586  -2.868  1.00  0.00     0.119 A 
HETATM   16  C   UNL     1      37.880 -14.087  -2.785  1.00  0.00     0.019 A 
HETATM   17  C   UNL     1      37.709 -12.708  -2.728  1.00  0.00     0.006 A 
HETATM   18  C   UNL     1      38.830 -11.883  -2.751  1.00  0.00     0.058 A 
ENDBRANCH  12  13
ENDBRANCH   8  12
ENDBRANCH   5   6
ENDBRANCH   2   5
BRANCH   1  19
HETATM   19  C   UNL     1      42.581 -12.652   3.774  1.00  0.00     0.141 C 
BRANCH  19  20
HETATM   20  C   UNL     1      42.737 -14.080   3.302  1.00  0.00    -0.049 A 
HETATM   21  C   UNL     1      43.353 -14.432   2.096  1.00  0.00     0.010 A 
HETATM   22  C   UNL     1      43.447 -15.774   1.700  1.00  0.00     0.030 A 
HETATM   23  C   UNL     1      42.914 -16.789   2.493  1.00  0.00     0.034 A 
HETATM   24  C   UNL     1      42.283 -16.441   3.692  1.00  0.00     0.030 A 
HETATM   25  C   UNL     1      42.196 -15.104   4.091  1.00  0.00     0.010 A 
BRANCH  23  26
HETATM   26  N   UNL     1      42.956 -18.160   2.162  1.00  0.00    -0.328 N 
HETATM   27  C   UNL     1      43.750 -19.139   2.728  1.00  0.00     0.218 C 
HETATM   28  C   UNL     1      43.543 -20.499   2.107  1.00  0.00     0.117 C 
HETATM   29  O   UNL     1      44.557 -18.997   3.642  1.00  0.00    -0.274 OA
HETATM   30  H   UNL     1      42.324 -18.451   1.429  1.00  0.00     0.169 HD
ENDBRANCH  23  26
ENDBRANCH  19  20
ENDBRANCH   1  19
TORSDOF 7
ENDMDL
