MODEL 1
REMARK VINA RESULT:      -9.7      0.000      0.000
REMARK  8 active torsions:
REMARK  status: ('A' for Active; 'I' for Inactive)
REMARK    1  A    between atoms: O_2  and  C_3 
REMARK    2  A    between atoms: C_5  and  C_6 
REMARK    3  A    between atoms: C_6  and  N_7 
REMARK    4  A    between atoms: C_16  and  C_17 
REMARK    5  A    between atoms: C_17  and  N_18 
REMARK    6  A    between atoms: C_22  and  O_23 
REMARK    7  A    between atoms: C_22  and  C_24 
REMARK    8  A    between atoms: C_34  and  O_35 
ROOT
HETATM    1  N   UNL     1      41.970 -16.047   3.679  1.00  0.00    -0.061 N 
HETATM    2  H   UNL     1      41.361 -16.833   3.931  1.00  0.00     0.280 HD
HETATM    3  C   UNL     1      41.527 -14.914   4.575  1.00  0.00     0.276 C 
HETATM    4  C   UNL     1      42.414 -13.706   4.561  1.00  0.00     0.002 A 
HETATM    5  C   UNL     1      42.563 -12.967   3.389  1.00  0.00     0.076 A 
HETATM    6  O   UNL     1      41.866 -13.302   2.262  1.00  0.00    -0.349 OA
HETATM    7  C   UNL     1      42.365 -14.505   1.663  1.00  0.00     0.203 C 
HETATM    8  C   UNL     1      41.663 -15.760   2.210  1.00  0.00     0.262 C 
HETATM    9  C   UNL     1      43.099 -13.287   5.718  1.00  0.00     0.020 A 
HETATM   10  C   UNL     1      43.938 -12.158   5.701  1.00  0.00    -0.032 A 
HETATM   11  C   UNL     1      44.063 -11.438   4.505  1.00  0.00     0.011 A 
HETATM   12  C   UNL     1      43.362 -11.829   3.360  1.00  0.00     0.038 A 
ENDROOT
BRANCH  10  13
HETATM   13  C   UNL     1      44.690 -11.741   6.944  1.00  0.00     0.273 C 
BRANCH  13  14
HETATM   14  N   UNL     1      44.457 -10.322   7.433  1.00  0.00    -0.067 N 
HETATM   15  H   UNL     1      44.868  -9.728   6.698  1.00  0.00     0.280 HD
HETATM   16  C   UNL     1      42.998  -9.945   7.492  1.00  0.00     0.238 C 
HETATM   17  C   UNL     1      42.856  -8.470   7.846  1.00  0.00     0.071 C 
HETATM   18  C   UNL     1      43.566  -8.100   9.166  1.00  0.00     0.089 C 
HETATM   19  C   UNL     1      45.046  -8.511   9.006  1.00  0.00     0.071 C 
HETATM   20  C   UNL     1      45.193  -9.992   8.706  1.00  0.00     0.238 C 
BRANCH  18  21
HETATM   21  O   UNL     1      43.556  -6.673   9.236  1.00  0.00    -0.385 OA
HETATM   22  H   UNL     1      44.456  -6.322   9.097  1.00  0.00     0.211 HD
ENDBRANCH  18  21
BRANCH  18  23
HETATM   23  C   UNL     1      42.932  -8.645  10.440  1.00  0.00    -0.006 A 
HETATM   24  C   UNL     1      41.670  -9.237  10.475  1.00  0.00     0.126 A 
HETATM   25  N   UNL     1      41.105  -9.787  11.572  1.00  0.00    -0.272 NA
HETATM   26  C   UNL     1      41.779  -9.681  12.733  1.00  0.00     0.116 A 
HETATM   27  C   UNL     1      43.009  -9.062  12.836  1.00  0.00     0.020 A 
HETATM   28  C   UNL     1      43.585  -8.539  11.679  1.00  0.00     0.013 A 
ENDBRANCH  18  23
ENDBRANCH  13  14
ENDBRANCH  10  13
BRANCH   1  29
HETATM   29  C   UNL     1      43.387 -16.576   3.877  1.00  0.00     0.276 C 
BRANCH  29  30
HETATM   30  C   UNL     1      43.529 -17.997   4.363  1.00  0.00     0.004 A 
HETATM   31  C   UNL     1      43.806 -19.040   3.465  1.00  0.00     0.048 A 
HETATM   32  C   UNL     1      43.896 -20.366   3.899  1.00  0.00     0.069 A 
HETATM   33  C   UNL     1      43.769 -20.651   5.254  1.00  0.00     0.039 A 
HETATM   34  C   UNL     1      43.543 -19.619   6.172  1.00  0.00     0.040 A 
HETATM   35  C   UNL     1      43.421 -18.298   5.737  1.00  0.00     0.076 A 
BRANCH  32  36
HETATM   36  O   UNL     1      44.085 -21.275   2.897  1.00  0.00    -0.356 OA
HETATM   37  C   UNL     1      43.863 -20.827   1.563  1.00  0.00     0.210 C 
ENDBRANCH  32  36
BRANCH  35  38
HETATM   38  O   UNL     1      43.152 -17.239   6.563  1.00  0.00    -0.355 OA
HETATM   39  C   UNL     1      44.174 -16.841   7.476  1.00  0.00     0.210 C 
ENDBRANCH  35  38
ENDBRANCH  29  30
ENDBRANCH   1  29
TORSDOF 8
ENDMDL
MODEL 2
REMARK VINA RESULT:      -9.2      0.895      2.413
REMARK  8 active torsions:
REMARK  status: ('A' for Active; 'I' for Inactive)
REMARK    1  A    between atoms: O_2  and  C_3 
REMARK    2  A    between atoms: C_5  and  C_6 
REMARK    3  A    between atoms: C_6  and  N_7 
REMARK    4  A    between atoms: C_16  and  C_17 
REMARK    5  A    between atoms: C_17  and  N_18 
REMARK    6  A    between atoms: C_22  and  O_23 
REMARK    7  A    between atoms: C_22  and  C_24 
REMARK    8  A    between atoms: C_34  and  O_35 
ROOT
HETATM    1  N   UNL     1      41.449 -15.817   2.731  1.00  0.00    -0.061 N 
HETATM    2  H   UNL     1      40.860 -16.637   2.914  1.00  0.00     0.280 HD
HETATM    3  C   UNL     1      41.060 -14.818   3.796  1.00  0.00     0.276 C 
HETATM    4  C   UNL     1      41.940 -13.608   3.888  1.00  0.00     0.002 A 
HETATM    5  C   UNL     1      42.012 -12.720   2.817  1.00  0.00     0.076 A 
HETATM    6  O   UNL     1      41.245 -12.910   1.701  1.00  0.00    -0.349 OA
HETATM    7  C   UNL     1      41.709 -14.018   0.917  1.00  0.00     0.203 C 
HETATM    8  C   UNL     1      41.048 -15.342   1.335  1.00  0.00     0.262 C 
HETATM    9  C   UNL     1      42.695 -13.339   5.044  1.00  0.00     0.020 A 
HETATM   10  C   UNL     1      43.528 -12.207   5.126  1.00  0.00    -0.032 A 
HETATM   11  C   UNL     1      43.574 -11.333   4.030  1.00  0.00     0.011 A 
HETATM   12  C   UNL     1      42.803 -11.578   2.889  1.00  0.00     0.038 A 
ENDROOT
BRANCH  10  13
HETATM   13  C   UNL     1      44.356 -11.949   6.363  1.00  0.00     0.273 C 
BRANCH  13  14
HETATM   14  N   UNL     1      44.311 -10.540   6.927  1.00  0.00    -0.067 N 
HETATM   15  H   UNL     1      44.776  -9.964   6.210  1.00  0.00     0.280 HD
HETATM   16  C   UNL     1      42.912  -9.990   7.045  1.00  0.00     0.238 C 
HETATM   17  C   UNL     1      42.961  -8.530   7.475  1.00  0.00     0.071 C 
HETATM   18  C   UNL     1      43.740  -8.319   8.790  1.00  0.00     0.089 C 
HETATM   19  C   UNL     1      45.154  -8.898   8.569  1.00  0.00     0.071 C 
HETATM   20  C   UNL     1      45.111 -10.369   8.194  1.00  0.00     0.238 C 
BRANCH  18  21
HETATM   21  O   UNL     1      43.908  -6.907   8.931  1.00  0.00    -0.385 OA
HETATM   22  H   UNL     1      44.753  -6.710   9.380  1.00  0.00     0.211 HD
ENDBRANCH  18  21
BRANCH  18  23
HETATM   23  C   UNL     1      43.072  -8.847  10.055  1.00  0.00    -0.006 A 
HETATM   24  C   UNL     1      41.709  -9.128  10.140  1.00  0.00     0.126 A 
HETATM   25  N   UNL     1      41.096  -9.656  11.221  1.00  0.00    -0.272 NA
HETATM   26  C   UNL     1      41.845  -9.849  12.323  1.00  0.00     0.116 A 
HETATM   27  C   UNL     1      43.192  -9.551  12.380  1.00  0.00     0.020 A 
HETATM   28  C   UNL     1      43.806  -9.044  11.236  1.00  0.00     0.013 A 
ENDBRANCH  18  23
ENDBRANCH  13  14
ENDBRANCH  10  13
BRANCH   1  29
HETATM   29  C   UNL     1      42.878 -16.351   2.768  1.00  0.00     0.276 C 
BRANCH  29  30
HETATM   30  C   UNL     1      43.212 -17.346   3.852  1.00  0.00     0.004 A 
HETATM   31  C   UNL     1      43.151 -16.981   5.207  1.00  0.00     0.048 A 
HETATM   32  C   UNL     1      43.501 -17.883   6.216  1.00  0.00     0.069 A 
HETATM   33  C   UNL     1      43.859 -19.183   5.877  1.00  0.00     0.039 A 
HETATM   34  C   UNL     1      43.878 -19.580   4.536  1.00  0.00     0.040 A 
HETATM   35  C   UNL     1      43.559 -18.673   3.523  1.00  0.00     0.076 A 
BRANCH  32  36
HETATM   36  O   UNL     1      43.472 -17.356   7.476  1.00  0.00    -0.356 OA
HETATM   37  C   UNL     1      42.886 -16.066   7.627  1.00  0.00     0.210 C 
ENDBRANCH  32  36
BRANCH  35  38
HETATM   38  O   UNL     1      43.600 -18.969   2.186  1.00  0.00    -0.355 OA
HETATM   39  C   UNL     1      43.402 -20.330   1.808  1.00  0.00     0.210 C 
ENDBRANCH  35  38
ENDBRANCH  29  30
ENDBRANCH   1  29
TORSDOF 8
ENDMDL
MODEL 3
REMARK VINA RESULT:      -8.7      2.231      2.938
REMARK  8 active torsions:
REMARK  status: ('A' for Active; 'I' for Inactive)
REMARK    1  A    between atoms: O_2  and  C_3 
REMARK    2  A    between atoms: C_5  and  C_6 
REMARK    3  A    between atoms: C_6  and  N_7 
REMARK    4  A    between atoms: C_16  and  C_17 
REMARK    5  A    between atoms: C_17  and  N_18 
REMARK    6  A    between atoms: C_22  and  O_23 
REMARK    7  A    between atoms: C_22  and  C_24 
REMARK    8  A    between atoms: C_34  and  O_35 
ROOT
HETATM    1  N   UNL     1      40.756 -15.199   1.314  1.00  0.00    -0.061 N 
HETATM    2  H   UNL     1      40.703 -16.214   1.184  1.00  0.00     0.280 HD
HETATM    3  C   UNL     1      39.616 -14.869   2.250  1.00  0.00     0.276 C 
HETATM    4  C   UNL     1      39.610 -13.467   2.780  1.00  0.00     0.002 A 
HETATM    5  C   UNL     1      39.446 -12.396   1.904  1.00  0.00     0.076 A 
HETATM    6  O   UNL     1      39.236 -12.611   0.571  1.00  0.00    -0.349 OA
HETATM    7  C   UNL     1      40.423 -13.073  -0.088  1.00  0.00     0.203 C 
HETATM    8  C   UNL     1      40.534 -14.607  -0.078  1.00  0.00     0.262 C 
HETATM    9  C   UNL     1      39.756 -13.204   4.155  1.00  0.00     0.020 A 
HETATM   10  C   UNL     1      39.759 -11.886   4.649  1.00  0.00    -0.032 A 
HETATM   11  C   UNL     1      39.589 -10.833   3.740  1.00  0.00     0.011 A 
HETATM   12  C   UNL     1      39.413 -11.087   2.377  1.00  0.00     0.038 A 
ENDROOT
BRANCH  10  13
HETATM   13  C   UNL     1      39.949 -11.619   6.125  1.00  0.00     0.273 C 
BRANCH  13  14
HETATM   14  N   UNL     1      40.844 -10.449   6.492  1.00  0.00    -0.067 N 
HETATM   15  H   UNL     1      40.890  -9.884   5.632  1.00  0.00     0.280 HD
HETATM   16  C   UNL     1      40.244  -9.546   7.540  1.00  0.00     0.238 C 
HETATM   17  C   UNL     1      41.131  -8.324   7.743  1.00  0.00     0.071 C 
HETATM   18  C   UNL     1      42.583  -8.693   8.112  1.00  0.00     0.089 C 
HETATM   19  C   UNL     1      43.112  -9.603   6.982  1.00  0.00     0.071 C 
HETATM   20  C   UNL     1      42.261 -10.849   6.814  1.00  0.00     0.238 C 
BRANCH  18  21
HETATM   21  O   UNL     1      43.335  -7.481   8.029  1.00  0.00    -0.385 OA
HETATM   22  H   UNL     1      42.752  -6.739   7.777  1.00  0.00     0.211 HD
ENDBRANCH  18  21
BRANCH  18  23
HETATM   23  C   UNL     1      42.789  -9.288   9.501  1.00  0.00    -0.006 A 
HETATM   24  C   UNL     1      41.845  -9.193  10.522  1.00  0.00     0.126 A 
HETATM   25  N   UNL     1      41.966  -9.761  11.741  1.00  0.00    -0.272 NA
HETATM   26  C   UNL     1      43.122 -10.397  12.013  1.00  0.00     0.116 A 
HETATM   27  C   UNL     1      44.156 -10.504  11.105  1.00  0.00     0.020 A 
HETATM   28  C   UNL     1      43.985  -9.941   9.840  1.00  0.00     0.013 A 
ENDBRANCH  18  23
ENDBRANCH  13  14
ENDBRANCH  10  13
BRANCH   1  29
HETATM   29  C   UNL     1      42.171 -14.947   1.827  1.00  0.00     0.276 C 
BRANCH  29  30
HETATM   30  C   UNL     1      42.801 -16.031   2.665  1.00  0.00     0.004 A 
HETATM   31  C   UNL     1      43.018 -17.314   2.137  1.00  0.00     0.048 A 
HETATM   32  C   UNL     1      43.562 -18.338   2.919  1.00  0.00     0.069 A 
HETATM   33  C   UNL     1      43.950 -18.066   4.226  1.00  0.00     0.039 A 
HETATM   34  C   UNL     1      43.788 -16.780   4.755  1.00  0.00     0.040 A 
HETATM   35  C   UNL     1      43.217 -15.764   3.986  1.00  0.00     0.076 A 
BRANCH  32  36
HETATM   36  O   UNL     1      43.633 -19.548   2.291  1.00  0.00    -0.356 OA
HETATM   37  C   UNL     1      43.762 -20.702   3.118  1.00  0.00     0.210 C 
ENDBRANCH  32  36
BRANCH  35  38
HETATM   38  O   UNL     1      42.980 -14.495   4.445  1.00  0.00    -0.355 OA
HETATM   39  C   UNL     1      43.068 -14.278   5.852  1.00  0.00     0.210 C 
ENDBRANCH  35  38
ENDBRANCH  29  30
ENDBRANCH   1  29
TORSDOF 8
ENDMDL
MODEL 4
REMARK VINA RESULT:      -8.6      2.728      5.459
REMARK  8 active torsions:
REMARK  status: ('A' for Active; 'I' for Inactive)
REMARK    1  A    between atoms: O_2  and  C_3 
REMARK    2  A    between atoms: C_5  and  C_6 
REMARK    3  A    between atoms: C_6  and  N_7 
REMARK    4  A    between atoms: C_16  and  C_17 
REMARK    5  A    between atoms: C_17  and  N_18 
REMARK    6  A    between atoms: C_22  and  O_23 
REMARK    7  A    between atoms: C_22  and  C_24 
REMARK    8  A    between atoms: C_34  and  O_35 
ROOT
HETATM    1  N   UNL     1      42.552 -14.718   1.228  1.00  0.00    -0.061 N 
HETATM    2  H   UNL     1      42.922 -14.471   0.304  1.00  0.00     0.280 HD
HETATM    3  C   UNL     1      43.355 -13.887   2.200  1.00  0.00     0.276 C 
HETATM    4  C   UNL     1      42.856 -13.897   3.614  1.00  0.00     0.002 A 
HETATM    5  C   UNL     1      42.857 -15.086   4.341  1.00  0.00     0.076 A 
HETATM    6  O   UNL     1      43.360 -16.234   3.797  1.00  0.00    -0.349 OA
HETATM    7  C   UNL     1      42.500 -16.765   2.779  1.00  0.00     0.203 C 
HETATM    8  C   UNL     1      42.841 -16.211   1.385  1.00  0.00     0.262 C 
HETATM    9  C   UNL     1      42.391 -12.723   4.235  1.00  0.00     0.020 A 
HETATM   10  C   UNL     1      41.915 -12.736   5.558  1.00  0.00    -0.032 A 
HETATM   11  C   UNL     1      41.932 -13.949   6.261  1.00  0.00     0.011 A 
HETATM   12  C   UNL     1      42.421 -15.114   5.662  1.00  0.00     0.038 A 
ENDROOT
BRANCH  10  13
HETATM   13  C   UNL     1      41.389 -11.472   6.199  1.00  0.00     0.273 C 
BRANCH  13  14
HETATM   14  N   UNL     1      42.429 -10.465   6.661  1.00  0.00    -0.067 N 
HETATM   15  H   UNL     1      42.869 -10.136   5.791  1.00  0.00     0.280 HD
HETATM   16  C   UNL     1      41.827  -9.240   7.302  1.00  0.00     0.238 C 
HETATM   17  C   UNL     1      42.918  -8.220   7.601  1.00  0.00     0.071 C 
HETATM   18  C   UNL     1      44.048  -8.794   8.483  1.00  0.00     0.089 C 
HETATM   19  C   UNL     1      44.605 -10.030   7.744  1.00  0.00     0.071 C 
HETATM   20  C   UNL     1      43.531 -11.072   7.492  1.00  0.00     0.238 C 
BRANCH  18  21
HETATM   21  O   UNL     1      45.093  -7.820   8.472  1.00  0.00    -0.385 OA
HETATM   22  H   UNL     1      44.925  -7.151   7.781  1.00  0.00     0.211 HD
ENDBRANCH  18  21
BRANCH  18  23
HETATM   23  C   UNL     1      43.681  -9.083   9.934  1.00  0.00    -0.006 A 
HETATM   24  C   UNL     1      43.773 -10.350  10.508  1.00  0.00     0.126 A 
HETATM   25  N   UNL     1      43.518 -10.629  11.805  1.00  0.00    -0.272 NA
HETATM   26  C   UNL     1      43.064  -9.623  12.576  1.00  0.00     0.116 A 
HETATM   27  C   UNL     1      42.873  -8.340  12.105  1.00  0.00     0.020 A 
HETATM   28  C   UNL     1      43.183  -8.072  10.772  1.00  0.00     0.013 A 
ENDBRANCH  18  23
ENDBRANCH  13  14
ENDBRANCH  10  13
BRANCH   1  29
HETATM   29  C   UNL     1      41.057 -14.430   1.137  1.00  0.00     0.276 C 
BRANCH  29  30
HETATM   30  C   UNL     1      40.591 -13.565  -0.009  1.00  0.00     0.004 A 
HETATM   31  C   UNL     1      40.174 -14.141  -1.220  1.00  0.00     0.048 A 
HETATM   32  C   UNL     1      39.782 -13.348  -2.302  1.00  0.00     0.069 A 
HETATM   33  C   UNL     1      39.748 -11.965  -2.159  1.00  0.00     0.039 A 
HETATM   34  C   UNL     1      40.112 -11.375  -0.943  1.00  0.00     0.040 A 
HETATM   35  C   UNL     1      40.534 -12.163   0.130  1.00  0.00     0.076 A 
BRANCH  32  36
HETATM   36  O   UNL     1      39.486 -14.049  -3.436  1.00  0.00    -0.356 OA
HETATM   37  C   UNL     1      38.267 -14.787  -3.443  1.00  0.00     0.210 C 
ENDBRANCH  32  36
BRANCH  35  38
HETATM   38  O   UNL     1      40.952 -11.661   1.334  1.00  0.00    -0.355 OA
HETATM   39  C   UNL     1      41.727 -10.464   1.313  1.00  0.00     0.210 C 
ENDBRANCH  35  38
ENDBRANCH  29  30
ENDBRANCH   1  29
TORSDOF 8
ENDMDL
MODEL 5
REMARK VINA RESULT:      -8.5      4.004      9.936
REMARK  8 active torsions:
REMARK  status: ('A' for Active; 'I' for Inactive)
REMARK    1  A    between atoms: O_2  and  C_3 
REMARK    2  A    between atoms: C_5  and  C_6 
REMARK    3  A    between atoms: C_6  and  N_7 
REMARK    4  A    between atoms: C_16  and  C_17 
REMARK    5  A    between atoms: C_17  and  N_18 
REMARK    6  A    between atoms: C_22  and  O_23 
REMARK    7  A    between atoms: C_22  and  C_24 
REMARK    8  A    between atoms: C_34  and  O_35 
ROOT
HETATM    1  N   UNL     1      42.993 -14.879   6.564  1.00  0.00    -0.061 N 
HETATM    2  H   UNL     1      42.831 -14.569   7.528  1.00  0.00     0.280 HD
HETATM    3  C   UNL     1      41.663 -15.436   6.110  1.00  0.00     0.276 C 
HETATM    4  C   UNL     1      41.571 -15.754   4.648  1.00  0.00     0.002 A 
HETATM    5  C   UNL     1      42.384 -16.746   4.102  1.00  0.00     0.076 A 
HETATM    6  O   UNL     1      43.227 -17.470   4.895  1.00  0.00    -0.349 OA
HETATM    7  C   UNL     1      44.344 -16.688   5.341  1.00  0.00     0.203 C 
HETATM    8  C   UNL     1      44.057 -15.971   6.671  1.00  0.00     0.262 C 
HETATM    9  C   UNL     1      40.667 -15.078   3.807  1.00  0.00     0.020 A 
HETATM   10  C   UNL     1      40.588 -15.373   2.434  1.00  0.00    -0.032 A 
HETATM   11  C   UNL     1      41.419 -16.378   1.918  1.00  0.00     0.011 A 
HETATM   12  C   UNL     1      42.297 -17.075   2.753  1.00  0.00     0.038 A 
ENDROOT
BRANCH  10  13
HETATM   13  C   UNL     1      39.634 -14.615   1.538  1.00  0.00     0.273 C 
BRANCH  13  14
HETATM   14  N   UNL     1      40.187 -14.145   0.204  1.00  0.00    -0.067 N 
HETATM   15  H   UNL     1      41.106 -14.603   0.133  1.00  0.00     0.280 HD
HETATM   16  C   UNL     1      39.392 -14.641  -0.978  1.00  0.00     0.238 C 
HETATM   17  C   UNL     1      40.091 -14.252  -2.274  1.00  0.00     0.071 C 
HETATM   18  C   UNL     1      40.340 -12.733  -2.387  1.00  0.00     0.089 C 
HETATM   19  C   UNL     1      41.164 -12.323  -1.147  1.00  0.00     0.071 C 
HETATM   20  C   UNL     1      40.446 -12.660   0.147  1.00  0.00     0.238 C 
BRANCH  18  21
HETATM   21  O   UNL     1      41.202 -12.555  -3.513  1.00  0.00    -0.385 OA
HETATM   22  H   UNL     1      40.869 -11.835  -4.082  1.00  0.00     0.211 HD
ENDBRANCH  18  21
BRANCH  18  23
HETATM   23  C   UNL     1      39.103 -11.867  -2.593  1.00  0.00    -0.006 A 
HETATM   24  C   UNL     1      39.144 -10.474  -2.650  1.00  0.00     0.126 A 
HETATM   25  N   UNL     1      38.080  -9.680  -2.894  1.00  0.00    -0.272 NA
HETATM   26  C   UNL     1      36.878 -10.276  -3.010  1.00  0.00     0.116 A 
HETATM   27  C   UNL     1      36.701 -11.642  -2.910  1.00  0.00     0.020 A 
HETATM   28  C   UNL     1      37.825 -12.439  -2.697  1.00  0.00     0.013 A 
ENDBRANCH  18  23
ENDBRANCH  13  14
ENDBRANCH  10  13
BRANCH   1  29
HETATM   29  C   UNL     1      43.511 -13.641   5.840  1.00  0.00     0.276 C 
BRANCH  29  30
HETATM   30  C   UNL     1      43.468 -12.335   6.595  1.00  0.00     0.004 A 
HETATM   31  C   UNL     1      44.462 -12.014   7.534  1.00  0.00     0.048 A 
HETATM   32  C   UNL     1      44.408 -10.826   8.269  1.00  0.00     0.069 A 
HETATM   33  C   UNL     1      43.384  -9.918   8.025  1.00  0.00     0.039 A 
HETATM   34  C   UNL     1      42.412 -10.196   7.058  1.00  0.00     0.040 A 
HETATM   35  C   UNL     1      42.446 -11.396   6.344  1.00  0.00     0.076 A 
BRANCH  32  36
HETATM   36  O   UNL     1      45.398 -10.696   9.201  1.00  0.00    -0.356 OA
HETATM   37  C   UNL     1      45.188  -9.746  10.242  1.00  0.00     0.210 C 
ENDBRANCH  32  36
BRANCH  35  38
HETATM   38  O   UNL     1      41.507 -11.765   5.417  1.00  0.00    -0.355 OA
HETATM   39  C   UNL     1      40.192 -12.051   5.892  1.00  0.00     0.210 C 
ENDBRANCH  35  38
ENDBRANCH  29  30
ENDBRANCH   1  29
TORSDOF 8
ENDMDL
MODEL 6
REMARK VINA RESULT:      -8.5      3.120      6.042
REMARK  8 active torsions:
REMARK  status: ('A' for Active; 'I' for Inactive)
REMARK    1  A    between atoms: O_2  and  C_3 
REMARK    2  A    between atoms: C_5  and  C_6 
REMARK    3  A    between atoms: C_6  and  N_7 
REMARK    4  A    between atoms: C_16  and  C_17 
REMARK    5  A    between atoms: C_17  and  N_18 
REMARK    6  A    between atoms: C_22  and  O_23 
REMARK    7  A    between atoms: C_22  and  C_24 
REMARK    8  A    between atoms: C_34  and  O_35 
ROOT
HETATM    1  N   UNL     1      43.847 -11.428   6.443  1.00  0.00    -0.061 N 
HETATM    2  H   UNL     1      43.371 -11.521   5.539  1.00  0.00     0.280 HD
HETATM    3  C   UNL     1      43.278 -10.169   7.052  1.00  0.00     0.276 C 
HETATM    4  C   UNL     1      43.649  -9.928   8.485  1.00  0.00     0.002 A 
HETATM    5  C   UNL     1      44.983  -9.714   8.829  1.00  0.00     0.076 A 
HETATM    6  O   UNL     1      45.951  -9.667   7.866  1.00  0.00    -0.349 OA
HETATM    7  C   UNL     1      46.218 -10.964   7.314  1.00  0.00     0.203 C 
HETATM    8  C   UNL     1      45.328 -11.271   6.098  1.00  0.00     0.262 C 
HETATM    9  C   UNL     1      42.674  -9.902   9.499  1.00  0.00     0.020 A 
HETATM   10  C   UNL     1      43.026  -9.685  10.844  1.00  0.00    -0.032 A 
HETATM   11  C   UNL     1      44.376  -9.471  11.154  1.00  0.00     0.011 A 
HETATM   12  C   UNL     1      45.347  -9.465  10.148  1.00  0.00     0.038 A 
ENDROOT
BRANCH  10  13
HETATM   13  C   UNL     1      41.969  -9.691  11.926  1.00  0.00     0.273 C 
BRANCH  13  14
HETATM   14  N   UNL     1      42.215  -8.782  13.117  1.00  0.00    -0.067 N 
HETATM   15  H   UNL     1      43.129  -9.084  13.484  1.00  0.00     0.280 HD
HETATM   16  C   UNL     1      42.390  -7.333  12.735  1.00  0.00     0.238 C 
HETATM   17  C   UNL     1      42.777  -6.515  13.960  1.00  0.00     0.071 C 
HETATM   18  C   UNL     1      41.764  -6.653  15.117  1.00  0.00     0.089 C 
HETATM   19  C   UNL     1      41.662  -8.159  15.442  1.00  0.00     0.071 C 
HETATM   20  C   UNL     1      41.224  -8.971  14.237  1.00  0.00     0.238 C 
BRANCH  18  21
HETATM   21  O   UNL     1      42.375  -6.042  16.254  1.00  0.00    -0.385 OA
HETATM   22  H   UNL     1      41.963  -6.371  17.076  1.00  0.00     0.211 HD
ENDBRANCH  18  21
BRANCH  18  23
HETATM   23  C   UNL     1      40.405  -5.999  14.896  1.00  0.00    -0.006 A 
HETATM   24  C   UNL     1      39.254  -6.374  15.587  1.00  0.00     0.126 A 
HETATM   25  N   UNL     1      38.050  -5.774  15.463  1.00  0.00    -0.272 NA
HETATM   26  C   UNL     1      37.938  -4.795  14.545  1.00  0.00     0.116 A 
HETATM   27  C   UNL     1      38.992  -4.378  13.757  1.00  0.00     0.020 A 
HETATM   28  C   UNL     1      40.233  -4.989  13.935  1.00  0.00     0.013 A 
ENDBRANCH  18  23
ENDBRANCH  13  14
ENDBRANCH  10  13
BRANCH   1  29
HETATM   29  C   UNL     1      43.563 -12.741   7.167  1.00  0.00     0.276 C 
BRANCH  29  30
HETATM   30  C   UNL     1      43.154 -13.920   6.318  1.00  0.00     0.004 A 
HETATM   31  C   UNL     1      43.928 -15.091   6.295  1.00  0.00     0.048 A 
HETATM   32  C   UNL     1      43.581 -16.173   5.480  1.00  0.00     0.069 A 
HETATM   33  C   UNL     1      42.416 -16.111   4.722  1.00  0.00     0.039 A 
HETATM   34  C   UNL     1      41.605 -14.972   4.770  1.00  0.00     0.040 A 
HETATM   35  C   UNL     1      41.965 -13.878   5.560  1.00  0.00     0.076 A 
BRANCH  32  36
HETATM   36  O   UNL     1      44.476 -17.204   5.502  1.00  0.00    -0.356 OA
HETATM   37  C   UNL     1      43.957 -18.518   5.313  1.00  0.00     0.210 C 
ENDBRANCH  32  36
BRANCH  35  38
HETATM   38  O   UNL     1      41.253 -12.710   5.625  1.00  0.00    -0.355 OA
HETATM   39  C   UNL     1      40.603 -12.270   4.433  1.00  0.00     0.210 C 
ENDBRANCH  35  38
ENDBRANCH  29  30
ENDBRANCH   1  29
TORSDOF 8
ENDMDL
MODEL 7
REMARK VINA RESULT:      -8.5      2.627      4.312
REMARK  8 active torsions:
REMARK  status: ('A' for Active; 'I' for Inactive)
REMARK    1  A    between atoms: O_2  and  C_3 
REMARK    2  A    between atoms: C_5  and  C_6 
REMARK    3  A    between atoms: C_6  and  N_7 
REMARK    4  A    between atoms: C_16  and  C_17 
REMARK    5  A    between atoms: C_17  and  N_18 
REMARK    6  A    between atoms: C_22  and  O_23 
REMARK    7  A    between atoms: C_22  and  C_24 
REMARK    8  A    between atoms: C_34  and  O_35 
ROOT
HETATM    1  N   UNL     1      41.027 -14.430   2.077  1.00  0.00    -0.061 N 
HETATM    2  H   UNL     1      41.194 -15.442   2.053  1.00  0.00     0.280 HD
HETATM    3  C   UNL     1      39.785 -14.264   2.921  1.00  0.00     0.276 C 
HETATM    4  C   UNL     1      39.454 -12.852   3.300  1.00  0.00     0.002 A 
HETATM    5  C   UNL     1      39.130 -11.927   2.309  1.00  0.00     0.076 A 
HETATM    6  O   UNL     1      39.058 -12.306   0.999  1.00  0.00    -0.349 OA
HETATM    7  C   UNL     1      40.356 -12.565   0.445  1.00  0.00     0.203 C 
HETATM    8  C   UNL     1      40.780 -14.032   0.623  1.00  0.00     0.262 C 
HETATM    9  C   UNL     1      39.452 -12.436   4.644  1.00  0.00     0.020 A 
HETATM   10  C   UNL     1      39.149 -11.108   4.996  1.00  0.00    -0.032 A 
HETATM   11  C   UNL     1      38.826 -10.204   3.975  1.00  0.00     0.011 A 
HETATM   12  C   UNL     1      38.796 -10.617   2.639  1.00  0.00     0.038 A 
ENDROOT
BRANCH  10  13
HETATM   13  C   UNL     1      39.182 -10.669   6.443  1.00  0.00     0.273 C 
BRANCH  13  14
HETATM   14  N   UNL     1      40.260  -9.669   6.823  1.00  0.00    -0.067 N 
HETATM   15  H   UNL     1      40.230  -8.964   6.072  1.00  0.00     0.280 HD
HETATM   16  C   UNL     1      39.954  -8.919   8.096  1.00  0.00     0.238 C 
HETATM   17  C   UNL     1      41.002  -7.839   8.327  1.00  0.00     0.071 C 
HETATM   18  C   UNL     1      42.441  -8.397   8.358  1.00  0.00     0.089 C 
HETATM   19  C   UNL     1      42.662  -9.132   7.018  1.00  0.00     0.071 C 
HETATM   20  C   UNL     1      41.652 -10.246   6.810  1.00  0.00     0.238 C 
BRANCH  18  21
HETATM   21  O   UNL     1      43.308  -7.262   8.335  1.00  0.00    -0.385 OA
HETATM   22  H   UNL     1      42.890  -6.527   7.847  1.00  0.00     0.211 HD
ENDBRANCH  18  21
BRANCH  18  23
HETATM   23  C   UNL     1      42.801  -9.248   9.570  1.00  0.00    -0.006 A 
HETATM   24  C   UNL     1      43.881 -10.130   9.593  1.00  0.00     0.126 A 
HETATM   25  N   UNL     1      44.266 -10.850  10.668  1.00  0.00    -0.272 NA
HETATM   26  C   UNL     1      43.502 -10.768  11.774  1.00  0.00     0.116 A 
HETATM   27  C   UNL     1      42.373  -9.976  11.852  1.00  0.00     0.020 A 
HETATM   28  C   UNL     1      42.023  -9.214  10.739  1.00  0.00     0.013 A 
ENDBRANCH  18  23
ENDBRANCH  13  14
ENDBRANCH  10  13
BRANCH   1  29
HETATM   29  C   UNL     1      42.322 -13.837   2.623  1.00  0.00     0.276 C 
BRANCH  29  30
HETATM   30  C   UNL     1      42.780 -14.317   3.979  1.00  0.00     0.004 A 
HETATM   31  C   UNL     1      43.123 -13.401   4.987  1.00  0.00     0.048 A 
HETATM   32  C   UNL     1      43.590 -13.835   6.232  1.00  0.00     0.069 A 
HETATM   33  C   UNL     1      43.660 -15.198   6.498  1.00  0.00     0.039 A 
HETATM   34  C   UNL     1      43.276 -16.125   5.523  1.00  0.00     0.040 A 
HETATM   35  C   UNL     1      42.839 -15.696   4.268  1.00  0.00     0.076 A 
BRANCH  32  36
HETATM   36  O   UNL     1      43.961 -12.828   7.076  1.00  0.00    -0.356 OA
HETATM   37  C   UNL     1      45.055 -12.010   6.669  1.00  0.00     0.210 C 
ENDBRANCH  32  36
BRANCH  35  38
HETATM   38  O   UNL     1      42.492 -16.538   3.246  1.00  0.00    -0.355 OA
HETATM   39  C   UNL     1      43.475 -17.471   2.800  1.00  0.00     0.210 C 
ENDBRANCH  35  38
ENDBRANCH  29  30
ENDBRANCH   1  29
TORSDOF 8
ENDMDL
MODEL 8
REMARK VINA RESULT:      -8.5      2.597      9.514
REMARK  8 active torsions:
REMARK  status: ('A' for Active; 'I' for Inactive)
REMARK    1  A    between atoms: O_2  and  C_3 
REMARK    2  A    between atoms: C_5  and  C_6 
REMARK    3  A    between atoms: C_6  and  N_7 
REMARK    4  A    between atoms: C_16  and  C_17 
REMARK    5  A    between atoms: C_17  and  N_18 
REMARK    6  A    between atoms: C_22  and  O_23 
REMARK    7  A    between atoms: C_22  and  C_24 
REMARK    8  A    between atoms: C_34  and  O_35 
ROOT
HETATM    1  N   UNL     1      41.516  -7.823   7.566  1.00  0.00    -0.061 N 
HETATM    2  H   UNL     1      42.344  -7.222   7.641  1.00  0.00     0.280 HD
HETATM    3  C   UNL     1      41.704  -8.578   6.271  1.00  0.00     0.276 C 
HETATM    4  C   UNL     1      40.731  -9.694   6.036  1.00  0.00     0.002 A 
HETATM    5  C   UNL     1      39.374  -9.413   5.891  1.00  0.00     0.076 A 
HETATM    6  O   UNL     1      38.925  -8.123   5.906  1.00  0.00    -0.349 OA
HETATM    7  C   UNL     1      38.985  -7.552   7.221  1.00  0.00     0.203 C 
HETATM    8  C   UNL     1      40.331  -6.860   7.492  1.00  0.00     0.262 C 
HETATM    9  C   UNL     1      41.160 -11.032   5.946  1.00  0.00     0.020 A 
HETATM   10  C   UNL     1      40.245 -12.079   5.734  1.00  0.00    -0.032 A 
HETATM   11  C   UNL     1      38.888 -11.760   5.590  1.00  0.00     0.011 A 
HETATM   12  C   UNL     1      38.457 -10.431   5.648  1.00  0.00     0.038 A 
ENDROOT
BRANCH  10  13
HETATM   13  C   UNL     1      40.719 -13.514   5.671  1.00  0.00     0.273 C 
BRANCH  13  14
HETATM   14  N   UNL     1      41.242 -13.996   4.330  1.00  0.00    -0.067 N 
HETATM   15  H   UNL     1      40.917 -13.286   3.658  1.00  0.00     0.280 HD
HETATM   16  C   UNL     1      42.748 -13.982   4.238  1.00  0.00     0.238 C 
HETATM   17  C   UNL     1      43.185 -14.335   2.822  1.00  0.00     0.071 C 
HETATM   18  C   UNL     1      42.625 -15.691   2.343  1.00  0.00     0.089 C 
HETATM   19  C   UNL     1      41.088 -15.605   2.462  1.00  0.00     0.071 C 
HETATM   20  C   UNL     1      40.646 -15.307   3.884  1.00  0.00     0.238 C 
BRANCH  18  21
HETATM   21  O   UNL     1      42.910 -15.767   0.945  1.00  0.00    -0.385 OA
HETATM   22  H   UNL     1      43.872 -15.856   0.801  1.00  0.00     0.211 HD
ENDBRANCH  18  21
BRANCH  18  23
HETATM   23  C   UNL     1      43.206 -16.930   3.016  1.00  0.00    -0.006 A 
HETATM   24  C   UNL     1      43.798 -16.908   4.278  1.00  0.00     0.126 A 
HETATM   25  N   UNL     1      44.263 -17.995   4.931  1.00  0.00    -0.272 NA
HETATM   26  C   UNL     1      44.225 -19.172   4.277  1.00  0.00     0.116 A 
HETATM   27  C   UNL     1      43.719 -19.308   2.999  1.00  0.00     0.020 A 
HETATM   28  C   UNL     1      43.209 -18.175   2.367  1.00  0.00     0.013 A 
ENDBRANCH  18  23
ENDBRANCH  13  14
ENDBRANCH  10  13
BRANCH   1  29
HETATM   29  C   UNL     1      41.511  -8.642   8.853  1.00  0.00     0.276 C 
BRANCH  29  30
HETATM   30  C   UNL     1      42.847  -9.115   9.371  1.00  0.00     0.004 A 
HETATM   31  C   UNL     1      43.704  -9.878   8.559  1.00  0.00     0.048 A 
HETATM   32  C   UNL     1      44.924 -10.358   9.044  1.00  0.00     0.069 A 
HETATM   33  C   UNL     1      45.325 -10.026  10.333  1.00  0.00     0.039 A 
HETATM   34  C   UNL     1      44.508  -9.225  11.140  1.00  0.00     0.040 A 
HETATM   35  C   UNL     1      43.275  -8.770  10.669  1.00  0.00     0.076 A 
BRANCH  32  36
HETATM   36  O   UNL     1      45.604 -11.153   8.167  1.00  0.00    -0.356 OA
HETATM   37  C   UNL     1      44.845 -11.788   7.142  1.00  0.00     0.210 C 
ENDBRANCH  32  36
BRANCH  35  38
HETATM   38  O   UNL     1      42.398  -8.024  11.412  1.00  0.00    -0.355 OA
HETATM   39  C   UNL     1      41.826  -8.639  12.565  1.00  0.00     0.210 C 
ENDBRANCH  35  38
ENDBRANCH  29  30
ENDBRANCH   1  29
TORSDOF 8
ENDMDL
MODEL 9
REMARK VINA RESULT:      -8.5      2.667      9.213
REMARK  8 active torsions:
REMARK  status: ('A' for Active; 'I' for Inactive)
REMARK    1  A    between atoms: O_2  and  C_3 
REMARK    2  A    between atoms: C_5  and  C_6 
REMARK    3  A    between atoms: C_6  and  N_7 
REMARK    4  A    between atoms: C_16  and  C_17 
REMARK    5  A    between atoms: C_17  and  N_18 
REMARK    6  A    between atoms: C_22  and  O_23 
REMARK    7  A    between atoms: C_22  and  C_24 
REMARK    8  A    between atoms: C_34  and  O_35 
ROOT
HETATM    1  N   UNL     1      41.319  -7.988   8.219  1.00  0.00    -0.061 N 
HETATM    2  H   UNL     1      40.322  -7.877   8.429  1.00  0.00     0.280 HD
HETATM    3  C   UNL     1      41.682  -9.346   8.773  1.00  0.00     0.276 C 
HETATM    4  C   UNL     1      43.043  -9.848   8.395  1.00  0.00     0.002 A 
HETATM    5  C   UNL     1      44.178  -9.163   8.825  1.00  0.00     0.076 A 
HETATM    6  O   UNL     1      44.066  -8.068   9.634  1.00  0.00    -0.349 OA
HETATM    7  C   UNL     1      43.550  -6.932   8.927  1.00  0.00     0.203 C 
HETATM    8  C   UNL     1      42.015  -6.862   8.981  1.00  0.00     0.262 C 
HETATM    9  C   UNL     1      43.205 -11.010   7.618  1.00  0.00     0.020 A 
HETATM   10  C   UNL     1      44.484 -11.474   7.257  1.00  0.00    -0.032 A 
HETATM   11  C   UNL     1      45.604 -10.762   7.709  1.00  0.00     0.011 A 
HETATM   12  C   UNL     1      45.452  -9.624   8.507  1.00  0.00     0.038 A 
ENDROOT
BRANCH  10  13
HETATM   13  C   UNL     1      44.639 -12.707   6.396  1.00  0.00     0.273 C 
BRANCH  13  14
HETATM   14  N   UNL     1      43.399 -13.563   6.209  1.00  0.00    -0.067 N 
HETATM   15  H   UNL     1      42.667 -13.072   6.742  1.00  0.00     0.280 HD
HETATM   16  C   UNL     1      42.910 -13.599   4.783  1.00  0.00     0.238 C 
HETATM   17  C   UNL     1      41.588 -14.351   4.706  1.00  0.00     0.071 C 
HETATM   18  C   UNL     1      41.677 -15.780   5.285  1.00  0.00     0.089 C 
HETATM   19  C   UNL     1      42.171 -15.639   6.741  1.00  0.00     0.071 C 
HETATM   20  C   UNL     1      43.516 -14.938   6.817  1.00  0.00     0.238 C 
BRANCH  18  21
HETATM   21  O   UNL     1      40.334 -16.259   5.367  1.00  0.00    -0.385 OA
HETATM   22  H   UNL     1      40.195 -16.735   6.209  1.00  0.00     0.211 HD
ENDBRANCH  18  21
BRANCH  18  23
HETATM   23  C   UNL     1      42.492 -16.780   4.473  1.00  0.00    -0.006 A 
HETATM   24  C   UNL     1      43.412 -17.659   5.043  1.00  0.00     0.126 A 
HETATM   25  N   UNL     1      44.103 -18.600   4.364  1.00  0.00    -0.272 NA
HETATM   26  C   UNL     1      43.948 -18.635   3.026  1.00  0.00     0.116 A 
HETATM   27  C   UNL     1      43.112 -17.776   2.342  1.00  0.00     0.020 A 
HETATM   28  C   UNL     1      42.382 -16.841   3.074  1.00  0.00     0.013 A 
ENDBRANCH  18  23
ENDBRANCH  13  14
ENDBRANCH  10  13
BRANCH   1  29
HETATM   29  C   UNL     1      41.419  -7.806   6.707  1.00  0.00     0.276 C 
BRANCH  29  30
HETATM   30  C   UNL     1      40.581  -8.720   5.847  1.00  0.00     0.004 A 
HETATM   31  C   UNL     1      41.183  -9.597   4.931  1.00  0.00     0.048 A 
HETATM   32  C   UNL     1      40.414 -10.416   4.099  1.00  0.00     0.069 A 
HETATM   33  C   UNL     1      39.029 -10.406   4.222  1.00  0.00     0.039 A 
HETATM   34  C   UNL     1      38.412  -9.575   5.164  1.00  0.00     0.040 A 
HETATM   35  C   UNL     1      39.177  -8.733   5.975  1.00  0.00     0.076 A 
BRANCH  32  36
HETATM   36  O   UNL     1      41.139 -11.150   3.205  1.00  0.00    -0.356 OA
HETATM   37  C   UNL     1      41.632 -10.469   2.054  1.00  0.00     0.210 C 
ENDBRANCH  32  36
BRANCH  35  38
HETATM   38  O   UNL     1      38.648  -7.857   6.886  1.00  0.00    -0.355 OA
HETATM   39  C   UNL     1      37.973  -6.707   6.377  1.00  0.00     0.210 C 
ENDBRANCH  35  38
ENDBRANCH  29  30
ENDBRANCH   1  29
TORSDOF 8
ENDMDL
MODEL 10
REMARK VINA RESULT:      -8.4      5.207     10.003
REMARK  8 active torsions:
REMARK  status: ('A' for Active; 'I' for Inactive)
REMARK    1  A    between atoms: O_2  and  C_3 
REMARK    2  A    between atoms: C_5  and  C_6 
REMARK    3  A    between atoms: C_6  and  N_7 
REMARK    4  A    between atoms: C_16  and  C_17 
REMARK    5  A    between atoms: C_17  and  N_18 
REMARK    6  A    between atoms: C_22  and  O_23 
REMARK    7  A    between atoms: C_22  and  C_24 
REMARK    8  A    between atoms: C_34  and  O_35 
ROOT
HETATM    1  N   UNL     1      40.274  -9.823  -0.712  1.00  0.00    -0.061 N 
HETATM    2  H   UNL     1      40.798  -9.016  -0.357  1.00  0.00     0.280 HD
HETATM    3  C   UNL     1      41.225 -10.990  -0.578  1.00  0.00     0.276 C 
HETATM    4  C   UNL     1      40.619 -12.339  -0.822  1.00  0.00     0.002 A 
HETATM    5  C   UNL     1      40.116 -12.655  -2.082  1.00  0.00     0.076 A 
HETATM    6  O   UNL     1      40.217 -11.766  -3.116  1.00  0.00    -0.349 OA
HETATM    7  C   UNL     1      39.328 -10.653  -2.951  1.00  0.00     0.203 C 
HETATM    8  C   UNL     1      39.983  -9.497  -2.176  1.00  0.00     0.262 C 
HETATM    9  C   UNL     1      40.556 -13.308   0.196  1.00  0.00     0.020 A 
HETATM   10  C   UNL     1      39.980 -14.571  -0.032  1.00  0.00    -0.032 A 
HETATM   11  C   UNL     1      39.485 -14.856  -1.313  1.00  0.00     0.011 A 
HETATM   12  C   UNL     1      39.571 -13.909  -2.338  1.00  0.00     0.038 A 
ENDROOT
BRANCH  10  13
HETATM   13  C   UNL     1      39.891 -15.589   1.081  1.00  0.00     0.273 C 
BRANCH  13  14
HETATM   14  N   UNL     1      41.012 -15.571   2.106  1.00  0.00    -0.067 N 
HETATM   15  H   UNL     1      41.070 -14.587   2.403  1.00  0.00     0.280 HD
HETATM   16  C   UNL     1      40.691 -16.355   3.354  1.00  0.00     0.238 C 
HETATM   17  C   UNL     1      41.796 -16.166   4.385  1.00  0.00     0.071 C 
HETATM   18  C   UNL     1      43.190 -16.551   3.846  1.00  0.00     0.089 C 
HETATM   19  C   UNL     1      43.432 -15.695   2.584  1.00  0.00     0.071 C 
HETATM   20  C   UNL     1      42.362 -15.922   1.532  1.00  0.00     0.238 C 
BRANCH  18  21
HETATM   21  O   UNL     1      44.132 -16.097   4.820  1.00  0.00    -0.385 OA
HETATM   22  H   UNL     1      43.937 -16.496   5.690  1.00  0.00     0.211 HD
ENDBRANCH  18  21
BRANCH  18  23
HETATM   23  C   UNL     1      43.428 -18.038   3.610  1.00  0.00    -0.006 A 
HETATM   24  C   UNL     1      43.931 -18.897   4.587  1.00  0.00     0.126 A 
HETATM   25  N   UNL     1      44.093 -20.229   4.433  1.00  0.00    -0.272 NA
HETATM   26  C   UNL     1      43.824 -20.749   3.220  1.00  0.00     0.116 A 
HETATM   27  C   UNL     1      43.379 -19.989   2.157  1.00  0.00     0.020 A 
HETATM   28  C   UNL     1      43.183 -18.623   2.357  1.00  0.00     0.013 A 
ENDBRANCH  18  23
ENDBRANCH  13  14
ENDBRANCH  10  13
BRANCH   1  29
HETATM   29  C   UNL     1      39.004  -9.862   0.132  1.00  0.00     0.276 C 
BRANCH  29  30
HETATM   30  C   UNL     1      39.157  -9.637   1.616  1.00  0.00     0.004 A 
HETATM   31  C   UNL     1      39.082 -10.711   2.518  1.00  0.00     0.048 A 
HETATM   32  C   UNL     1      39.179 -10.507   3.897  1.00  0.00     0.069 A 
HETATM   33  C   UNL     1      39.414  -9.225   4.383  1.00  0.00     0.039 A 
HETATM   34  C   UNL     1      39.542  -8.149   3.498  1.00  0.00     0.040 A 
HETATM   35  C   UNL     1      39.415  -8.346   2.121  1.00  0.00     0.076 A 
BRANCH  32  36
HETATM   36  O   UNL     1      39.002 -11.634   4.647  1.00  0.00    -0.356 OA
HETATM   37  C   UNL     1      39.737 -12.792   4.262  1.00  0.00     0.210 C 
ENDBRANCH  32  36
BRANCH  35  38
HETATM   38  O   UNL     1      39.478  -7.340   1.193  1.00  0.00    -0.355 OA
HETATM   39  C   UNL     1      40.713  -6.635   1.071  1.00  0.00     0.210 C 
ENDBRANCH  35  38
ENDBRANCH  29  30
ENDBRANCH   1  29
TORSDOF 8
ENDMDL
