MODEL 1
REMARK VINA RESULT:      -8.7      0.000      0.000
REMARK  6 active torsions:
REMARK  status: ('A' for Active; 'I' for Inactive)
REMARK    1  A    between atoms: C_2  and  N_3 
REMARK    2  A    between atoms: C_2  and  C_16 
REMARK    3  A    between atoms: N_3  and  C_5 
REMARK    4  A    between atoms: C_5  and  C_6 
REMARK       I    between atoms: C_16  and  N_17 
REMARK    5  A    between atoms: N_17  and  C_18 
REMARK    6  A    between atoms: C_19  and  C_20 
ROOT
HETATM    1  C   UNL     1      42.457 -15.704   1.855  1.00  0.00     0.253 C 
HETATM    2  N   UNL     1      42.024 -16.781   2.597  1.00  0.00    -0.325 N 
HETATM    3  O   UNL     1      43.613 -15.456   1.520  1.00  0.00    -0.271 OA
HETATM    4  H   UNL     1      41.077 -16.764   2.963  1.00  0.00     0.169 HD
ENDROOT
BRANCH   1   5
HETATM    5  C   UNL     1      41.329 -14.740   1.423  1.00  0.00     0.275 C 
HETATM    6  C   UNL     1      40.097 -15.570   1.059  1.00  0.00     0.050 C 
BRANCH   5   7
HETATM    7  N   UNL     1      40.984 -13.732   2.554  1.00  0.00    -0.059 N 
HETATM    8  H   UNL     1      41.307 -14.202   3.413  1.00  0.00     0.280 HD
HETATM    9  C   UNL     1      39.521 -13.449   2.709  1.00  0.00     0.271 C 
BRANCH   7  10
HETATM   10  C   UNL     1      41.820 -12.454   2.527  1.00  0.00     0.274 C 
BRANCH  10  11
HETATM   11  C   UNL     1      42.412 -12.029   3.844  1.00  0.00    -0.030 A 
HETATM   12  C   UNL     1      43.798 -11.842   3.982  1.00  0.00     0.048 A 
HETATM   13  C   UNL     1      44.284 -11.450   5.212  1.00  0.00     0.105 A 
HETATM   14  C   UNL     1      43.458 -11.241   6.288  1.00  0.00     0.105 A 
HETATM   15  O   UNL     1      45.591 -11.225   5.509  1.00  0.00    -0.323 OA
HETATM   16  O   UNL     1      44.140 -10.857   7.399  1.00  0.00    -0.323 OA
HETATM   17  C   UNL     1      42.095 -11.407   6.195  1.00  0.00     0.040 A 
HETATM   18  C   UNL     1      45.490 -10.807   6.890  1.00  0.00     0.352 A 
HETATM   19  C   UNL     1      41.569 -11.800   4.961  1.00  0.00     0.012 A 
ENDBRANCH  10  11
ENDBRANCH   7  10
ENDBRANCH   5   7
ENDBRANCH   1   5
BRANCH   2  20
HETATM   20  C   UNL     1      42.783 -17.909   3.009  1.00  0.00     0.045 A 
HETATM   21  C   UNL     1      43.255 -17.950   4.346  1.00  0.00     0.001 A 
HETATM   22  C   UNL     1      43.974 -19.077   4.784  1.00  0.00     0.014 A 
HETATM   23  C   UNL     1      44.227 -20.143   3.924  1.00  0.00     0.001 A 
HETATM   24  C   UNL     1      43.768 -20.095   2.613  1.00  0.00     0.002 A 
HETATM   25  C   UNL     1      43.051 -18.986   2.157  1.00  0.00     0.030 A 
BRANCH  21  26
HETATM   26  C   UNL     1      43.057 -16.835   5.285  1.00  0.00    -0.024 A 
HETATM   27  C   UNL     1      44.122 -15.996   5.647  1.00  0.00     0.012 A 
HETATM   28  C   UNL     1      43.928 -14.961   6.564  1.00  0.00     0.001 A 
HETATM   29  C   UNL     1      42.670 -14.748   7.124  1.00  0.00     0.000 A 
HETATM   30  C   UNL     1      41.601 -15.567   6.766  1.00  0.00     0.001 A 
HETATM   31  C   UNL     1      41.793 -16.605   5.852  1.00  0.00     0.012 A 
ENDBRANCH  21  26
ENDBRANCH   2  20
TORSDOF 6
ENDMDL
MODEL 2
REMARK VINA RESULT:      -8.7      1.991      3.967
REMARK  6 active torsions:
REMARK  status: ('A' for Active; 'I' for Inactive)
REMARK    1  A    between atoms: C_2  and  N_3 
REMARK    2  A    between atoms: C_2  and  C_16 
REMARK    3  A    between atoms: N_3  and  C_5 
REMARK    4  A    between atoms: C_5  and  C_6 
REMARK       I    between atoms: C_16  and  N_17 
REMARK    5  A    between atoms: N_17  and  C_18 
REMARK    6  A    between atoms: C_19  and  C_20 
ROOT
HETATM    1  C   UNL     1      41.825 -16.187   5.975  1.00  0.00     0.253 C 
HETATM    2  N   UNL     1      43.036 -16.560   5.435  1.00  0.00    -0.325 N 
HETATM    3  O   UNL     1      40.723 -16.670   5.721  1.00  0.00    -0.271 OA
HETATM    4  H   UNL     1      43.837 -15.955   5.588  1.00  0.00     0.169 HD
ENDROOT
BRANCH   1   5
HETATM    5  C   UNL     1      41.919 -15.038   7.005  1.00  0.00     0.275 C 
HETATM    6  C   UNL     1      43.152 -15.272   7.878  1.00  0.00     0.050 C 
BRANCH   5   7
HETATM    7  N   UNL     1      42.012 -13.656   6.302  1.00  0.00    -0.059 N 
HETATM    8  H   UNL     1      41.775 -12.982   7.045  1.00  0.00     0.280 HD
HETATM    9  C   UNL     1      41.039 -13.463   5.179  1.00  0.00     0.271 C 
BRANCH   7  10
HETATM   10  C   UNL     1      43.432 -13.249   5.912  1.00  0.00     0.274 C 
BRANCH  10  11
HETATM   11  C   UNL     1      43.971 -12.016   6.587  1.00  0.00    -0.030 A 
HETATM   12  C   UNL     1      43.102 -11.027   7.077  1.00  0.00     0.048 A 
HETATM   13  C   UNL     1      43.653  -9.919   7.687  1.00  0.00     0.105 A 
HETATM   14  C   UNL     1      45.009  -9.763   7.825  1.00  0.00     0.105 A 
HETATM   15  O   UNL     1      42.953  -8.879   8.214  1.00  0.00    -0.323 OA
HETATM   16  O   UNL     1      45.336  -8.606   8.458  1.00  0.00    -0.323 OA
HETATM   17  C   UNL     1      45.895 -10.710   7.365  1.00  0.00     0.040 A 
HETATM   18  C   UNL     1      44.027  -8.066   8.741  1.00  0.00     0.352 A 
HETATM   19  C   UNL     1      45.370 -11.847   6.744  1.00  0.00     0.012 A 
ENDBRANCH  10  11
ENDBRANCH   7  10
ENDBRANCH   5   7
ENDBRANCH   1   5
BRANCH   2  20
HETATM   20  C   UNL     1      43.300 -17.668   4.587  1.00  0.00     0.045 A 
HETATM   21  C   UNL     1      43.060 -17.525   3.197  1.00  0.00     0.001 A 
HETATM   22  C   UNL     1      43.353 -18.598   2.336  1.00  0.00     0.014 A 
HETATM   23  C   UNL     1      43.873 -19.792   2.833  1.00  0.00     0.001 A 
HETATM   24  C   UNL     1      44.101 -19.930   4.197  1.00  0.00     0.002 A 
HETATM   25  C   UNL     1      43.817 -18.876   5.070  1.00  0.00     0.030 A 
BRANCH  21  26
HETATM   26  C   UNL     1      42.471 -16.305   2.623  1.00  0.00    -0.024 A 
HETATM   27  C   UNL     1      41.120 -16.261   2.247  1.00  0.00     0.012 A 
HETATM   28  C   UNL     1      40.581 -15.108   1.674  1.00  0.00     0.001 A 
HETATM   29  C   UNL     1      41.382 -13.985   1.474  1.00  0.00     0.000 A 
HETATM   30  C   UNL     1      42.724 -14.011   1.850  1.00  0.00     0.001 A 
HETATM   31  C   UNL     1      43.266 -15.165   2.421  1.00  0.00     0.012 A 
ENDBRANCH  21  26
ENDBRANCH   2  20
TORSDOF 6
ENDMDL
MODEL 3
REMARK VINA RESULT:      -8.5      2.338      4.406
REMARK  6 active torsions:
REMARK  status: ('A' for Active; 'I' for Inactive)
REMARK    1  A    between atoms: C_2  and  N_3 
REMARK    2  A    between atoms: C_2  and  C_16 
REMARK    3  A    between atoms: N_3  and  C_5 
REMARK    4  A    between atoms: C_5  and  C_6 
REMARK       I    between atoms: C_16  and  N_17 
REMARK    5  A    between atoms: N_17  and  C_18 
REMARK    6  A    between atoms: C_19  and  C_20 
ROOT
HETATM    1  C   UNL     1      41.936 -16.258   5.874  1.00  0.00     0.253 C 
HETATM    2  N   UNL     1      43.148 -16.722   5.412  1.00  0.00    -0.325 N 
HETATM    3  O   UNL     1      40.826 -16.728   5.633  1.00  0.00    -0.271 OA
HETATM    4  H   UNL     1      43.966 -16.131   5.530  1.00  0.00     0.169 HD
ENDROOT
BRANCH   1   5
HETATM    5  C   UNL     1      42.041 -15.016   6.788  1.00  0.00     0.275 C 
HETATM    6  C   UNL     1      43.014 -15.334   7.925  1.00  0.00     0.050 C 
BRANCH   5   7
HETATM    7  N   UNL     1      42.527 -13.772   5.996  1.00  0.00    -0.059 N 
HETATM    8  H   UNL     1      42.545 -14.092   5.016  1.00  0.00     0.280 HD
HETATM    9  C   UNL     1      43.906 -13.308   6.353  1.00  0.00     0.271 C 
BRANCH   7  10
HETATM   10  C   UNL     1      41.522 -12.622   5.962  1.00  0.00     0.274 C 
BRANCH  10  11
HETATM   11  C   UNL     1      41.075 -12.180   4.594  1.00  0.00    -0.030 A 
HETATM   12  C   UNL     1      41.956 -11.504   3.733  1.00  0.00     0.048 A 
HETATM   13  C   UNL     1      41.491 -11.124   2.491  1.00  0.00     0.105 A 
HETATM   14  C   UNL     1      40.209 -11.389   2.082  1.00  0.00     0.105 A 
HETATM   15  O   UNL     1      42.214 -10.468   1.545  1.00  0.00    -0.323 OA
HETATM   16  O   UNL     1      39.961 -10.933   0.826  1.00  0.00    -0.323 OA
HETATM   17  C   UNL     1      39.315 -12.054   2.890  1.00  0.00     0.040 A 
HETATM   18  C   UNL     1      41.249 -10.387   0.471  1.00  0.00     0.352 A 
HETATM   19  C   UNL     1      39.755 -12.455   4.155  1.00  0.00     0.012 A 
ENDBRANCH  10  11
ENDBRANCH   7  10
ENDBRANCH   5   7
ENDBRANCH   1   5
BRANCH   2  20
HETATM   20  C   UNL     1      43.397 -17.917   4.686  1.00  0.00     0.045 A 
HETATM   21  C   UNL     1      43.184 -17.910   3.284  1.00  0.00     0.001 A 
HETATM   22  C   UNL     1      43.463 -19.072   2.543  1.00  0.00     0.014 A 
HETATM   23  C   UNL     1      43.943 -20.221   3.168  1.00  0.00     0.001 A 
HETATM   24  C   UNL     1      44.145 -20.225   4.543  1.00  0.00     0.002 A 
HETATM   25  C   UNL     1      43.874 -19.081   5.299  1.00  0.00     0.030 A 
BRANCH  21  26
HETATM   26  C   UNL     1      42.637 -16.741   2.579  1.00  0.00    -0.024 A 
HETATM   27  C   UNL     1      43.446 -15.637   2.271  1.00  0.00     0.012 A 
HETATM   28  C   UNL     1      42.908 -14.520   1.631  1.00  0.00     0.001 A 
HETATM   29  C   UNL     1      41.558 -14.493   1.285  1.00  0.00     0.000 A 
HETATM   30  C   UNL     1      40.744 -15.586   1.576  1.00  0.00     0.001 A 
HETATM   31  C   UNL     1      41.280 -16.703   2.220  1.00  0.00     0.012 A 
ENDBRANCH  21  26
ENDBRANCH   2  20
TORSDOF 6
ENDMDL
MODEL 4
REMARK VINA RESULT:      -8.3      2.393      4.263
REMARK  6 active torsions:
REMARK  status: ('A' for Active; 'I' for Inactive)
REMARK    1  A    between atoms: C_2  and  N_3 
REMARK    2  A    between atoms: C_2  and  C_16 
REMARK    3  A    between atoms: N_3  and  C_5 
REMARK    4  A    between atoms: C_5  and  C_6 
REMARK       I    between atoms: C_16  and  N_17 
REMARK    5  A    between atoms: N_17  and  C_18 
REMARK    6  A    between atoms: C_19  and  C_20 
ROOT
HETATM    1  C   UNL     1      42.241 -16.248   5.843  1.00  0.00     0.253 C 
HETATM    2  N   UNL     1      43.359 -16.725   5.194  1.00  0.00    -0.325 N 
HETATM    3  O   UNL     1      41.091 -16.671   5.740  1.00  0.00    -0.271 OA
HETATM    4  H   UNL     1      44.207 -16.165   5.222  1.00  0.00     0.169 HD
ENDROOT
BRANCH   1   5
HETATM    5  C   UNL     1      42.518 -15.056   6.787  1.00  0.00     0.275 C 
HETATM    6  C   UNL     1      43.228 -15.584   8.035  1.00  0.00     0.050 C 
BRANCH   5   7
HETATM    7  N   UNL     1      43.387 -13.974   6.091  1.00  0.00    -0.059 N 
HETATM    8  H   UNL     1      44.164 -14.508   5.675  1.00  0.00     0.280 HD
HETATM    9  C   UNL     1      43.975 -12.956   7.020  1.00  0.00     0.271 C 
BRANCH   7  10
HETATM   10  C   UNL     1      42.725 -13.330   4.874  1.00  0.00     0.274 C 
BRANCH  10  11
HETATM   11  C   UNL     1      41.495 -12.508   5.151  1.00  0.00    -0.030 A 
HETATM   12  C   UNL     1      41.587 -11.120   5.348  1.00  0.00     0.048 A 
HETATM   13  C   UNL     1      40.426 -10.418   5.598  1.00  0.00     0.105 A 
HETATM   14  C   UNL     1      39.202 -11.035   5.657  1.00  0.00     0.105 A 
HETATM   15  O   UNL     1      40.344  -9.078   5.806  1.00  0.00    -0.323 OA
HETATM   16  O   UNL     1      38.193 -10.160   5.909  1.00  0.00    -0.323 OA
HETATM   17  C   UNL     1      39.065 -12.390   5.464  1.00  0.00     0.040 A 
HETATM   18  C   UNL     1      38.915  -8.912   5.962  1.00  0.00     0.352 A 
HETATM   19  C   UNL     1      40.223 -13.131   5.205  1.00  0.00     0.012 A 
ENDBRANCH  10  11
ENDBRANCH   7  10
ENDBRANCH   5   7
ENDBRANCH   1   5
BRANCH   2  20
HETATM   20  C   UNL     1      43.461 -17.889   4.388  1.00  0.00     0.045 A 
HETATM   21  C   UNL     1      43.096 -17.795   3.021  1.00  0.00     0.001 A 
HETATM   22  C   UNL     1      43.227 -18.928   2.197  1.00  0.00     0.014 A 
HETATM   23  C   UNL     1      43.708 -20.132   2.708  1.00  0.00     0.001 A 
HETATM   24  C   UNL     1      44.059 -20.220   4.050  1.00  0.00     0.002 A 
HETATM   25  C   UNL     1      43.936 -19.108   4.886  1.00  0.00     0.030 A 
BRANCH  21  26
HETATM   26  C   UNL     1      42.541 -16.564   2.439  1.00  0.00    -0.024 A 
HETATM   27  C   UNL     1      43.379 -15.523   2.012  1.00  0.00     0.012 A 
HETATM   28  C   UNL     1      42.839 -14.346   1.491  1.00  0.00     0.001 A 
HETATM   29  C   UNL     1      41.457 -14.196   1.385  1.00  0.00     0.000 A 
HETATM   30  C   UNL     1      40.612 -15.225   1.797  1.00  0.00     0.001 A 
HETATM   31  C   UNL     1      41.151 -16.402   2.321  1.00  0.00     0.012 A 
ENDBRANCH  21  26
ENDBRANCH   2  20
TORSDOF 6
ENDMDL
MODEL 5
REMARK VINA RESULT:      -8.1      2.953      4.934
REMARK  6 active torsions:
REMARK  status: ('A' for Active; 'I' for Inactive)
REMARK    1  A    between atoms: C_2  and  N_3 
REMARK    2  A    between atoms: C_2  and  C_16 
REMARK    3  A    between atoms: N_3  and  C_5 
REMARK    4  A    between atoms: C_5  and  C_6 
REMARK       I    between atoms: C_16  and  N_17 
REMARK    5  A    between atoms: N_17  and  C_18 
REMARK    6  A    between atoms: C_19  and  C_20 
ROOT
HETATM    1  C   UNL     1      41.946 -15.876   5.809  1.00  0.00     0.253 C 
HETATM    2  N   UNL     1      43.056 -16.189   5.054  1.00  0.00    -0.325 N 
HETATM    3  O   UNL     1      40.894 -16.509   5.872  1.00  0.00    -0.271 OA
HETATM    4  H   UNL     1      43.779 -15.483   4.947  1.00  0.00     0.169 HD
ENDROOT
BRANCH   1   5
HETATM    5  C   UNL     1      42.094 -14.585   6.646  1.00  0.00     0.275 C 
HETATM    6  C   UNL     1      43.573 -14.399   6.989  1.00  0.00     0.050 C 
BRANCH   5   7
HETATM    7  N   UNL     1      41.561 -13.348   5.875  1.00  0.00    -0.059 N 
HETATM    8  H   UNL     1      41.666 -13.608   4.883  1.00  0.00     0.280 HD
HETATM    9  C   UNL     1      42.341 -12.089   6.104  1.00  0.00     0.271 C 
BRANCH   7  10
HETATM   10  C   UNL     1      40.055 -13.127   6.013  1.00  0.00     0.274 C 
BRANCH  10  11
HETATM   11  C   UNL     1      39.486 -11.969   5.239  1.00  0.00    -0.030 A 
HETATM   12  C   UNL     1      38.908 -10.875   5.904  1.00  0.00     0.048 A 
HETATM   13  C   UNL     1      38.404  -9.841   5.143  1.00  0.00     0.105 A 
HETATM   14  C   UNL     1      38.454  -9.855   3.772  1.00  0.00     0.105 A 
HETATM   15  O   UNL     1      37.819  -8.715   5.630  1.00  0.00    -0.323 OA
HETATM   16  O   UNL     1      37.907  -8.740   3.221  1.00  0.00    -0.323 OA
HETATM   17  C   UNL     1      39.017 -10.904   3.080  1.00  0.00     0.040 A 
HETATM   18  C   UNL     1      37.542  -7.998   4.404  1.00  0.00     0.352 A 
HETATM   19  C   UNL     1      39.540 -11.967   3.823  1.00  0.00     0.012 A 
ENDBRANCH  10  11
ENDBRANCH   7  10
ENDBRANCH   5   7
ENDBRANCH   1   5
BRANCH   2  20
HETATM   20  C   UNL     1      43.287 -17.373   4.305  1.00  0.00     0.045 A 
HETATM   21  C   UNL     1      42.848 -17.413   2.957  1.00  0.00     0.001 A 
HETATM   22  C   UNL     1      43.103 -18.563   2.188  1.00  0.00     0.014 A 
HETATM   23  C   UNL     1      43.778 -19.654   2.734  1.00  0.00     0.001 A 
HETATM   24  C   UNL     1      44.201 -19.611   4.057  1.00  0.00     0.002 A 
HETATM   25  C   UNL     1      43.958 -18.479   4.839  1.00  0.00     0.030 A 
BRANCH  21  26
HETATM   26  C   UNL     1      42.093 -16.311   2.343  1.00  0.00    -0.024 A 
HETATM   27  C   UNL     1      40.692 -16.349   2.264  1.00  0.00     0.012 A 
HETATM   28  C   UNL     1      39.989 -15.311   1.649  1.00  0.00     0.001 A 
HETATM   29  C   UNL     1      40.674 -14.222   1.113  1.00  0.00     0.000 A 
HETATM   30  C   UNL     1      42.064 -14.167   1.193  1.00  0.00     0.001 A 
HETATM   31  C   UNL     1      42.769 -15.205   1.804  1.00  0.00     0.012 A 
ENDBRANCH  21  26
ENDBRANCH   2  20
TORSDOF 6
ENDMDL
MODEL 6
REMARK VINA RESULT:      -8.0      2.663      5.367
REMARK  6 active torsions:
REMARK  status: ('A' for Active; 'I' for Inactive)
REMARK    1  A    between atoms: C_2  and  N_3 
REMARK    2  A    between atoms: C_2  and  C_16 
REMARK    3  A    between atoms: N_3  and  C_5 
REMARK    4  A    between atoms: C_5  and  C_6 
REMARK       I    between atoms: C_16  and  N_17 
REMARK    5  A    between atoms: N_17  and  C_18 
REMARK    6  A    between atoms: C_19  and  C_20 
ROOT
HETATM    1  C   UNL     1      42.630 -15.824   2.042  1.00  0.00     0.253 C 
HETATM    2  N   UNL     1      42.246 -16.863   2.863  1.00  0.00    -0.325 N 
HETATM    3  O   UNL     1      43.694 -15.719   1.435  1.00  0.00    -0.271 OA
HETATM    4  H   UNL     1      41.427 -16.734   3.450  1.00  0.00     0.169 HD
ENDROOT
BRANCH   1   5
HETATM    5  C   UNL     1      41.575 -14.703   1.906  1.00  0.00     0.275 C 
HETATM    6  C   UNL     1      40.679 -14.730   3.145  1.00  0.00     0.050 C 
BRANCH   5   7
HETATM    7  N   UNL     1      42.247 -13.311   1.759  1.00  0.00    -0.059 N 
HETATM    8  H   UNL     1      43.006 -13.471   1.079  1.00  0.00     0.280 HD
HETATM    9  C   UNL     1      42.863 -12.782   3.018  1.00  0.00     0.271 C 
BRANCH   7  10
HETATM   10  C   UNL     1      41.376 -12.269   1.059  1.00  0.00     0.274 C 
BRANCH  10  11
HETATM   11  C   UNL     1      40.792 -12.682  -0.265  1.00  0.00    -0.030 A 
HETATM   12  C   UNL     1      39.990 -13.831  -0.370  1.00  0.00     0.048 A 
HETATM   13  C   UNL     1      39.480 -14.160  -1.608  1.00  0.00     0.105 A 
HETATM   14  C   UNL     1      39.733 -13.403  -2.724  1.00  0.00     0.105 A 
HETATM   15  O   UNL     1      38.689 -15.232  -1.876  1.00  0.00    -0.323 OA
HETATM   16  O   UNL     1      39.133 -13.901  -3.836  1.00  0.00    -0.323 OA
HETATM   17  C   UNL     1      40.508 -12.267  -2.666  1.00  0.00     0.040 A 
HETATM   18  C   UNL     1      38.436 -15.040  -3.288  1.00  0.00     0.352 A 
HETATM   19  C   UNL     1      41.038 -11.903  -1.424  1.00  0.00     0.012 A 
ENDBRANCH  10  11
ENDBRANCH   7  10
ENDBRANCH   5   7
ENDBRANCH   1   5
BRANCH   2  20
HETATM   20  C   UNL     1      42.919 -18.096   3.070  1.00  0.00     0.045 A 
HETATM   21  C   UNL     1      43.465 -18.357   4.353  1.00  0.00     0.001 A 
HETATM   22  C   UNL     1      44.101 -19.589   4.589  1.00  0.00     0.014 A 
HETATM   23  C   UNL     1      44.199 -20.548   3.583  1.00  0.00     0.001 A 
HETATM   24  C   UNL     1      43.667 -20.285   2.326  1.00  0.00     0.002 A 
HETATM   25  C   UNL     1      43.032 -19.067   2.069  1.00  0.00     0.030 A 
BRANCH  21  26
HETATM   26  C   UNL     1      43.430 -17.365   5.439  1.00  0.00    -0.024 A 
HETATM   27  C   UNL     1      44.596 -16.701   5.850  1.00  0.00     0.012 A 
HETATM   28  C   UNL     1      44.556 -15.786   6.903  1.00  0.00     0.001 A 
HETATM   29  C   UNL     1      43.353 -15.519   7.554  1.00  0.00     0.000 A 
HETATM   30  C   UNL     1      42.185 -16.164   7.150  1.00  0.00     0.001 A 
HETATM   31  C   UNL     1      42.224 -17.082   6.099  1.00  0.00     0.012 A 
ENDBRANCH  21  26
ENDBRANCH   2  20
TORSDOF 6
ENDMDL
MODEL 7
REMARK VINA RESULT:      -7.8      2.436      3.659
REMARK  6 active torsions:
REMARK  status: ('A' for Active; 'I' for Inactive)
REMARK    1  A    between atoms: C_2  and  N_3 
REMARK    2  A    between atoms: C_2  and  C_16 
REMARK    3  A    between atoms: N_3  and  C_5 
REMARK    4  A    between atoms: C_5  and  C_6 
REMARK       I    between atoms: C_16  and  N_17 
REMARK    5  A    between atoms: N_17  and  C_18 
REMARK    6  A    between atoms: C_19  and  C_20 
ROOT
HETATM    1  C   UNL     1      40.834 -14.707   0.796  1.00  0.00     0.253 C 
HETATM    2  N   UNL     1      42.127 -14.851   1.248  1.00  0.00    -0.325 N 
HETATM    3  O   UNL     1      39.901 -15.490   0.966  1.00  0.00    -0.271 OA
HETATM    4  H   UNL     1      42.839 -14.228   0.877  1.00  0.00     0.169 HD
ENDROOT
BRANCH   1   5
HETATM    5  C   UNL     1      40.583 -13.406  -0.000  1.00  0.00     0.275 C 
HETATM    6  C   UNL     1      40.138 -13.784  -1.414  1.00  0.00     0.050 C 
BRANCH   5   7
HETATM    7  N   UNL     1      39.506 -12.522   0.686  1.00  0.00    -0.059 N 
HETATM    8  H   UNL     1      39.086 -13.145   1.392  1.00  0.00     0.280 HD
HETATM    9  C   UNL     1      38.411 -12.058  -0.225  1.00  0.00     0.271 C 
BRANCH   7  10
HETATM   10  C   UNL     1      40.077 -11.384   1.530  1.00  0.00     0.274 C 
BRANCH  10  11
HETATM   11  C   UNL     1      39.816 -11.468   3.010  1.00  0.00    -0.030 A 
HETATM   12  C   UNL     1      39.776 -10.307   3.799  1.00  0.00     0.048 A 
HETATM   13  C   UNL     1      39.532 -10.445   5.150  1.00  0.00     0.105 A 
HETATM   14  C   UNL     1      39.329 -11.671   5.731  1.00  0.00     0.105 A 
HETATM   15  O   UNL     1      39.459  -9.426   6.047  1.00  0.00    -0.323 OA
HETATM   16  O   UNL     1      39.102 -11.580   7.068  1.00  0.00    -0.323 OA
HETATM   17  C   UNL     1      39.354 -12.833   4.994  1.00  0.00     0.040 A 
HETATM   18  C   UNL     1      39.143 -10.150   7.259  1.00  0.00     0.352 A 
HETATM   19  C   UNL     1      39.596 -12.728   3.621  1.00  0.00     0.012 A 
ENDBRANCH  10  11
ENDBRANCH   7  10
ENDBRANCH   5   7
ENDBRANCH   1   5
BRANCH   2  20
HETATM   20  C   UNL     1      42.631 -15.848   2.125  1.00  0.00     0.045 A 
HETATM   21  C   UNL     1      43.091 -15.448   3.406  1.00  0.00     0.001 A 
HETATM   22  C   UNL     1      43.557 -16.427   4.302  1.00  0.00     0.014 A 
HETATM   23  C   UNL     1      43.571 -17.774   3.947  1.00  0.00     0.001 A 
HETATM   24  C   UNL     1      43.126 -18.160   2.689  1.00  0.00     0.002 A 
HETATM   25  C   UNL     1      42.659 -17.205   1.782  1.00  0.00     0.030 A 
BRANCH  21  26
HETATM   26  C   UNL     1      43.140 -14.037   3.818  1.00  0.00    -0.024 A 
HETATM   27  C   UNL     1      42.900 -13.663   5.149  1.00  0.00     0.012 A 
HETATM   28  C   UNL     1      42.917 -12.318   5.521  1.00  0.00     0.001 A 
HETATM   29  C   UNL     1      43.179 -11.332   4.571  1.00  0.00     0.000 A 
HETATM   30  C   UNL     1      43.428 -11.689   3.247  1.00  0.00     0.001 A 
HETATM   31  C   UNL     1      43.408 -13.034   2.872  1.00  0.00     0.012 A 
ENDBRANCH  21  26
ENDBRANCH   2  20
TORSDOF 6
ENDMDL
MODEL 8
REMARK VINA RESULT:      -7.8      2.655      5.625
REMARK  6 active torsions:
REMARK  status: ('A' for Active; 'I' for Inactive)
REMARK    1  A    between atoms: C_2  and  N_3 
REMARK    2  A    between atoms: C_2  and  C_16 
REMARK    3  A    between atoms: N_3  and  C_5 
REMARK    4  A    between atoms: C_5  and  C_6 
REMARK       I    between atoms: C_16  and  N_17 
REMARK    5  A    between atoms: N_17  and  C_18 
REMARK    6  A    between atoms: C_19  and  C_20 
ROOT
HETATM    1  C   UNL     1      41.388 -11.306   2.273  1.00  0.00     0.253 C 
HETATM    2  N   UNL     1      40.439 -12.288   2.090  1.00  0.00    -0.325 N 
HETATM    3  O   UNL     1      42.066 -10.764   1.402  1.00  0.00    -0.271 OA
HETATM    4  H   UNL     1      40.093 -12.780   2.909  1.00  0.00     0.169 HD
ENDROOT
BRANCH   1   5
HETATM    5  C   UNL     1      41.578 -10.876   3.745  1.00  0.00     0.275 C 
HETATM    6  C   UNL     1      41.356  -9.366   3.840  1.00  0.00     0.050 C 
BRANCH   5   7
HETATM    7  N   UNL     1      40.594 -11.625   4.684  1.00  0.00    -0.059 N 
HETATM    8  H   UNL     1      40.402 -12.509   4.189  1.00  0.00     0.280 HD
HETATM    9  C   UNL     1      39.286 -10.925   4.898  1.00  0.00     0.271 C 
BRANCH   7  10
HETATM   10  C   UNL     1      41.219 -12.097   5.996  1.00  0.00     0.274 C 
BRANCH  10  11
HETATM   11  C   UNL     1      41.539 -13.565   6.081  1.00  0.00    -0.030 A 
HETATM   12  C   UNL     1      42.871 -14.011   6.091  1.00  0.00     0.048 A 
HETATM   13  C   UNL     1      43.103 -15.368   6.172  1.00  0.00     0.105 A 
HETATM   14  C   UNL     1      42.080 -16.279   6.243  1.00  0.00     0.105 A 
HETATM   15  O   UNL     1      44.327 -15.958   6.196  1.00  0.00    -0.323 OA
HETATM   16  O   UNL     1      42.529 -17.559   6.321  1.00  0.00    -0.323 OA
HETATM   17  C   UNL     1      40.761 -15.885   6.242  1.00  0.00     0.040 A 
HETATM   18  C   UNL     1      43.958 -17.350   6.333  1.00  0.00     0.352 A 
HETATM   19  C   UNL     1      40.490 -14.516   6.164  1.00  0.00     0.012 A 
ENDBRANCH  10  11
ENDBRANCH   7  10
ENDBRANCH   5   7
ENDBRANCH   1   5
BRANCH   2  20
HETATM   20  C   UNL     1      39.933 -12.784   0.860  1.00  0.00     0.045 A 
HETATM   21  C   UNL     1      40.278 -14.103   0.472  1.00  0.00     0.001 A 
HETATM   22  C   UNL     1      39.754 -14.625  -0.725  1.00  0.00     0.014 A 
HETATM   23  C   UNL     1      38.905 -13.864  -1.526  1.00  0.00     0.001 A 
HETATM   24  C   UNL     1      38.574 -12.569  -1.144  1.00  0.00     0.002 A 
HETATM   25  C   UNL     1      39.084 -12.031   0.040  1.00  0.00     0.030 A 
BRANCH  21  26
HETATM   26  C   UNL     1      41.205 -14.935   1.255  1.00  0.00    -0.024 A 
HETATM   27  C   UNL     1      42.584 -14.674   1.260  1.00  0.00     0.012 A 
HETATM   28  C   UNL     1      43.456 -15.491   1.981  1.00  0.00     0.001 A 
HETATM   29  C   UNL     1      42.964 -16.573   2.709  1.00  0.00     0.000 A 
HETATM   30  C   UNL     1      41.596 -16.839   2.719  1.00  0.00     0.001 A 
HETATM   31  C   UNL     1      40.721 -16.025   1.996  1.00  0.00     0.012 A 
ENDBRANCH  21  26
ENDBRANCH   2  20
TORSDOF 6
ENDMDL
MODEL 9
REMARK VINA RESULT:      -7.7      2.504      5.216
REMARK  6 active torsions:
REMARK  status: ('A' for Active; 'I' for Inactive)
REMARK    1  A    between atoms: C_2  and  N_3 
REMARK    2  A    between atoms: C_2  and  C_16 
REMARK    3  A    between atoms: N_3  and  C_5 
REMARK    4  A    between atoms: C_5  and  C_6 
REMARK       I    between atoms: C_16  and  N_17 
REMARK    5  A    between atoms: N_17  and  C_18 
REMARK    6  A    between atoms: C_19  and  C_20 
ROOT
HETATM    1  C   UNL     1      39.907 -12.443   3.351  1.00  0.00     0.253 C 
HETATM    2  N   UNL     1      40.556 -12.502   2.137  1.00  0.00    -0.325 N 
HETATM    3  O   UNL     1      38.717 -12.668   3.563  1.00  0.00    -0.271 OA
HETATM    4  H   UNL     1      41.490 -12.108   2.073  1.00  0.00     0.169 HD
ENDROOT
BRANCH   1   5
HETATM    5  C   UNL     1      40.816 -12.049   4.537  1.00  0.00     0.275 C 
HETATM    6  C   UNL     1      40.332 -12.792   5.784  1.00  0.00     0.050 C 
BRANCH   5   7
HETATM    7  N   UNL     1      42.302 -12.395   4.248  1.00  0.00    -0.059 N 
HETATM    8  H   UNL     1      42.323 -12.573   3.233  1.00  0.00     0.280 HD
HETATM    9  C   UNL     1      42.800 -13.627   4.940  1.00  0.00     0.271 C 
BRANCH   7  10
HETATM   10  C   UNL     1      43.260 -11.215   4.408  1.00  0.00     0.274 C 
BRANCH  10  11
HETATM   11  C   UNL     1      43.876 -11.048   5.771  1.00  0.00    -0.030 A 
HETATM   12  C   UNL     1      43.104 -10.611   6.860  1.00  0.00     0.048 A 
HETATM   13  C   UNL     1      43.722 -10.478   8.086  1.00  0.00     0.105 A 
HETATM   14  C   UNL     1      45.053 -10.759   8.265  1.00  0.00     0.105 A 
HETATM   15  O   UNL     1      43.118 -10.070   9.234  1.00  0.00    -0.323 OA
HETATM   16  O   UNL     1      45.456 -10.566   9.547  1.00  0.00    -0.323 OA
HETATM   17  C   UNL     1      45.844 -11.196   7.227  1.00  0.00     0.040 A 
HETATM   18  C   UNL     1      44.216 -10.169  10.171  1.00  0.00     0.352 A 
HETATM   19  C   UNL     1      45.248 -11.345   5.971  1.00  0.00     0.012 A 
ENDBRANCH  10  11
ENDBRANCH   7  10
ENDBRANCH   5   7
ENDBRANCH   1   5
BRANCH   2  20
HETATM   20  C   UNL     1      40.040 -12.973   0.901  1.00  0.00     0.045 A 
HETATM   21  C   UNL     1      40.301 -14.317   0.532  1.00  0.00     0.001 A 
HETATM   22  C   UNL     1      39.765 -14.814  -0.670  1.00  0.00     0.014 A 
HETATM   23  C   UNL     1      38.985 -14.004  -1.494  1.00  0.00     0.001 A 
HETATM   24  C   UNL     1      38.737 -12.686  -1.130  1.00  0.00     0.002 A 
HETATM   25  C   UNL     1      39.260 -12.172   0.059  1.00  0.00     0.030 A 
BRANCH  21  26
HETATM   26  C   UNL     1      41.153 -15.203   1.340  1.00  0.00    -0.024 A 
HETATM   27  C   UNL     1      40.626 -15.927   2.419  1.00  0.00     0.012 A 
HETATM   28  C   UNL     1      41.451 -16.739   3.199  1.00  0.00     0.001 A 
HETATM   29  C   UNL     1      42.811 -16.842   2.907  1.00  0.00     0.000 A 
HETATM   30  C   UNL     1      43.346 -16.135   1.832  1.00  0.00     0.001 A 
HETATM   31  C   UNL     1      42.523 -15.320   1.053  1.00  0.00     0.012 A 
ENDBRANCH  21  26
ENDBRANCH   2  20
TORSDOF 6
ENDMDL
MODEL 10
REMARK VINA RESULT:      -7.6      3.376      4.752
REMARK  6 active torsions:
REMARK  status: ('A' for Active; 'I' for Inactive)
REMARK    1  A    between atoms: C_2  and  N_3 
REMARK    2  A    between atoms: C_2  and  C_16 
REMARK    3  A    between atoms: N_3  and  C_5 
REMARK    4  A    between atoms: C_5  and  C_6 
REMARK       I    between atoms: C_16  and  N_17 
REMARK    5  A    between atoms: N_17  and  C_18 
REMARK    6  A    between atoms: C_19  and  C_20 
ROOT
HETATM    1  C   UNL     1      40.561 -14.941   0.858  1.00  0.00     0.253 C 
HETATM    2  N   UNL     1      41.910 -15.020   1.129  1.00  0.00    -0.325 N 
HETATM    3  O   UNL     1      39.668 -15.624   1.354  1.00  0.00    -0.271 OA
HETATM    4  H   UNL     1      42.553 -14.532   0.513  1.00  0.00     0.169 HD
ENDROOT
BRANCH   1   5
HETATM    5  C   UNL     1      40.187 -13.863  -0.185  1.00  0.00     0.275 C 
HETATM    6  C   UNL     1      39.694 -14.567  -1.450  1.00  0.00     0.050 C 
BRANCH   5   7
HETATM    7  N   UNL     1      39.094 -12.905   0.360  1.00  0.00    -0.059 N 
HETATM    8  H   UNL     1      38.452 -13.527   0.874  1.00  0.00     0.280 HD
HETATM    9  C   UNL     1      38.301 -12.201  -0.699  1.00  0.00     0.271 C 
BRANCH   7  10
HETATM   10  C   UNL     1      39.585 -11.949   1.446  1.00  0.00     0.274 C 
BRANCH  10  11
HETATM   11  C   UNL     1      40.130 -10.631   0.964  1.00  0.00    -0.030 A 
HETATM   12  C   UNL     1      41.289 -10.579   0.172  1.00  0.00     0.048 A 
HETATM   13  C   UNL     1      41.741  -9.343  -0.241  1.00  0.00     0.105 A 
HETATM   14  C   UNL     1      41.094  -8.181   0.097  1.00  0.00     0.105 A 
HETATM   15  O   UNL     1      42.840  -9.121  -1.010  1.00  0.00    -0.323 OA
HETATM   16  O   UNL     1      41.703  -7.080  -0.416  1.00  0.00    -0.323 OA
HETATM   17  C   UNL     1      39.953  -8.187   0.866  1.00  0.00     0.040 A 
HETATM   18  C   UNL     1      42.788  -7.683  -1.154  1.00  0.00     0.352 A 
HETATM   19  C   UNL     1      39.466  -9.425   1.299  1.00  0.00     0.012 A 
ENDBRANCH  10  11
ENDBRANCH   7  10
ENDBRANCH   5   7
ENDBRANCH   1   5
BRANCH   2  20
HETATM   20  C   UNL     1      42.546 -15.793   2.136  1.00  0.00     0.045 A 
HETATM   21  C   UNL     1      42.830 -15.175   3.380  1.00  0.00     0.001 A 
HETATM   22  C   UNL     1      43.424 -15.936   4.403  1.00  0.00     0.014 A 
HETATM   23  C   UNL     1      43.735 -17.280   4.207  1.00  0.00     0.001 A 
HETATM   24  C   UNL     1      43.460 -17.879   2.984  1.00  0.00     0.002 A 
HETATM   25  C   UNL     1      42.870 -17.142   1.953  1.00  0.00     0.030 A 
BRANCH  21  26
HETATM   26  C   UNL     1      42.566 -13.749   3.628  1.00  0.00    -0.024 A 
HETATM   27  C   UNL     1      41.489 -13.342   4.430  1.00  0.00     0.012 A 
HETATM   28  C   UNL     1      41.228 -11.985   4.631  1.00  0.00     0.001 A 
HETATM   29  C   UNL     1      42.042 -11.020   4.039  1.00  0.00     0.000 A 
HETATM   30  C   UNL     1      43.120 -11.411   3.247  1.00  0.00     0.001 A 
HETATM   31  C   UNL     1      43.380 -12.767   3.042  1.00  0.00     0.012 A 
ENDBRANCH  21  26
ENDBRANCH   2  20
TORSDOF 6
ENDMDL
