MODEL 1
REMARK VINA RESULT:      -7.8      0.000      0.000
REMARK  4 active torsions:
REMARK  status: ('A' for Active; 'I' for Inactive)
REMARK    1  A    between atoms: C_2  and  C_3 
REMARK    2  A    between atoms: C_3  and  N_4 
REMARK    3  A    between atoms: C_3  and  C_17 
REMARK       I    between atoms: N_4  and  C_5 
REMARK    4  A    between atoms: C_5  and  C_6 
ROOT
HETATM    1  N   UNL     1      43.305 -12.920   4.612  1.00  0.00    -0.345 N 
HETATM    2  C   UNL     1      43.137 -13.878   5.594  1.00  0.00     0.252 C 
HETATM    3  O   UNL     1      42.816 -13.578   6.741  1.00  0.00    -0.268 OA
HETATM    4  H   UNL     1      43.833 -13.218   3.800  1.00  0.00     0.163 HD
ENDROOT
BRANCH   1   5
HETATM    5  C   UNL     1      43.363 -11.487   4.930  1.00  0.00     0.152 C 
BRANCH   5   6
HETATM    6  C   UNL     1      41.953 -10.927   5.169  1.00  0.00     0.028 C 
HETATM    7  C   UNL     1      41.741  -9.524   4.613  1.00  0.00     0.007 C 
ENDBRANCH   5   6
BRANCH   5   8
HETATM    8  C   UNL     1      44.375 -11.156   6.040  1.00  0.00     0.104 A 
HETATM    9  N   UNL     1      44.099 -10.806   7.306  1.00  0.00    -0.347 N 
HETATM   10  H   UNL     1      43.123 -10.710   7.621  1.00  0.00     0.167 HD
HETATM   11  C   UNL     1      45.232 -10.602   8.064  1.00  0.00     0.022 A 
HETATM   12  C   UNL     1      45.199 -10.199   9.478  1.00  0.00     0.069 C 
HETATM   13  C   UNL     1      46.270 -10.863   7.207  1.00  0.00     0.114 A 
HETATM   14  N   UNL     1      45.719 -11.204   5.989  1.00  0.00    -0.352 N 
HETATM   15  H   UNL     1      46.256 -11.462   5.166  1.00  0.00     0.166 HD
ENDBRANCH   5   8
ENDBRANCH   1   5
BRANCH   2  16
HETATM   16  C   UNL     1      43.379 -15.299   5.215  1.00  0.00     0.033 A 
HETATM   17  C   UNL     1      43.058 -15.684   3.899  1.00  0.00     0.031 A 
HETATM   18  C   UNL     1      43.266 -17.020   3.512  1.00  0.00     0.001 A 
HETATM   19  C   UNL     1      43.788 -17.908   4.443  1.00  0.00     0.086 A 
HETATM   20  C   UNL     1      43.071 -17.777   2.326  1.00  0.00     0.046 A 
HETATM   21  O   UNL     1      43.917 -19.146   3.898  1.00  0.00    -0.315 OA
HETATM   22  C   UNL     1      44.133 -17.561   5.747  1.00  0.00     0.039 A 
HETATM   23  C   UNL     1      43.479 -19.064   2.609  1.00  0.00     0.050 A 
HETATM   24  C   UNL     1      43.525 -20.308   1.814  1.00  0.00     0.077 C 
HETATM   25  C   UNL     1      43.925 -16.226   6.119  1.00  0.00     0.020 A 
ENDBRANCH   2  16
TORSDOF 4
ENDMDL
MODEL 2
REMARK VINA RESULT:      -7.8      1.692      2.488
REMARK  4 active torsions:
REMARK  status: ('A' for Active; 'I' for Inactive)
REMARK    1  A    between atoms: C_2  and  C_3 
REMARK    2  A    between atoms: C_3  and  N_4 
REMARK    3  A    between atoms: C_3  and  C_17 
REMARK       I    between atoms: N_4  and  C_5 
REMARK    4  A    between atoms: C_5  and  C_6 
ROOT
HETATM    1  N   UNL     1      42.718 -13.263   5.074  1.00  0.00    -0.345 N 
HETATM    2  C   UNL     1      42.822 -13.753   3.786  1.00  0.00     0.252 C 
HETATM    3  O   UNL     1      42.693 -13.025   2.806  1.00  0.00    -0.268 OA
HETATM    4  H   UNL     1      42.555 -13.959   5.793  1.00  0.00     0.163 HD
ENDROOT
BRANCH   1   5
HETATM    5  C   UNL     1      42.200 -11.916   5.351  1.00  0.00     0.152 C 
BRANCH   5   6
HETATM    6  C   UNL     1      40.677 -11.950   5.547  1.00  0.00     0.028 C 
HETATM    7  C   UNL     1      40.148 -13.287   6.052  1.00  0.00     0.007 C 
ENDBRANCH   5   6
BRANCH   5   8
HETATM    8  C   UNL     1      42.969 -11.195   6.471  1.00  0.00     0.104 A 
HETATM    9  N   UNL     1      44.289 -10.958   6.522  1.00  0.00    -0.347 N 
HETATM   10  H   UNL     1      44.909 -11.291   5.770  1.00  0.00     0.167 HD
HETATM   11  C   UNL     1      44.665 -10.260   7.650  1.00  0.00     0.022 A 
HETATM   12  C   UNL     1      46.056  -9.888   7.946  1.00  0.00     0.069 C 
HETATM   13  C   UNL     1      43.492 -10.041   8.325  1.00  0.00     0.114 A 
HETATM   14  N   UNL     1      42.480 -10.612   7.581  1.00  0.00    -0.352 N 
HETATM   15  H   UNL     1      41.496 -10.590   7.836  1.00  0.00     0.166 HD
ENDBRANCH   5   8
ENDBRANCH   1   5
BRANCH   2  16
HETATM   16  C   UNL     1      43.079 -15.213   3.627  1.00  0.00     0.033 A 
HETATM   17  C   UNL     1      43.295 -15.966   4.797  1.00  0.00     0.031 A 
HETATM   18  C   UNL     1      43.550 -17.344   4.681  1.00  0.00     0.001 A 
HETATM   19  C   UNL     1      43.572 -17.911   3.414  1.00  0.00     0.086 A 
HETATM   20  C   UNL     1      43.815 -18.409   5.583  1.00  0.00     0.046 A 
HETATM   21  O   UNL     1      43.835 -19.243   3.493  1.00  0.00    -0.315 OA
HETATM   22  C   UNL     1      43.347 -17.203   2.236  1.00  0.00     0.039 A 
HETATM   23  C   UNL     1      43.983 -19.543   4.815  1.00  0.00     0.050 A 
HETATM   24  C   UNL     1      44.281 -20.952   5.144  1.00  0.00     0.077 C 
HETATM   25  C   UNL     1      43.090 -15.832   2.366  1.00  0.00     0.020 A 
ENDBRANCH   2  16
TORSDOF 4
ENDMDL
MODEL 3
REMARK VINA RESULT:      -7.8      1.703      2.775
REMARK  4 active torsions:
REMARK  status: ('A' for Active; 'I' for Inactive)
REMARK    1  A    between atoms: C_2  and  C_3 
REMARK    2  A    between atoms: C_3  and  N_4 
REMARK    3  A    between atoms: C_3  and  C_17 
REMARK       I    between atoms: N_4  and  C_5 
REMARK    4  A    between atoms: C_5  and  C_6 
ROOT
HETATM    1  N   UNL     1      43.609 -12.966   5.831  1.00  0.00    -0.345 N 
HETATM    2  C   UNL     1      43.372 -14.287   6.160  1.00  0.00     0.252 C 
HETATM    3  O   UNL     1      43.312 -14.662   7.327  1.00  0.00    -0.268 OA
HETATM    4  H   UNL     1      43.920 -12.803   4.879  1.00  0.00     0.163 HD
ENDROOT
BRANCH   1   5
HETATM    5  C   UNL     1      44.053 -11.987   6.831  1.00  0.00     0.152 C 
BRANCH   5   6
HETATM    6  C   UNL     1      45.489 -11.526   6.539  1.00  0.00     0.028 C 
HETATM    7  C   UNL     1      46.102 -10.673   7.643  1.00  0.00     0.007 C 
ENDBRANCH   5   6
BRANCH   5   8
HETATM    8  C   UNL     1      43.049 -10.841   7.040  1.00  0.00     0.104 A 
HETATM    9  N   UNL     1      42.570 -10.389   8.210  1.00  0.00    -0.347 N 
HETATM   10  H   UNL     1      42.853 -10.832   9.096  1.00  0.00     0.167 HD
HETATM   11  C   UNL     1      41.703  -9.327   8.060  1.00  0.00     0.022 A 
HETATM   12  C   UNL     1      41.036  -8.661   9.188  1.00  0.00     0.069 C 
HETATM   13  C   UNL     1      41.664  -9.105   6.707  1.00  0.00     0.114 A 
HETATM   14  N   UNL     1      42.496 -10.033   6.116  1.00  0.00    -0.352 N 
HETATM   15  H   UNL     1      42.672 -10.094   5.117  1.00  0.00     0.166 HD
ENDBRANCH   5   8
ENDBRANCH   1   5
BRANCH   2  16
HETATM   16  C   UNL     1      43.209 -15.255   5.037  1.00  0.00     0.033 A 
HETATM   17  C   UNL     1      43.759 -16.541   5.204  1.00  0.00     0.031 A 
HETATM   18  C   UNL     1      43.632 -17.475   4.160  1.00  0.00     0.001 A 
HETATM   19  C   UNL     1      42.960 -17.094   3.006  1.00  0.00     0.086 A 
HETATM   20  C   UNL     1      44.037 -18.819   3.943  1.00  0.00     0.046 A 
HETATM   21  O   UNL     1      42.937 -18.116   2.111  1.00  0.00    -0.315 OA
HETATM   22  C   UNL     1      42.389 -15.839   2.812  1.00  0.00     0.039 A 
HETATM   23  C   UNL     1      43.594 -19.165   2.683  1.00  0.00     0.050 A 
HETATM   24  C   UNL     1      43.696 -20.401   1.879  1.00  0.00     0.077 C 
HETATM   25  C   UNL     1      42.520 -14.919   3.861  1.00  0.00     0.020 A 
ENDBRANCH   2  16
TORSDOF 4
ENDMDL
MODEL 4
REMARK VINA RESULT:      -7.6      2.424      7.643
REMARK  4 active torsions:
REMARK  status: ('A' for Active; 'I' for Inactive)
REMARK    1  A    between atoms: C_2  and  C_3 
REMARK    2  A    between atoms: C_3  and  N_4 
REMARK    3  A    between atoms: C_3  and  C_17 
REMARK       I    between atoms: N_4  and  C_5 
REMARK    4  A    between atoms: C_5  and  C_6 
ROOT
HETATM    1  N   UNL     1      42.416 -14.749   3.776  1.00  0.00    -0.345 N 
HETATM    2  C   UNL     1      42.134 -14.576   5.118  1.00  0.00     0.252 C 
HETATM    3  O   UNL     1      41.597 -15.457   5.784  1.00  0.00    -0.268 OA
HETATM    4  H   UNL     1      42.589 -13.897   3.254  1.00  0.00     0.163 HD
ENDROOT
BRANCH   1   5
HETATM    5  C   UNL     1      41.869 -15.876   3.008  1.00  0.00     0.152 C 
BRANCH   5   6
HETATM    6  C   UNL     1      41.563 -15.451   1.565  1.00  0.00     0.028 C 
HETATM    7  C   UNL     1      40.076 -15.424   1.229  1.00  0.00     0.007 C 
ENDBRANCH   5   6
BRANCH   5   8
HETATM    8  C   UNL     1      42.716 -17.154   3.128  1.00  0.00     0.104 A 
HETATM    9  N   UNL     1      42.712 -18.207   2.297  1.00  0.00    -0.347 N 
HETATM   10  H   UNL     1      42.077 -18.229   1.485  1.00  0.00     0.167 HD
HETATM   11  C   UNL     1      43.610 -19.185   2.666  1.00  0.00     0.022 A 
HETATM   12  C   UNL     1      43.788 -20.444   1.926  1.00  0.00     0.069 C 
HETATM   13  C   UNL     1      44.217 -18.687   3.790  1.00  0.00     0.114 A 
HETATM   14  N   UNL     1      43.660 -17.450   4.041  1.00  0.00    -0.352 N 
HETATM   15  H   UNL     1      43.931 -16.842   4.809  1.00  0.00     0.166 HD
ENDBRANCH   5   8
ENDBRANCH   1   5
BRANCH   2  16
HETATM   16  C   UNL     1      42.491 -13.265   5.731  1.00  0.00     0.033 A 
HETATM   17  C   UNL     1      43.803 -13.112   6.222  1.00  0.00     0.031 A 
HETATM   18  C   UNL     1      44.169 -11.891   6.814  1.00  0.00     0.001 A 
HETATM   19  C   UNL     1      43.223 -10.878   6.886  1.00  0.00     0.086 A 
HETATM   20  C   UNL     1      45.344 -11.363   7.412  1.00  0.00     0.046 A 
HETATM   21  O   UNL     1      43.749  -9.779   7.489  1.00  0.00    -0.315 OA
HETATM   22  C   UNL     1      41.924 -10.985   6.397  1.00  0.00     0.039 A 
HETATM   23  C   UNL     1      45.041 -10.077   7.809  1.00  0.00     0.050 A 
HETATM   24  C   UNL     1      45.817  -9.017   8.484  1.00  0.00     0.077 C 
HETATM   25  C   UNL     1      41.572 -12.205   5.806  1.00  0.00     0.020 A 
ENDBRANCH   2  16
TORSDOF 4
ENDMDL
MODEL 5
REMARK VINA RESULT:      -7.6      4.423      6.575
REMARK  4 active torsions:
REMARK  status: ('A' for Active; 'I' for Inactive)
REMARK    1  A    between atoms: C_2  and  C_3 
REMARK    2  A    between atoms: C_3  and  N_4 
REMARK    3  A    between atoms: C_3  and  C_17 
REMARK       I    between atoms: N_4  and  C_5 
REMARK    4  A    between atoms: C_5  and  C_6 
ROOT
HETATM    1  N   UNL     1      41.684 -13.587   1.387  1.00  0.00    -0.345 N 
HETATM    2  C   UNL     1      41.260 -14.885   1.601  1.00  0.00     0.252 C 
HETATM    3  O   UNL     1      40.258 -15.335   1.053  1.00  0.00    -0.268 OA
HETATM    4  H   UNL     1      42.330 -13.220   2.078  1.00  0.00     0.163 HD
ENDROOT
BRANCH   1   5
HETATM    5  C   UNL     1      40.838 -12.598   0.706  1.00  0.00     0.152 C 
BRANCH   5   6
HETATM    6  C   UNL     1      41.384 -11.178   0.920  1.00  0.00     0.028 C 
HETATM    7  C   UNL     1      42.078 -10.978   2.262  1.00  0.00     0.007 C 
ENDBRANCH   5   6
BRANCH   5   8
HETATM    8  C   UNL     1      40.557 -12.955  -0.763  1.00  0.00     0.104 A 
HETATM    9  N   UNL     1      39.502 -13.634  -1.242  1.00  0.00    -0.347 N 
HETATM   10  H   UNL     1      38.782 -14.000  -0.602  1.00  0.00     0.167 HD
HETATM   11  C   UNL     1      39.528 -13.767  -2.614  1.00  0.00     0.022 A 
HETATM   12  C   UNL     1      38.493 -14.478  -3.379  1.00  0.00     0.069 C 
HETATM   13  C   UNL     1      40.666 -13.107  -3.000  1.00  0.00     0.114 A 
HETATM   14  N   UNL     1      41.265 -12.620  -1.857  1.00  0.00    -0.352 N 
HETATM   15  H   UNL     1      42.122 -12.075  -1.844  1.00  0.00     0.166 HD
ENDBRANCH   5   8
ENDBRANCH   1   5
BRANCH   2  16
HETATM   16  C   UNL     1      42.057 -15.720   2.544  1.00  0.00     0.033 A 
HETATM   17  C   UNL     1      42.260 -17.072   2.201  1.00  0.00     0.031 A 
HETATM   18  C   UNL     1      42.999 -17.890   3.073  1.00  0.00     0.001 A 
HETATM   19  C   UNL     1      43.508 -17.330   4.237  1.00  0.00     0.086 A 
HETATM   20  C   UNL     1      43.404 -19.252   3.092  1.00  0.00     0.046 A 
HETATM   21  O   UNL     1      44.188 -18.264   4.955  1.00  0.00    -0.315 OA
HETATM   22  C   UNL     1      43.343 -15.997   4.601  1.00  0.00     0.039 A 
HETATM   23  C   UNL     1      44.123 -19.433   4.256  1.00  0.00     0.050 A 
HETATM   24  C   UNL     1      44.799 -20.601   4.855  1.00  0.00     0.077 C 
HETATM   25  C   UNL     1      42.608 -15.191   3.722  1.00  0.00     0.020 A 
ENDBRANCH   2  16
TORSDOF 4
ENDMDL
MODEL 6
REMARK VINA RESULT:      -7.5      1.530      1.979
REMARK  4 active torsions:
REMARK  status: ('A' for Active; 'I' for Inactive)
REMARK    1  A    between atoms: C_2  and  C_3 
REMARK    2  A    between atoms: C_3  and  N_4 
REMARK    3  A    between atoms: C_3  and  C_17 
REMARK       I    between atoms: N_4  and  C_5 
REMARK    4  A    between atoms: C_5  and  C_6 
ROOT
HETATM    1  N   UNL     1      42.334 -12.829   5.838  1.00  0.00    -0.345 N 
HETATM    2  C   UNL     1      42.965 -13.286   4.697  1.00  0.00     0.252 C 
HETATM    3  O   UNL     1      43.322 -12.520   3.806  1.00  0.00    -0.268 OA
HETATM    4  H   UNL     1      41.831 -13.532   6.369  1.00  0.00     0.163 HD
ENDROOT
BRANCH   1   5
HETATM    5  C   UNL     1      41.825 -11.454   5.945  1.00  0.00     0.152 C 
BRANCH   5   6
HETATM    6  C   UNL     1      40.295 -11.451   6.074  1.00  0.00     0.028 C 
HETATM    7  C   UNL     1      39.667 -12.839   6.031  1.00  0.00     0.007 C 
ENDBRANCH   5   6
BRANCH   5   8
HETATM    8  C   UNL     1      42.555 -10.624   7.013  1.00  0.00     0.104 A 
HETATM    9  N   UNL     1      43.861 -10.315   7.044  1.00  0.00    -0.347 N 
HETATM   10  H   UNL     1      44.498 -10.662   6.312  1.00  0.00     0.167 HD
HETATM   11  C   UNL     1      44.201  -9.529   8.124  1.00  0.00     0.022 A 
HETATM   12  C   UNL     1      45.571  -9.066   8.391  1.00  0.00     0.069 C 
HETATM   13  C   UNL     1      43.018  -9.329   8.789  1.00  0.00     0.114 A 
HETATM   14  N   UNL     1      42.037  -9.999   8.087  1.00  0.00    -0.352 N 
HETATM   15  H   UNL     1      41.054 -10.013   8.344  1.00  0.00     0.166 HD
ENDBRANCH   5   8
ENDBRANCH   1   5
BRANCH   2  16
HETATM   16  C   UNL     1      43.182 -14.756   4.575  1.00  0.00     0.033 A 
HETATM   17  C   UNL     1      42.996 -15.336   3.305  1.00  0.00     0.031 A 
HETATM   18  C   UNL     1      43.183 -16.722   3.157  1.00  0.00     0.001 A 
HETATM   19  C   UNL     1      43.552 -17.465   4.271  1.00  0.00     0.086 A 
HETATM   20  C   UNL     1      43.090 -17.652   2.088  1.00  0.00     0.046 A 
HETATM   21  O   UNL     1      43.684 -18.778   3.944  1.00  0.00    -0.315 OA
HETATM   22  C   UNL     1      43.761 -16.925   5.537  1.00  0.00     0.039 A 
HETATM   23  C   UNL     1      43.401 -18.890   2.614  1.00  0.00     0.050 A 
HETATM   24  C   UNL     1      43.480 -20.245   2.033  1.00  0.00     0.077 C 
HETATM   25  C   UNL     1      43.575 -15.542   5.670  1.00  0.00     0.020 A 
ENDBRANCH   2  16
TORSDOF 4
ENDMDL
MODEL 7
REMARK VINA RESULT:      -7.5      4.754      7.415
REMARK  4 active torsions:
REMARK  status: ('A' for Active; 'I' for Inactive)
REMARK    1  A    between atoms: C_2  and  C_3 
REMARK    2  A    between atoms: C_3  and  N_4 
REMARK    3  A    between atoms: C_3  and  C_17 
REMARK       I    between atoms: N_4  and  C_5 
REMARK    4  A    between atoms: C_5  and  C_6 
ROOT
HETATM    1  N   UNL     1      42.161 -15.391   3.379  1.00  0.00    -0.345 N 
HETATM    2  C   UNL     1      42.502 -14.735   2.212  1.00  0.00     0.252 C 
HETATM    3  O   UNL     1      43.660 -14.696   1.807  1.00  0.00    -0.268 OA
HETATM    4  H   UNL     1      41.264 -15.136   3.776  1.00  0.00     0.163 HD
ENDROOT
BRANCH   1   5
HETATM    5  C   UNL     1      43.178 -15.859   4.331  1.00  0.00     0.152 C 
BRANCH   5   6
HETATM    6  C   UNL     1      42.780 -15.499   5.770  1.00  0.00     0.028 C 
HETATM    7  C   UNL     1      43.579 -14.345   6.364  1.00  0.00     0.007 C 
ENDBRANCH   5   6
BRANCH   5   8
HETATM    8  C   UNL     1      43.561 -17.334   4.127  1.00  0.00     0.104 A 
HETATM    9  N   UNL     1      43.373 -18.072   3.022  1.00  0.00    -0.347 N 
HETATM   10  H   UNL     1      42.907 -17.668   2.197  1.00  0.00     0.167 HD
HETATM   11  C   UNL     1      43.854 -19.358   3.148  1.00  0.00     0.022 A 
HETATM   12  C   UNL     1      43.759 -20.367   2.082  1.00  0.00     0.069 C 
HETATM   13  C   UNL     1      44.388 -19.402   4.410  1.00  0.00     0.114 A 
HETATM   14  N   UNL     1      44.202 -18.158   4.976  1.00  0.00    -0.352 N 
HETATM   15  H   UNL     1      44.514 -17.897   5.908  1.00  0.00     0.166 HD
ENDBRANCH   5   8
ENDBRANCH   1   5
BRANCH   2  16
HETATM   16  C   UNL     1      41.408 -14.051   1.465  1.00  0.00     0.033 A 
HETATM   17  C   UNL     1      40.879 -14.713   0.339  1.00  0.00     0.031 A 
HETATM   18  C   UNL     1      39.853 -14.091  -0.394  1.00  0.00     0.001 A 
HETATM   19  C   UNL     1      39.394 -12.850   0.026  1.00  0.00     0.086 A 
HETATM   20  C   UNL     1      39.090 -14.413  -1.549  1.00  0.00     0.046 A 
HETATM   21  O   UNL     1      38.409 -12.404  -0.798  1.00  0.00    -0.315 OA
HETATM   22  C   UNL     1      39.879 -12.174   1.143  1.00  0.00     0.039 A 
HETATM   23  C   UNL     1      38.227 -13.357  -1.757  1.00  0.00     0.050 A 
HETATM   24  C   UNL     1      37.193 -13.080  -2.776  1.00  0.00     0.077 C 
HETATM   25  C   UNL     1      40.899 -12.805   1.867  1.00  0.00     0.020 A 
ENDBRANCH   2  16
TORSDOF 4
ENDMDL
MODEL 8
REMARK VINA RESULT:      -7.5      4.100      6.003
REMARK  4 active torsions:
REMARK  status: ('A' for Active; 'I' for Inactive)
REMARK    1  A    between atoms: C_2  and  C_3 
REMARK    2  A    between atoms: C_3  and  N_4 
REMARK    3  A    between atoms: C_3  and  C_17 
REMARK       I    between atoms: N_4  and  C_5 
REMARK    4  A    between atoms: C_5  and  C_6 
ROOT
HETATM    1  N   UNL     1      40.880 -14.594   1.319  1.00  0.00    -0.345 N 
HETATM    2  C   UNL     1      42.067 -14.317   1.970  1.00  0.00     0.252 C 
HETATM    3  O   UNL     1      42.674 -13.266   1.786  1.00  0.00    -0.268 OA
HETATM    4  H   UNL     1      40.606 -15.570   1.310  1.00  0.00     0.163 HD
ENDROOT
BRANCH   1   5
HETATM    5  C   UNL     1      40.405 -13.780   0.192  1.00  0.00     0.152 C 
BRANCH   5   6
HETATM    6  C   UNL     1      39.687 -14.656  -0.845  1.00  0.00     0.028 C 
HETATM    7  C   UNL     1      39.916 -14.221  -2.288  1.00  0.00     0.007 C 
ENDBRANCH   5   6
BRANCH   5   8
HETATM    8  C   UNL     1      39.611 -12.541   0.637  1.00  0.00     0.104 A 
HETATM    9  N   UNL     1      38.333 -12.253   0.345  1.00  0.00    -0.347 N 
HETATM   10  H   UNL     1      37.780 -12.881  -0.256  1.00  0.00     0.167 HD
HETATM   11  C   UNL     1      37.903 -11.076   0.920  1.00  0.00     0.022 A 
HETATM   12  C   UNL     1      36.548 -10.534   0.743  1.00  0.00     0.069 C 
HETATM   13  C   UNL     1      38.989 -10.624   1.626  1.00  0.00     0.114 A 
HETATM   14  N   UNL     1      40.006 -11.537   1.441  1.00  0.00    -0.352 N 
HETATM   15  H   UNL     1      40.928 -11.463   1.861  1.00  0.00     0.166 HD
ENDBRANCH   5   8
ENDBRANCH   1   5
BRANCH   2  16
HETATM   16  C   UNL     1      42.600 -15.356   2.896  1.00  0.00     0.033 A 
HETATM   17  C   UNL     1      42.813 -16.646   2.372  1.00  0.00     0.031 A 
HETATM   18  C   UNL     1      43.307 -17.652   3.222  1.00  0.00     0.001 A 
HETATM   19  C   UNL     1      43.572 -17.331   4.547  1.00  0.00     0.086 A 
HETATM   20  C   UNL     1      43.636 -19.027   3.086  1.00  0.00     0.046 A 
HETATM   21  O   UNL     1      44.035 -18.420   5.215  1.00  0.00    -0.315 OA
HETATM   22  C   UNL     1      43.390 -16.065   5.096  1.00  0.00     0.039 A 
HETATM   23  C   UNL     1      44.073 -19.451   4.324  1.00  0.00     0.050 A 
HETATM   24  C   UNL     1      44.550 -20.752   4.837  1.00  0.00     0.077 C 
HETATM   25  C   UNL     1      42.901 -15.070   4.238  1.00  0.00     0.020 A 
ENDBRANCH   2  16
TORSDOF 4
ENDMDL
MODEL 9
REMARK VINA RESULT:      -7.4      1.225      2.959
REMARK  4 active torsions:
REMARK  status: ('A' for Active; 'I' for Inactive)
REMARK    1  A    between atoms: C_2  and  C_3 
REMARK    2  A    between atoms: C_3  and  N_4 
REMARK    3  A    between atoms: C_3  and  C_17 
REMARK       I    between atoms: N_4  and  C_5 
REMARK    4  A    between atoms: C_5  and  C_6 
ROOT
HETATM    1  N   UNL     1      43.727 -13.490   5.778  1.00  0.00    -0.345 N 
HETATM    2  C   UNL     1      42.873 -14.518   6.128  1.00  0.00     0.252 C 
HETATM    3  O   UNL     1      41.911 -14.334   6.870  1.00  0.00    -0.268 OA
HETATM    4  H   UNL     1      44.627 -13.778   5.410  1.00  0.00     0.163 HD
ENDROOT
BRANCH   1   5
HETATM    5  C   UNL     1      43.696 -12.190   6.461  1.00  0.00     0.152 C 
BRANCH   5   6
HETATM    6  C   UNL     1      45.062 -11.493   6.364  1.00  0.00     0.028 C 
HETATM    7  C   UNL     1      45.569 -10.939   7.690  1.00  0.00     0.007 C 
ENDBRANCH   5   6
BRANCH   5   8
HETATM    8  C   UNL     1      42.505 -11.314   6.035  1.00  0.00     0.104 A 
HETATM    9  N   UNL     1      42.470 -10.436   5.021  1.00  0.00    -0.347 N 
HETATM   10  H   UNL     1      43.307 -10.272   4.443  1.00  0.00     0.167 HD
HETATM   11  C   UNL     1      41.241  -9.828   4.881  1.00  0.00     0.022 A 
HETATM   12  C   UNL     1      40.948  -8.819   3.852  1.00  0.00     0.069 C 
HETATM   13  C   UNL     1      40.468 -10.386   5.867  1.00  0.00     0.114 A 
HETATM   14  N   UNL     1      41.260 -11.289   6.545  1.00  0.00    -0.352 N 
HETATM   15  H   UNL     1      40.943 -11.863   7.322  1.00  0.00     0.166 HD
ENDBRANCH   5   8
ENDBRANCH   1   5
BRANCH   2  16
HETATM   16  C   UNL     1      43.171 -15.874   5.585  1.00  0.00     0.033 A 
HETATM   17  C   UNL     1      42.926 -16.093   4.216  1.00  0.00     0.031 A 
HETATM   18  C   UNL     1      43.188 -17.364   3.674  1.00  0.00     0.001 A 
HETATM   19  C   UNL     1      43.687 -18.353   4.511  1.00  0.00     0.086 A 
HETATM   20  C   UNL     1      43.072 -17.967   2.393  1.00  0.00     0.046 A 
HETATM   21  O   UNL     1      43.875 -19.509   3.821  1.00  0.00    -0.315 OA
HETATM   22  C   UNL     1      43.957 -18.169   5.864  1.00  0.00     0.039 A 
HETATM   23  C   UNL     1      43.500 -19.271   2.531  1.00  0.00     0.050 A 
HETATM   24  C   UNL     1      43.619 -20.402   1.588  1.00  0.00     0.077 C 
HETATM   25  C   UNL     1      43.695 -16.898   6.392  1.00  0.00     0.020 A 
ENDBRANCH   2  16
TORSDOF 4
ENDMDL
MODEL 10
REMARK VINA RESULT:      -7.4      3.678      4.892
REMARK  4 active torsions:
REMARK  status: ('A' for Active; 'I' for Inactive)
REMARK    1  A    between atoms: C_2  and  C_3 
REMARK    2  A    between atoms: C_3  and  N_4 
REMARK    3  A    between atoms: C_3  and  C_17 
REMARK       I    between atoms: N_4  and  C_5 
REMARK    4  A    between atoms: C_5  and  C_6 
ROOT
HETATM    1  N   UNL     1      42.588 -14.425   4.816  1.00  0.00    -0.345 N 
HETATM    2  C   UNL     1      41.290 -14.092   4.477  1.00  0.00     0.252 C 
HETATM    3  O   UNL     1      40.524 -13.574   5.284  1.00  0.00    -0.268 OA
HETATM    4  H   UNL     1      43.043 -15.088   4.199  1.00  0.00     0.163 HD
ENDROOT
BRANCH   1   5
HETATM    5  C   UNL     1      43.049 -14.420   6.211  1.00  0.00     0.152 C 
BRANCH   5   6
HETATM    6  C   UNL     1      44.068 -15.544   6.449  1.00  0.00     0.028 C 
HETATM    7  C   UNL     1      44.011 -16.661   5.413  1.00  0.00     0.007 C 
ENDBRANCH   5   6
BRANCH   5   8
HETATM    8  C   UNL     1      43.512 -13.032   6.687  1.00  0.00     0.104 A 
HETATM    9  N   UNL     1      44.777 -12.610   6.838  1.00  0.00    -0.347 N 
HETATM   10  H   UNL     1      45.566 -13.246   6.652  1.00  0.00     0.167 HD
HETATM   11  C   UNL     1      44.858 -11.299   7.255  1.00  0.00     0.022 A 
HETATM   12  C   UNL     1      46.130 -10.605   7.505  1.00  0.00     0.069 C 
HETATM   13  C   UNL     1      43.553 -10.887   7.348  1.00  0.00     0.114 A 
HETATM   14  N   UNL     1      42.761 -11.958   6.989  1.00  0.00    -0.352 N 
HETATM   15  H   UNL     1      41.745 -11.935   6.953  1.00  0.00     0.166 HD
ENDBRANCH   5   8
ENDBRANCH   1   5
BRANCH   2  16
HETATM   16  C   UNL     1      40.842 -14.404   3.089  1.00  0.00     0.033 A 
HETATM   17  C   UNL     1      41.002 -13.400   2.114  1.00  0.00     0.031 A 
HETATM   18  C   UNL     1      40.581 -13.658   0.797  1.00  0.00     0.001 A 
HETATM   19  C   UNL     1      40.030 -14.899   0.508  1.00  0.00     0.086 A 
HETATM   20  C   UNL     1      40.564 -12.934  -0.425  1.00  0.00     0.046 A 
HETATM   21  O   UNL     1      39.679 -14.968  -0.804  1.00  0.00    -0.315 OA
HETATM   22  C   UNL     1      39.871 -15.921   1.440  1.00  0.00     0.039 A 
HETATM   23  C   UNL     1      40.005 -13.771  -1.369  1.00  0.00     0.050 A 
HETATM   24  C   UNL     1      39.708 -13.616  -2.808  1.00  0.00     0.077 C 
HETATM   25  C   UNL     1      40.297 -15.653   2.747  1.00  0.00     0.020 A 
ENDBRANCH   2  16
TORSDOF 4
ENDMDL
