MODEL 1
REMARK VINA RESULT:      -8.5      0.000      0.000
REMARK  6 active torsions:
REMARK  status: ('A' for Active; 'I' for Inactive)
REMARK    1  A    between atoms: C_2  and  O_3 
REMARK    2  A    between atoms: C_2  and  C_4 
REMARK    3  A    between atoms: C_6  and  N_7 
REMARK       I    between atoms: N_7  and  C_8 
REMARK    4  A    between atoms: C_8  and  C_9 
REMARK    5  A    between atoms: C_12  and  C_13 
REMARK    6  A    between atoms: C_18  and  C_19 
ROOT
HETATM    1  C   UNL     1      40.819 -13.635   2.013  1.00  0.00     0.096 A 
HETATM    2  C   UNL     1      40.540 -12.976   0.831  1.00  0.00     0.138 A 
HETATM    3  N   UNL     1      39.366 -12.292   1.023  1.00  0.00    -0.240 N 
HETATM    4  C   UNL     1      38.663 -11.567  -0.023  1.00  0.00     0.221 C 
HETATM    5  C   UNL     1      39.590 -11.320  -1.233  1.00  0.00     0.068 C 
HETATM    6  C   UNL     1      40.429 -12.561  -1.569  1.00  0.00     0.143 C 
HETATM    7  N   UNL     1      41.180 -12.931  -0.366  1.00  0.00    -0.363 N 
HETATM    8  N   UNL     1      38.817 -12.518   2.228  1.00  0.00    -0.181 NA
HETATM    9  C   UNL     1      39.712 -13.304   2.833  1.00  0.00     0.160 A 
HETATM   10  H   UNL     1      41.930 -13.612  -0.524  1.00  0.00     0.162 HD
ENDROOT
BRANCH   1  11
HETATM   11  C   UNL     1      41.969 -14.502   2.255  1.00  0.00     0.261 C 
HETATM   12  N   UNL     1      41.775 -15.434   3.261  1.00  0.00    -0.323 N 
HETATM   13  H   UNL     1      40.907 -15.386   3.772  1.00  0.00     0.169 HD
HETATM   14  O   UNL     1      42.994 -14.378   1.590  1.00  0.00    -0.267 OA
BRANCH  12  15
HETATM   15  C   UNL     1      42.667 -16.441   3.690  1.00  0.00     0.035 A 
HETATM   16  C   UNL     1      42.826 -17.675   3.053  1.00  0.00     0.039 A 
HETATM   17  C   UNL     1      43.726 -18.638   3.544  1.00  0.00    -0.028 A 
HETATM   18  C   UNL     1      44.478 -18.340   4.687  1.00  0.00     0.010 A 
HETATM   19  C   UNL     1      44.328 -17.115   5.331  1.00  0.00     0.003 A 
HETATM   20  C   UNL     1      43.428 -16.171   4.834  1.00  0.00     0.029 A 
BRANCH  17  21
HETATM   21  C   UNL     1      43.894 -19.951   2.809  1.00  0.00     0.147 C 
HETATM   22  C   UNL     1      43.938 -21.129   3.775  1.00  0.00     0.044 C 
BRANCH  21  23
HETATM   23  O   UNL     1      42.815 -20.137   1.894  1.00  0.00    -0.391 OA
HETATM   24  H   UNL     1      41.994 -20.019   2.398  1.00  0.00     0.210 HD
ENDBRANCH  21  23
ENDBRANCH  17  21
ENDBRANCH  12  15
ENDBRANCH   1  11
BRANCH   4  25
HETATM   25  C   UNL     1      38.123 -10.246   0.477  1.00  0.00     0.409 C 
HETATM   26  F   UNL     1      38.994  -9.607   1.292  1.00  0.00    -0.169 F 
HETATM   27  F   UNL     1      37.899  -9.413  -0.576  1.00  0.00    -0.169 F 
HETATM   28  F   UNL     1      36.944 -10.354   1.124  1.00  0.00    -0.169 F 
ENDBRANCH   4  25
BRANCH   6  29
HETATM   29  C   UNL     1      39.595 -13.661  -2.157  1.00  0.00     0.075 A 
HETATM   30  O   UNL     1      39.070 -13.432  -3.397  1.00  0.00    -0.325 OA
HETATM   31  C   UNL     1      38.360 -14.538  -3.739  1.00  0.00     0.142 A 
HETATM   32  C   UNL     1      38.420 -15.479  -2.738  1.00  0.00     0.027 A 
HETATM   33  C   UNL     1      39.220 -14.915  -1.716  1.00  0.00     0.037 A 
ENDBRANCH   6  29
TORSDOF 6
ENDMDL
MODEL 2
REMARK VINA RESULT:      -8.3      3.253      8.358
REMARK  6 active torsions:
REMARK  status: ('A' for Active; 'I' for Inactive)
REMARK    1  A    between atoms: C_2  and  O_3 
REMARK    2  A    between atoms: C_2  and  C_4 
REMARK    3  A    between atoms: C_6  and  N_7 
REMARK       I    between atoms: N_7  and  C_8 
REMARK    4  A    between atoms: C_8  and  C_9 
REMARK    5  A    between atoms: C_12  and  C_13 
REMARK    6  A    between atoms: C_18  and  C_19 
ROOT
HETATM    1  C   UNL     1      41.271 -13.813   2.622  1.00  0.00     0.096 A 
HETATM    2  C   UNL     1      41.542 -14.536   3.768  1.00  0.00     0.138 A 
HETATM    3  N   UNL     1      42.585 -13.907   4.399  1.00  0.00    -0.240 N 
HETATM    4  C   UNL     1      43.253 -14.423   5.583  1.00  0.00     0.221 C 
HETATM    5  C   UNL     1      42.398 -15.515   6.261  1.00  0.00     0.068 C 
HETATM    6  C   UNL     1      41.777 -16.471   5.231  1.00  0.00     0.143 C 
HETATM    7  N   UNL     1      40.997 -15.666   4.287  1.00  0.00    -0.363 N 
HETATM    8  N   UNL     1      43.066 -12.861   3.707  1.00  0.00    -0.181 NA
HETATM    9  C   UNL     1      42.251 -12.789   2.650  1.00  0.00     0.160 A 
HETATM   10  H   UNL     1      40.370 -16.206   3.683  1.00  0.00     0.162 HD
ENDROOT
BRANCH   1  11
HETATM   11  C   UNL     1      40.245 -14.134   1.633  1.00  0.00     0.261 C 
HETATM   12  N   UNL     1      40.295 -13.355   0.489  1.00  0.00    -0.323 N 
HETATM   13  H   UNL     1      40.972 -12.607   0.471  1.00  0.00     0.169 HD
HETATM   14  O   UNL     1      39.436 -15.032   1.845  1.00  0.00    -0.267 OA
BRANCH  12  15
HETATM   15  C   UNL     1      39.484 -13.456  -0.662  1.00  0.00     0.035 A 
HETATM   16  C   UNL     1      38.567 -12.482  -1.066  1.00  0.00     0.039 A 
HETATM   17  C   UNL     1      37.781 -12.655  -2.220  1.00  0.00    -0.028 A 
HETATM   18  C   UNL     1      37.936 -13.825  -2.974  1.00  0.00     0.010 A 
HETATM   19  C   UNL     1      38.845 -14.803  -2.581  1.00  0.00     0.003 A 
HETATM   20  C   UNL     1      39.615 -14.618  -1.431  1.00  0.00     0.029 A 
BRANCH  17  21
HETATM   21  C   UNL     1      36.821 -11.564  -2.644  1.00  0.00     0.147 C 
HETATM   22  C   UNL     1      37.565 -10.331  -3.144  1.00  0.00     0.044 C 
BRANCH  21  23
HETATM   23  O   UNL     1      35.963 -12.044  -3.677  1.00  0.00    -0.391 OA
HETATM   24  H   UNL     1      36.524 -12.216  -4.452  1.00  0.00     0.210 HD
ENDBRANCH  21  23
ENDBRANCH  17  21
ENDBRANCH  12  15
ENDBRANCH   1  11
BRANCH   4  25
HETATM   25  C   UNL     1      43.554 -13.326   6.579  1.00  0.00     0.409 C 
HETATM   26  F   UNL     1      42.661 -12.312   6.516  1.00  0.00    -0.169 F 
HETATM   27  F   UNL     1      43.483 -13.823   7.844  1.00  0.00    -0.169 F 
HETATM   28  F   UNL     1      44.792 -12.804   6.453  1.00  0.00    -0.169 F 
ENDBRANCH   4  25
BRANCH   6  29
HETATM   29  C   UNL     1      42.807 -17.363   4.602  1.00  0.00     0.075 A 
HETATM   30  O   UNL     1      43.511 -18.173   5.447  1.00  0.00    -0.325 OA
HETATM   31  C   UNL     1      44.377 -18.888   4.684  1.00  0.00     0.142 A 
HETATM   32  C   UNL     1      44.241 -18.553   3.358  1.00  0.00     0.027 A 
HETATM   33  C   UNL     1      43.225 -17.570   3.303  1.00  0.00     0.037 A 
ENDBRANCH   6  29
TORSDOF 6
ENDMDL
MODEL 3
REMARK VINA RESULT:      -8.1      2.234      3.776
REMARK  6 active torsions:
REMARK  status: ('A' for Active; 'I' for Inactive)
REMARK    1  A    between atoms: C_2  and  O_3 
REMARK    2  A    between atoms: C_2  and  C_4 
REMARK    3  A    between atoms: C_6  and  N_7 
REMARK       I    between atoms: N_7  and  C_8 
REMARK    4  A    between atoms: C_8  and  C_9 
REMARK    5  A    between atoms: C_12  and  C_13 
REMARK    6  A    between atoms: C_18  and  C_19 
ROOT
HETATM    1  C   UNL     1      40.189 -14.401   0.772  1.00  0.00     0.096 A 
HETATM    2  C   UNL     1      39.342 -13.343   1.043  1.00  0.00     0.138 A 
HETATM    3  N   UNL     1      39.223 -12.620  -0.117  1.00  0.00    -0.240 N 
HETATM    4  C   UNL     1      38.513 -11.356  -0.221  1.00  0.00     0.221 C 
HETATM    5  C   UNL     1      37.585 -11.148   0.995  1.00  0.00     0.068 C 
HETATM    6  C   UNL     1      38.270 -11.556   2.308  1.00  0.00     0.143 C 
HETATM    7  N   UNL     1      38.699 -12.951   2.173  1.00  0.00    -0.363 N 
HETATM    8  N   UNL     1      39.995 -13.089  -1.111  1.00  0.00    -0.181 NA
HETATM    9  C   UNL     1      40.553 -14.182  -0.580  1.00  0.00     0.160 A 
HETATM   10  H   UNL     1      38.979 -13.398   3.052  1.00  0.00     0.162 HD
ENDROOT
BRANCH   1  11
HETATM   11  C   UNL     1      40.613 -15.420   1.728  1.00  0.00     0.261 C 
HETATM   12  N   UNL     1      41.971 -15.694   1.702  1.00  0.00    -0.323 N 
HETATM   13  H   UNL     1      42.520 -15.229   0.995  1.00  0.00     0.169 HD
HETATM   14  O   UNL     1      39.796 -15.953   2.474  1.00  0.00    -0.267 OA
BRANCH  12  15
HETATM   15  C   UNL     1      42.690 -16.579   2.533  1.00  0.00     0.035 A 
HETATM   16  C   UNL     1      42.961 -17.913   2.214  1.00  0.00     0.039 A 
HETATM   17  C   UNL     1      43.675 -18.743   3.098  1.00  0.00    -0.028 A 
HETATM   18  C   UNL     1      44.125 -18.210   4.312  1.00  0.00     0.010 A 
HETATM   19  C   UNL     1      43.860 -16.884   4.641  1.00  0.00     0.003 A 
HETATM   20  C   UNL     1      43.148 -16.073   3.756  1.00  0.00     0.029 A 
BRANCH  17  21
HETATM   21  C   UNL     1      43.976 -20.173   2.704  1.00  0.00     0.147 C 
HETATM   22  C   UNL     1      43.894 -21.111   3.903  1.00  0.00     0.044 C 
BRANCH  21  23
HETATM   23  O   UNL     1      43.052 -20.608   1.707  1.00  0.00    -0.391 OA
HETATM   24  H   UNL     1      43.558 -21.135   1.066  1.00  0.00     0.210 HD
ENDBRANCH  21  23
ENDBRANCH  17  21
ENDBRANCH  12  15
ENDBRANCH   1  11
BRANCH   4  25
HETATM   25  C   UNL     1      37.702 -11.273  -1.495  1.00  0.00     0.409 C 
HETATM   26  F   UNL     1      36.683 -10.389  -1.402  1.00  0.00    -0.169 F 
HETATM   27  F   UNL     1      38.494 -10.843  -2.515  1.00  0.00    -0.169 F 
HETATM   28  F   UNL     1      37.196 -12.459  -1.892  1.00  0.00    -0.169 F 
ENDBRANCH   4  25
BRANCH   6  29
HETATM   29  C   UNL     1      39.354 -10.595   2.698  1.00  0.00     0.075 A 
HETATM   30  O   UNL     1      39.160  -9.286   2.360  1.00  0.00    -0.325 OA
HETATM   31  C   UNL     1      40.243  -8.596   2.799  1.00  0.00     0.142 A 
HETATM   32  C   UNL     1      41.135  -9.441   3.417  1.00  0.00     0.027 A 
HETATM   33  C   UNL     1      40.561 -10.732   3.355  1.00  0.00     0.037 A 
ENDBRANCH   6  29
TORSDOF 6
ENDMDL
MODEL 4
REMARK VINA RESULT:      -8.1      2.450      4.322
REMARK  6 active torsions:
REMARK  status: ('A' for Active; 'I' for Inactive)
REMARK    1  A    between atoms: C_2  and  O_3 
REMARK    2  A    between atoms: C_2  and  C_4 
REMARK    3  A    between atoms: C_6  and  N_7 
REMARK       I    between atoms: N_7  and  C_8 
REMARK    4  A    between atoms: C_8  and  C_9 
REMARK    5  A    between atoms: C_12  and  C_13 
REMARK    6  A    between atoms: C_18  and  C_19 
ROOT
HETATM    1  C   UNL     1      40.282 -14.572   1.070  1.00  0.00     0.096 A 
HETATM    2  C   UNL     1      39.426 -13.504   1.258  1.00  0.00     0.138 A 
HETATM    3  N   UNL     1      39.310 -12.867   0.048  1.00  0.00    -0.240 N 
HETATM    4  C   UNL     1      38.591 -11.620  -0.153  1.00  0.00     0.221 C 
HETATM    5  C   UNL     1      37.654 -11.332   1.039  1.00  0.00     0.068 C 
HETATM    6  C   UNL     1      38.332 -11.638   2.383  1.00  0.00     0.143 C 
HETATM    7  N   UNL     1      38.772 -13.035   2.352  1.00  0.00    -0.363 N 
HETATM    8  N   UNL     1      40.092 -13.402  -0.905  1.00  0.00    -0.181 NA
HETATM    9  C   UNL     1      40.653 -14.449  -0.293  1.00  0.00     0.160 A 
HETATM   10  H   UNL     1      39.049 -13.415   3.263  1.00  0.00     0.162 HD
ENDROOT
BRANCH   1  11
HETATM   11  C   UNL     1      40.707 -15.516   2.100  1.00  0.00     0.261 C 
HETATM   12  N   UNL     1      42.023 -15.930   1.983  1.00  0.00    -0.323 N 
HETATM   13  H   UNL     1      42.538 -15.607   1.178  1.00  0.00     0.169 HD
HETATM   14  O   UNL     1      39.925 -15.875   2.976  1.00  0.00    -0.267 OA
BRANCH  12  15
HETATM   15  C   UNL     1      42.740 -16.786   2.847  1.00  0.00     0.035 A 
HETATM   16  C   UNL     1      43.097 -16.461   4.159  1.00  0.00     0.039 A 
HETATM   17  C   UNL     1      43.825 -17.361   4.960  1.00  0.00    -0.028 A 
HETATM   18  C   UNL     1      44.184 -18.604   4.426  1.00  0.00     0.010 A 
HETATM   19  C   UNL     1      43.835 -18.938   3.120  1.00  0.00     0.003 A 
HETATM   20  C   UNL     1      43.116 -18.034   2.336  1.00  0.00     0.029 A 
BRANCH  17  21
HETATM   21  C   UNL     1      44.165 -16.986   6.386  1.00  0.00     0.147 C 
HETATM   22  C   UNL     1      44.040 -15.484   6.613  1.00  0.00     0.044 C 
BRANCH  21  23
HETATM   23  O   UNL     1      43.298 -17.669   7.290  1.00  0.00    -0.391 OA
HETATM   24  H   UNL     1      42.697 -17.002   7.662  1.00  0.00     0.210 HD
ENDBRANCH  21  23
ENDBRANCH  17  21
ENDBRANCH  12  15
ENDBRANCH   1  11
BRANCH   4  25
HETATM   25  C   UNL     1      37.789 -11.636  -1.434  1.00  0.00     0.409 C 
HETATM   26  F   UNL     1      37.274 -12.857  -1.706  1.00  0.00    -0.169 F 
HETATM   27  F   UNL     1      36.730 -10.787  -1.323  1.00  0.00    -0.169 F 
HETATM   28  F   UNL     1      38.484 -11.223  -2.514  1.00  0.00    -0.169 F 
ENDBRANCH   4  25
BRANCH   6  29
HETATM   29  C   UNL     1      39.407 -10.643   2.708  1.00  0.00     0.075 A 
HETATM   30  O   UNL     1      40.524 -11.131   3.325  1.00  0.00    -0.325 OA
HETATM   31  C   UNL     1      41.360 -10.080   3.526  1.00  0.00     0.142 A 
HETATM   32  C   UNL     1      40.799  -8.920   3.047  1.00  0.00     0.027 A 
HETATM   33  C   UNL     1      39.538  -9.282   2.516  1.00  0.00     0.037 A 
ENDBRANCH   6  29
TORSDOF 6
ENDMDL
MODEL 5
REMARK VINA RESULT:      -7.9      5.863      7.967
REMARK  6 active torsions:
REMARK  status: ('A' for Active; 'I' for Inactive)
REMARK    1  A    between atoms: C_2  and  O_3 
REMARK    2  A    between atoms: C_2  and  C_4 
REMARK    3  A    between atoms: C_6  and  N_7 
REMARK       I    between atoms: N_7  and  C_8 
REMARK    4  A    between atoms: C_8  and  C_9 
REMARK    5  A    between atoms: C_12  and  C_13 
REMARK    6  A    between atoms: C_18  and  C_19 
ROOT
HETATM    1  C   UNL     1      43.705 -11.942   6.067  1.00  0.00     0.096 A 
HETATM    2  C   UNL     1      43.230 -10.700   6.442  1.00  0.00     0.138 A 
HETATM    3  N   UNL     1      43.904 -10.342   7.582  1.00  0.00    -0.240 N 
HETATM    4  C   UNL     1      43.610  -9.153   8.365  1.00  0.00     0.221 C 
HETATM    5  C   UNL     1      42.755  -8.159   7.549  1.00  0.00     0.068 C 
HETATM    6  C   UNL     1      41.646  -8.875   6.764  1.00  0.00     0.143 C 
HETATM    7  N   UNL     1      42.282  -9.885   5.913  1.00  0.00    -0.363 N 
HETATM    8  N   UNL     1      44.738 -11.299   8.023  1.00  0.00    -0.181 NA
HETATM    9  C   UNL     1      44.638 -12.250   7.090  1.00  0.00     0.160 A 
HETATM   10  H   UNL     1      41.669 -10.282   5.192  1.00  0.00     0.162 HD
ENDROOT
BRANCH   1  11
HETATM   11  C   UNL     1      43.253 -12.717   4.915  1.00  0.00     0.261 C 
HETATM   12  N   UNL     1      43.110 -14.072   5.162  1.00  0.00    -0.323 N 
HETATM   13  H   UNL     1      43.392 -14.406   6.071  1.00  0.00     0.169 HD
HETATM   14  O   UNL     1      43.026 -12.163   3.843  1.00  0.00    -0.267 OA
BRANCH  12  15
HETATM   15  C   UNL     1      42.641 -15.067   4.278  1.00  0.00     0.035 A 
HETATM   16  C   UNL     1      43.375 -16.196   3.902  1.00  0.00     0.039 A 
HETATM   17  C   UNL     1      42.848 -17.143   3.004  1.00  0.00    -0.028 A 
HETATM   18  C   UNL     1      41.560 -16.945   2.492  1.00  0.00     0.010 A 
HETATM   19  C   UNL     1      40.820 -15.824   2.858  1.00  0.00     0.003 A 
HETATM   20  C   UNL     1      41.357 -14.892   3.747  1.00  0.00     0.029 A 
BRANCH  17  21
HETATM   21  C   UNL     1      43.661 -18.368   2.646  1.00  0.00     0.147 C 
HETATM   22  C   UNL     1      44.325 -18.976   3.876  1.00  0.00     0.044 C 
BRANCH  21  23
HETATM   23  O   UNL     1      42.822 -19.347   2.035  1.00  0.00    -0.391 OA
HETATM   24  H   UNL     1      41.929 -18.966   1.993  1.00  0.00     0.210 HD
ENDBRANCH  21  23
ENDBRANCH  17  21
ENDBRANCH  12  15
ENDBRANCH   1  11
BRANCH   4  25
HETATM   25  C   UNL     1      44.872  -8.466   8.835  1.00  0.00     0.409 C 
HETATM   26  F   UNL     1      44.699  -7.137   9.021  1.00  0.00    -0.169 F 
HETATM   27  F   UNL     1      45.252  -8.977  10.038  1.00  0.00    -0.169 F 
HETATM   28  F   UNL     1      45.924  -8.641   8.008  1.00  0.00    -0.169 F 
ENDBRANCH   4  25
BRANCH   6  29
HETATM   29  C   UNL     1      40.567  -9.397   7.667  1.00  0.00     0.075 A 
HETATM   30  O   UNL     1      39.792 -10.407   7.171  1.00  0.00    -0.325 OA
HETATM   31  C   UNL     1      38.891 -10.727   8.135  1.00  0.00     0.142 A 
HETATM   32  C   UNL     1      39.074  -9.940   9.247  1.00  0.00     0.027 A 
HETATM   33  C   UNL     1      40.158  -9.082   8.947  1.00  0.00     0.037 A 
ENDBRANCH   6  29
TORSDOF 6
ENDMDL
MODEL 6
REMARK VINA RESULT:      -7.9      5.819      7.655
REMARK  6 active torsions:
REMARK  status: ('A' for Active; 'I' for Inactive)
REMARK    1  A    between atoms: C_2  and  O_3 
REMARK    2  A    between atoms: C_2  and  C_4 
REMARK    3  A    between atoms: C_6  and  N_7 
REMARK       I    between atoms: N_7  and  C_8 
REMARK    4  A    between atoms: C_8  and  C_9 
REMARK    5  A    between atoms: C_12  and  C_13 
REMARK    6  A    between atoms: C_18  and  C_19 
ROOT
HETATM    1  C   UNL     1      42.382 -12.717   5.474  1.00  0.00     0.096 A 
HETATM    2  C   UNL     1      41.347 -12.792   4.561  1.00  0.00     0.138 A 
HETATM    3  N   UNL     1      41.547 -13.934   3.826  1.00  0.00    -0.240 N 
HETATM    4  C   UNL     1      40.742 -14.315   2.677  1.00  0.00     0.221 C 
HETATM    5  C   UNL     1      39.420 -13.518   2.646  1.00  0.00     0.068 C 
HETATM    6  C   UNL     1      39.642 -12.038   2.992  1.00  0.00     0.143 C 
HETATM    7  N   UNL     1      40.292 -11.978   4.303  1.00  0.00    -0.363 N 
HETATM    8  N   UNL     1      42.684 -14.574   4.146  1.00  0.00    -0.181 NA
HETATM    9  C   UNL     1      43.169 -13.854   5.161  1.00  0.00     0.160 A 
HETATM   10  H   UNL     1      40.302 -11.047   4.732  1.00  0.00     0.162 HD
ENDROOT
BRANCH   1  11
HETATM   11  C   UNL     1      42.582 -11.650   6.450  1.00  0.00     0.261 C 
HETATM   12  N   UNL     1      43.648 -11.857   7.309  1.00  0.00    -0.323 N 
HETATM   13  H   UNL     1      44.136 -12.737   7.233  1.00  0.00     0.169 HD
HETATM   14  O   UNL     1      41.842 -10.669   6.462  1.00  0.00    -0.267 OA
BRANCH  12  15
HETATM   15  C   UNL     1      44.129 -10.992   8.316  1.00  0.00     0.035 A 
HETATM   16  C   UNL     1      43.531 -10.836   9.570  1.00  0.00     0.039 A 
HETATM   17  C   UNL     1      44.058  -9.944  10.522  1.00  0.00    -0.028 A 
HETATM   18  C   UNL     1      45.208  -9.212  10.200  1.00  0.00     0.010 A 
HETATM   19  C   UNL     1      45.811  -9.359   8.954  1.00  0.00     0.003 A 
HETATM   20  C   UNL     1      45.275 -10.245   8.018  1.00  0.00     0.029 A 
BRANCH  17  21
HETATM   21  C   UNL     1      43.402  -9.825  11.881  1.00  0.00     0.147 C 
HETATM   22  C   UNL     1      43.334  -8.374  12.342  1.00  0.00     0.044 C 
BRANCH  21  23
HETATM   23  O   UNL     1      42.081 -10.362  11.832  1.00  0.00    -0.391 OA
HETATM   24  H   UNL     1      42.061 -10.992  11.093  1.00  0.00     0.210 HD
ENDBRANCH  21  23
ENDBRANCH  17  21
ENDBRANCH  12  15
ENDBRANCH   1  11
BRANCH   4  25
HETATM   25  C   UNL     1      40.439 -15.796   2.673  1.00  0.00     0.409 C 
HETATM   26  F   UNL     1      40.148 -16.268   3.907  1.00  0.00    -0.169 F 
HETATM   27  F   UNL     1      39.343 -16.039   1.901  1.00  0.00    -0.169 F 
HETATM   28  F   UNL     1      41.431 -16.551   2.157  1.00  0.00    -0.169 F 
ENDBRANCH   4  25
BRANCH   6  29
HETATM   29  C   UNL     1      40.360 -11.307   1.895  1.00  0.00     0.075 A 
HETATM   30  O   UNL     1      39.962 -11.580   0.617  1.00  0.00    -0.325 OA
HETATM   31  C   UNL     1      40.728 -10.823  -0.209  1.00  0.00     0.142 A 
HETATM   32  C   UNL     1      41.614 -10.063   0.517  1.00  0.00     0.027 A 
HETATM   33  C   UNL     1      41.376 -10.373   1.877  1.00  0.00     0.037 A 
ENDBRANCH   6  29
TORSDOF 6
ENDMDL
MODEL 7
REMARK VINA RESULT:      -7.8      3.359      7.802
REMARK  6 active torsions:
REMARK  status: ('A' for Active; 'I' for Inactive)
REMARK    1  A    between atoms: C_2  and  O_3 
REMARK    2  A    between atoms: C_2  and  C_4 
REMARK    3  A    between atoms: C_6  and  N_7 
REMARK       I    between atoms: N_7  and  C_8 
REMARK    4  A    between atoms: C_8  and  C_9 
REMARK    5  A    between atoms: C_12  and  C_13 
REMARK    6  A    between atoms: C_18  and  C_19 
ROOT
HETATM    1  C   UNL     1      41.678 -12.261   2.797  1.00  0.00     0.096 A 
HETATM    2  C   UNL     1      41.635 -13.292   3.716  1.00  0.00     0.138 A 
HETATM    3  N   UNL     1      42.733 -13.150   4.526  1.00  0.00    -0.240 N 
HETATM    4  C   UNL     1      43.121 -14.107   5.550  1.00  0.00     0.221 C 
HETATM    5  C   UNL     1      41.950 -15.056   5.883  1.00  0.00     0.068 C 
HETATM    6  C   UNL     1      41.216 -15.519   4.615  1.00  0.00     0.143 C 
HETATM    7  N   UNL     1      40.769 -14.322   3.896  1.00  0.00    -0.363 N 
HETATM    8  N   UNL     1      43.533 -12.137   4.155  1.00  0.00    -0.181 NA
HETATM    9  C   UNL     1      42.878 -11.585   3.130  1.00  0.00     0.160 A 
HETATM   10  H   UNL     1      40.091 -14.503   3.149  1.00  0.00     0.162 HD
ENDROOT
BRANCH   1  11
HETATM   11  C   UNL     1      40.712 -12.033   1.726  1.00  0.00     0.261 C 
HETATM   12  N   UNL     1      41.260 -12.043   0.454  1.00  0.00    -0.323 N 
HETATM   13  H   UNL     1      42.263 -12.134   0.386  1.00  0.00     0.169 HD
HETATM   14  O   UNL     1      39.524 -11.859   1.984  1.00  0.00    -0.267 OA
BRANCH  12  15
HETATM   15  C   UNL     1      40.587 -11.910  -0.779  1.00  0.00     0.035 A 
HETATM   16  C   UNL     1      39.981 -12.968  -1.463  1.00  0.00     0.039 A 
HETATM   17  C   UNL     1      39.337 -12.764  -2.698  1.00  0.00    -0.028 A 
HETATM   18  C   UNL     1      39.301 -11.471  -3.236  1.00  0.00     0.010 A 
HETATM   19  C   UNL     1      39.901 -10.410  -2.565  1.00  0.00     0.003 A 
HETATM   20  C   UNL     1      40.540 -10.629  -1.343  1.00  0.00     0.029 A 
BRANCH  17  21
HETATM   21  C   UNL     1      38.665 -13.928  -3.393  1.00  0.00     0.147 C 
HETATM   22  C   UNL     1      38.790 -15.210  -2.579  1.00  0.00     0.044 C 
BRANCH  21  23
HETATM   23  O   UNL     1      37.284 -13.639  -3.602  1.00  0.00    -0.391 OA
HETATM   24  H   UNL     1      37.054 -12.913  -2.999  1.00  0.00     0.210 HD
ENDBRANCH  21  23
ENDBRANCH  17  21
ENDBRANCH  12  15
ENDBRANCH   1  11
BRANCH   4  25
HETATM   25  C   UNL     1      43.587 -13.417   6.812  1.00  0.00     0.409 C 
HETATM   26  F   UNL     1      43.409 -14.181   7.914  1.00  0.00    -0.169 F 
HETATM   27  F   UNL     1      44.922 -13.164   6.731  1.00  0.00    -0.169 F 
HETATM   28  F   UNL     1      42.995 -12.224   7.027  1.00  0.00    -0.169 F 
ENDBRANCH   4  25
BRANCH   6  29
HETATM   29  C   UNL     1      42.043 -16.472   3.804  1.00  0.00     0.075 A 
HETATM   30  O   UNL     1      42.895 -17.284   4.498  1.00  0.00    -0.325 OA
HETATM   31  C   UNL     1      43.538 -18.059   3.587  1.00  0.00     0.142 A 
HETATM   32  C   UNL     1      43.113 -17.759   2.314  1.00  0.00     0.027 A 
HETATM   33  C   UNL     1      42.145 -16.737   2.453  1.00  0.00     0.037 A 
ENDBRANCH   6  29
TORSDOF 6
ENDMDL
MODEL 8
REMARK VINA RESULT:      -7.8      2.612      3.318
REMARK  6 active torsions:
REMARK  status: ('A' for Active; 'I' for Inactive)
REMARK    1  A    between atoms: C_2  and  O_3 
REMARK    2  A    between atoms: C_2  and  C_4 
REMARK    3  A    between atoms: C_6  and  N_7 
REMARK       I    between atoms: N_7  and  C_8 
REMARK    4  A    between atoms: C_8  and  C_9 
REMARK    5  A    between atoms: C_12  and  C_13 
REMARK    6  A    between atoms: C_18  and  C_19 
ROOT
HETATM    1  C   UNL     1      41.338 -12.487   0.763  1.00  0.00     0.096 A 
HETATM    2  C   UNL     1      41.183 -12.118  -0.559  1.00  0.00     0.138 A 
HETATM    3  N   UNL     1      41.155 -10.747  -0.590  1.00  0.00    -0.240 N 
HETATM    4  C   UNL     1      40.884  -9.962  -1.784  1.00  0.00     0.221 C 
HETATM    5  C   UNL     1      41.043 -10.827  -3.053  1.00  0.00     0.068 C 
HETATM    6  C   UNL     1      40.422 -12.220  -2.873  1.00  0.00     0.143 C 
HETATM    7  N   UNL     1      41.048 -12.840  -1.701  1.00  0.00    -0.363 N 
HETATM    8  N   UNL     1      41.207 -10.192   0.632  1.00  0.00    -0.181 NA
HETATM    9  C   UNL     1      41.349 -11.244   1.444  1.00  0.00     0.160 A 
HETATM   10  H   UNL     1      40.869 -13.844  -1.604  1.00  0.00     0.162 HD
ENDROOT
BRANCH   1  11
HETATM   11  C   UNL     1      41.400 -13.857   1.265  1.00  0.00     0.261 C 
HETATM   12  N   UNL     1      42.535 -14.141   2.006  1.00  0.00    -0.323 N 
HETATM   13  H   UNL     1      43.235 -13.416   2.072  1.00  0.00     0.169 HD
HETATM   14  O   UNL     1      40.492 -14.649   1.027  1.00  0.00    -0.267 OA
BRANCH  12  15
HETATM   15  C   UNL     1      42.858 -15.345   2.666  1.00  0.00     0.035 A 
HETATM   16  C   UNL     1      42.909 -15.492   4.056  1.00  0.00     0.039 A 
HETATM   17  C   UNL     1      43.252 -16.722   4.647  1.00  0.00    -0.028 A 
HETATM   18  C   UNL     1      43.535 -17.815   3.818  1.00  0.00     0.010 A 
HETATM   19  C   UNL     1      43.489 -17.681   2.433  1.00  0.00     0.003 A 
HETATM   20  C   UNL     1      43.151 -16.453   1.861  1.00  0.00     0.029 A 
BRANCH  17  21
HETATM   21  C   UNL     1      43.266 -16.850   6.155  1.00  0.00     0.147 C 
HETATM   22  C   UNL     1      42.021 -16.231   6.778  1.00  0.00     0.044 C 
BRANCH  21  23
HETATM   23  O   UNL     1      43.339 -18.226   6.526  1.00  0.00    -0.391 OA
HETATM   24  H   UNL     1      42.587 -18.672   6.103  1.00  0.00     0.210 HD
ENDBRANCH  21  23
ENDBRANCH  17  21
ENDBRANCH  12  15
ENDBRANCH   1  11
BRANCH   4  25
HETATM   25  C   UNL     1      41.790  -8.756  -1.878  1.00  0.00     0.409 C 
HETATM   26  F   UNL     1      43.040  -9.011  -1.428  1.00  0.00    -0.169 F 
HETATM   27  F   UNL     1      41.919  -8.379  -3.180  1.00  0.00    -0.169 F 
HETATM   28  F   UNL     1      41.320  -7.673  -1.223  1.00  0.00    -0.169 F 
ENDBRANCH   4  25
BRANCH   6  29
HETATM   29  C   UNL     1      38.923 -12.166  -2.835  1.00  0.00     0.075 A 
HETATM   30  O   UNL     1      38.271 -13.363  -2.743  1.00  0.00    -0.325 OA
HETATM   31  C   UNL     1      36.941 -13.092  -2.723  1.00  0.00     0.142 A 
HETATM   32  C   UNL     1      36.724 -11.736  -2.799  1.00  0.00     0.027 A 
HETATM   33  C   UNL     1      38.004 -11.136  -2.868  1.00  0.00     0.037 A 
ENDBRANCH   6  29
TORSDOF 6
ENDMDL
MODEL 9
REMARK VINA RESULT:      -7.7     15.669     17.533
REMARK  6 active torsions:
REMARK  status: ('A' for Active; 'I' for Inactive)
REMARK    1  A    between atoms: C_2  and  O_3 
REMARK    2  A    between atoms: C_2  and  C_4 
REMARK    3  A    between atoms: C_6  and  N_7 
REMARK       I    between atoms: N_7  and  C_8 
REMARK    4  A    between atoms: C_8  and  C_9 
REMARK    5  A    between atoms: C_12  and  C_13 
REMARK    6  A    between atoms: C_18  and  C_19 
ROOT
HETATM    1  C   UNL     1      43.754 -31.516  -0.407  1.00  0.00     0.096 A 
HETATM    2  C   UNL     1      44.416 -30.349  -0.737  1.00  0.00     0.138 A 
HETATM    3  N   UNL     1      44.690 -30.412  -2.081  1.00  0.00    -0.240 N 
HETATM    4  C   UNL     1      45.486 -29.430  -2.798  1.00  0.00     0.221 C 
HETATM    5  C   UNL     1      45.626 -28.132  -1.974  1.00  0.00     0.068 C 
HETATM    6  C   UNL     1      45.896 -28.428  -0.491  1.00  0.00     0.143 C 
HETATM    7  N   UNL     1      44.809 -29.279   0.000  1.00  0.00    -0.363 N 
HETATM    8  N   UNL     1      44.317 -31.575  -2.639  1.00  0.00    -0.181 NA
HETATM    9  C   UNL     1      43.726 -32.227  -1.633  1.00  0.00     0.160 A 
HETATM   10  H   UNL     1      44.767 -29.370   1.020  1.00  0.00     0.162 HD
ENDROOT
BRANCH   1  11
HETATM   11  C   UNL     1      43.288 -31.884   0.927  1.00  0.00     0.261 C 
HETATM   12  N   UNL     1      42.173 -31.182   1.353  1.00  0.00    -0.323 N 
HETATM   13  H   UNL     1      41.833 -30.448   0.750  1.00  0.00     0.169 HD
HETATM   14  O   UNL     1      43.868 -32.754   1.572  1.00  0.00    -0.267 OA
BRANCH  12  15
HETATM   15  C   UNL     1      41.458 -31.344   2.559  1.00  0.00     0.035 A 
HETATM   16  C   UNL     1      40.374 -32.213   2.720  1.00  0.00     0.039 A 
HETATM   17  C   UNL     1      39.699 -32.314   3.950  1.00  0.00    -0.028 A 
HETATM   18  C   UNL     1      40.134 -31.533   5.028  1.00  0.00     0.010 A 
HETATM   19  C   UNL     1      41.211 -30.664   4.879  1.00  0.00     0.003 A 
HETATM   20  C   UNL     1      41.869 -30.571   3.651  1.00  0.00     0.029 A 
BRANCH  17  21
HETATM   21  C   UNL     1      38.550 -33.289   4.095  1.00  0.00     0.147 C 
HETATM   22  C   UNL     1      38.987 -34.564   4.806  1.00  0.00     0.044 C 
BRANCH  21  23
HETATM   23  O   UNL     1      37.488 -32.684   4.831  1.00  0.00    -0.391 OA
HETATM   24  H   UNL     1      37.894 -32.220   5.582  1.00  0.00     0.210 HD
ENDBRANCH  21  23
ENDBRANCH  17  21
ENDBRANCH  12  15
ENDBRANCH   1  11
BRANCH   4  25
HETATM   25  C   UNL     1      44.890 -29.107  -4.150  1.00  0.00     0.409 C 
HETATM   26  F   UNL     1      43.538 -29.087  -4.128  1.00  0.00    -0.169 F 
HETATM   27  F   UNL     1      45.288 -27.865  -4.542  1.00  0.00    -0.169 F 
HETATM   28  F   UNL     1      45.282 -29.949  -5.129  1.00  0.00    -0.169 F 
ENDBRANCH   4  25
BRANCH   6  29
HETATM   29  C   UNL     1      47.276 -28.974  -0.270  1.00  0.00     0.075 A 
HETATM   30  O   UNL     1      47.491 -29.633   0.907  1.00  0.00    -0.325 OA
HETATM   31  C   UNL     1      48.786 -30.041   0.905  1.00  0.00     0.142 A 
HETATM   32  C   UNL     1      49.410 -29.657  -0.258  1.00  0.00     0.027 A 
HETATM   33  C   UNL     1      48.436 -28.969  -1.019  1.00  0.00     0.037 A 
ENDBRANCH   6  29
TORSDOF 6
ENDMDL
MODEL 10
REMARK VINA RESULT:      -7.5      2.631      4.720
REMARK  6 active torsions:
REMARK  status: ('A' for Active; 'I' for Inactive)
REMARK    1  A    between atoms: C_2  and  O_3 
REMARK    2  A    between atoms: C_2  and  C_4 
REMARK    3  A    between atoms: C_6  and  N_7 
REMARK       I    between atoms: N_7  and  C_8 
REMARK    4  A    between atoms: C_8  and  C_9 
REMARK    5  A    between atoms: C_12  and  C_13 
REMARK    6  A    between atoms: C_18  and  C_19 
ROOT
HETATM    1  C   UNL     1      40.914 -13.988   2.339  1.00  0.00     0.096 A 
HETATM    2  C   UNL     1      40.195 -12.971   2.940  1.00  0.00     0.138 A 
HETATM    3  N   UNL     1      40.202 -11.911   2.069  1.00  0.00    -0.240 N 
HETATM    4  C   UNL     1      39.656 -10.599   2.378  1.00  0.00     0.221 C 
HETATM    5  C   UNL     1      38.725 -10.670   3.606  1.00  0.00     0.068 C 
HETATM    6  C   UNL     1      39.314 -11.554   4.716  1.00  0.00     0.143 C 
HETATM    7  N   UNL     1      39.572 -12.877   4.142  1.00  0.00    -0.363 N 
HETATM    8  N   UNL     1      40.940 -12.137   0.970  1.00  0.00    -0.181 NA
HETATM    9  C   UNL     1      41.342 -13.402   1.122  1.00  0.00     0.160 A 
HETATM   10  H   UNL     1      39.768 -13.610   4.832  1.00  0.00     0.162 HD
ENDROOT
BRANCH   1  11
HETATM   11  C   UNL     1      41.180 -15.302   2.919  1.00  0.00     0.261 C 
HETATM   12  N   UNL     1      42.518 -15.658   2.928  1.00  0.00    -0.323 N 
HETATM   13  H   UNL     1      43.166 -15.027   2.481  1.00  0.00     0.169 HD
HETATM   14  O   UNL     1      40.259 -15.989   3.353  1.00  0.00    -0.267 OA
BRANCH  12  15
HETATM   15  C   UNL     1      43.097 -16.827   3.466  1.00  0.00     0.035 A 
HETATM   16  C   UNL     1      42.974 -18.099   2.899  1.00  0.00     0.039 A 
HETATM   17  C   UNL     1      43.569 -19.225   3.498  1.00  0.00    -0.028 A 
HETATM   18  C   UNL     1      44.304 -19.055   4.677  1.00  0.00     0.010 A 
HETATM   19  C   UNL     1      44.433 -17.793   5.252  1.00  0.00     0.003 A 
HETATM   20  C   UNL     1      43.833 -16.687   4.648  1.00  0.00     0.029 A 
BRANCH  17  21
HETATM   21  C   UNL     1      43.439 -20.581   2.837  1.00  0.00     0.147 C 
HETATM   22  C   UNL     1      43.855 -20.529   1.372  1.00  0.00     0.044 C 
BRANCH  21  23
HETATM   23  O   UNL     1      44.252 -21.535   3.519  1.00  0.00    -0.391 OA
HETATM   24  H   UNL     1      44.882 -21.032   4.061  1.00  0.00     0.210 HD
ENDBRANCH  21  23
ENDBRANCH  17  21
ENDBRANCH  12  15
ENDBRANCH   1  11
BRANCH   4  25
HETATM   25  C   UNL     1      38.901 -10.017   1.204  1.00  0.00     0.409 C 
HETATM   26  F   UNL     1      38.138 -10.939   0.572  1.00  0.00    -0.169 F 
HETATM   27  F   UNL     1      38.051  -9.048   1.641  1.00  0.00    -0.169 F 
HETATM   28  F   UNL     1      39.696  -9.429   0.286  1.00  0.00    -0.169 F 
ENDBRANCH   4  25
BRANCH   6  29
HETATM   29  C   UNL     1      40.496 -10.910   5.378  1.00  0.00     0.075 A 
HETATM   30  O   UNL     1      41.547 -11.728   5.680  1.00  0.00    -0.325 OA
HETATM   31  C   UNL     1      42.499 -10.956   6.265  1.00  0.00     0.142 A 
HETATM   32  C   UNL     1      42.077  -9.649   6.344  1.00  0.00     0.027 A 
HETATM   33  C   UNL     1      40.785  -9.618   5.769  1.00  0.00     0.037 A 
ENDBRANCH   6  29
TORSDOF 6
ENDMDL
