MODEL 1
REMARK VINA RESULT:     -10.5      0.000      0.000
REMARK  5 active torsions:
REMARK  status: ('A' for Active; 'I' for Inactive)
REMARK    1  A    between atoms: C_7  and  C_8 
REMARK    2  A    between atoms: C_16  and  C_17 
REMARK    3  A    between atoms: C_20  and  O_21 
REMARK    4  A    between atoms: C_24  and  C_25 
REMARK       I    between atoms: C_25  and  N_26 
REMARK    5  A    between atoms: N_26  and  C_27 
ROOT
HETATM    1  C   UNL     1      40.257 -13.506   6.541  1.00  0.00     0.070 C 
HETATM    2  C   UNL     1      40.783 -13.916   5.187  1.00  0.00     0.037 C 
HETATM    3  N   UNL     1      39.819 -14.078   4.189  1.00  0.00    -0.192 N 
HETATM    4  C   UNL     1      40.146 -14.140   2.882  1.00  0.00     0.726 A 
HETATM    5  N   UNL     1      41.448 -14.347   2.535  1.00  0.00    -0.083 N 
HETATM    6  N   UNL     1      41.633 -14.260   1.205  1.00  0.00    -0.135 NA
HETATM    7  C   UNL     1      40.376 -14.010   0.785  1.00  0.00     0.200 A 
HETATM    8  N   UNL     1      39.436 -13.971   1.800  1.00  0.00    -0.041 NA
HETATM    9  C   UNL     1      42.523 -14.559   3.503  1.00  0.00     0.202 C 
HETATM   10  C   UNL     1      42.098 -14.112   4.900  1.00  0.00     0.062 C 
HETATM   11  H   UNL     1      38.875 -13.772   4.418  1.00  0.00     0.184 HD
ENDROOT
BRANCH  10  12
HETATM   12  C   UNL     1      43.167 -13.669   5.849  1.00  0.00     0.256 C 
HETATM   13  N   UNL     1      43.506 -12.337   5.758  1.00  0.00    -0.323 N 
HETATM   14  H   UNL     1      43.109 -11.787   5.008  1.00  0.00     0.169 HD
HETATM   15  O   UNL     1      43.613 -14.473   6.661  1.00  0.00    -0.267 OA
BRANCH  13  16
HETATM   16  C   UNL     1      44.359 -11.613   6.621  1.00  0.00     0.035 A 
HETATM   17  C   UNL     1      45.716 -11.389   6.380  1.00  0.00     0.029 A 
HETATM   18  C   UNL     1      46.493 -10.679   7.302  1.00  0.00     0.002 A 
HETATM   19  C   UNL     1      45.924 -10.195   8.475  1.00  0.00     0.000 A 
HETATM   20  C   UNL     1      44.571 -10.411   8.726  1.00  0.00     0.002 A 
HETATM   21  C   UNL     1      43.792 -11.110   7.801  1.00  0.00     0.029 A 
ENDBRANCH  13  16
ENDBRANCH  10  12
BRANCH   9  22
HETATM   22  C   UNL     1      42.962 -16.025   3.437  1.00  0.00    -0.028 A 
HETATM   23  C   UNL     1      42.652 -16.793   2.299  1.00  0.00     0.012 A 
HETATM   24  C   UNL     1      43.039 -18.134   2.215  1.00  0.00     0.037 A 
HETATM   25  C   UNL     1      43.734 -18.715   3.270  1.00  0.00     0.065 A 
HETATM   26  C   UNL     1      44.040 -17.981   4.408  1.00  0.00     0.037 A 
HETATM   27  C   UNL     1      43.648 -16.645   4.498  1.00  0.00     0.012 A 
BRANCH  25  28
HETATM   28  O   UNL     1      44.129 -20.018   3.232  1.00  0.00    -0.361 OA
HETATM   29  H   UNL     1      45.078 -20.054   3.033  1.00  0.00     0.217 HD
ENDBRANCH  25  28
ENDBRANCH   9  22
BRANCH   7  30
HETATM   30  C   UNL     1      40.037 -13.829  -0.621  1.00  0.00     0.036 A 
HETATM   31  C   UNL     1      40.350 -12.664  -1.340  1.00  0.00     0.048 A 
HETATM   32 CL   UNL     1      41.218 -11.329  -0.659  1.00  0.00    -0.083 Cl
HETATM   33  C   UNL     1      40.003 -12.558  -2.694  1.00  0.00     0.025 A 
HETATM   34  C   UNL     1      39.350 -13.606  -3.344  1.00  0.00     0.002 A 
HETATM   35  C   UNL     1      39.043 -14.768  -2.645  1.00  0.00     0.001 A 
HETATM   36  C   UNL     1      39.386 -14.879  -1.295  1.00  0.00     0.017 A 
ENDBRANCH   7  30
TORSDOF 5
ENDMDL
MODEL 2
REMARK VINA RESULT:     -10.1      3.522      6.958
REMARK  5 active torsions:
REMARK  status: ('A' for Active; 'I' for Inactive)
REMARK    1  A    between atoms: C_7  and  C_8 
REMARK    2  A    between atoms: C_16  and  C_17 
REMARK    3  A    between atoms: C_20  and  O_21 
REMARK    4  A    between atoms: C_24  and  C_25 
REMARK       I    between atoms: C_25  and  N_26 
REMARK    5  A    between atoms: N_26  and  C_27 
ROOT
HETATM    1  C   UNL     1      38.749 -12.230   2.965  1.00  0.00     0.070 C 
HETATM    2  C   UNL     1      40.067 -12.918   3.228  1.00  0.00     0.037 C 
HETATM    3  N   UNL     1      39.979 -14.248   3.646  1.00  0.00    -0.192 N 
HETATM    4  C   UNL     1      41.045 -15.075   3.627  1.00  0.00     0.726 A 
HETATM    5  N   UNL     1      42.292 -14.544   3.482  1.00  0.00    -0.083 N 
HETATM    6  N   UNL     1      43.232 -15.499   3.357  1.00  0.00    -0.135 NA
HETATM    7  C   UNL     1      42.481 -16.616   3.453  1.00  0.00     0.200 A 
HETATM    8  N   UNL     1      41.134 -16.377   3.659  1.00  0.00    -0.041 NA
HETATM    9  C   UNL     1      42.559 -13.109   3.395  1.00  0.00     0.202 C 
HETATM   10  C   UNL     1      41.284 -12.334   3.069  1.00  0.00     0.062 C 
HETATM   11  H   UNL     1      39.057 -14.676   3.602  1.00  0.00     0.184 HD
ENDROOT
BRANCH  10  12
HETATM   12  C   UNL     1      41.424 -11.028   2.352  1.00  0.00     0.256 C 
HETATM   13  N   UNL     1      41.229 -11.092   0.989  1.00  0.00    -0.323 N 
HETATM   14  H   UNL     1      41.121 -12.000   0.559  1.00  0.00     0.169 HD
HETATM   15  O   UNL     1      41.630 -10.009   3.003  1.00  0.00    -0.267 OA
BRANCH  13  16
HETATM   16  C   UNL     1      41.144 -10.007   0.088  1.00  0.00     0.035 A 
HETATM   17  C   UNL     1      42.203  -9.559  -0.706  1.00  0.00     0.029 A 
HETATM   18  C   UNL     1      42.038  -8.461  -1.556  1.00  0.00     0.002 A 
HETATM   19  C   UNL     1      40.817  -7.795  -1.615  1.00  0.00     0.000 A 
HETATM   20  C   UNL     1      39.754  -8.232  -0.828  1.00  0.00     0.002 A 
HETATM   21  C   UNL     1      39.916  -9.336   0.013  1.00  0.00     0.029 A 
ENDBRANCH  13  16
ENDBRANCH  10  12
BRANCH   9  22
HETATM   22  C   UNL     1      43.236 -12.656   4.691  1.00  0.00    -0.028 A 
HETATM   23  C   UNL     1      44.255 -11.684   4.641  1.00  0.00     0.012 A 
HETATM   24  C   UNL     1      44.890 -11.255   5.810  1.00  0.00     0.037 A 
HETATM   25  C   UNL     1      44.514 -11.798   7.034  1.00  0.00     0.065 A 
HETATM   26  C   UNL     1      43.521 -12.765   7.107  1.00  0.00     0.037 A 
HETATM   27  C   UNL     1      42.891 -13.201   5.941  1.00  0.00     0.012 A 
BRANCH  25  28
HETATM   28  O   UNL     1      45.107 -11.410   8.197  1.00  0.00    -0.361 OA
HETATM   29  H   UNL     1      44.602 -10.675   8.580  1.00  0.00     0.217 HD
ENDBRANCH  25  28
ENDBRANCH   9  22
BRANCH   7  30
HETATM   30  C   UNL     1      43.051 -17.955   3.376  1.00  0.00     0.036 A 
HETATM   31  C   UNL     1      43.728 -18.562   4.445  1.00  0.00     0.048 A 
HETATM   32 CL   UNL     1      43.922 -17.815   5.996  1.00  0.00    -0.083 Cl
HETATM   33  C   UNL     1      44.244 -19.858   4.307  1.00  0.00     0.025 A 
HETATM   34  C   UNL     1      44.088 -20.561   3.112  1.00  0.00     0.002 A 
HETATM   35  C   UNL     1      43.411 -19.973   2.048  1.00  0.00     0.001 A 
HETATM   36  C   UNL     1      42.895 -18.682   2.181  1.00  0.00     0.017 A 
ENDBRANCH   7  30
TORSDOF 5
ENDMDL
MODEL 3
REMARK VINA RESULT:      -9.8      3.731      7.813
REMARK  5 active torsions:
REMARK  status: ('A' for Active; 'I' for Inactive)
REMARK    1  A    between atoms: C_7  and  C_8 
REMARK    2  A    between atoms: C_16  and  C_17 
REMARK    3  A    between atoms: C_20  and  O_21 
REMARK    4  A    between atoms: C_24  and  C_25 
REMARK       I    between atoms: C_25  and  N_26 
REMARK    5  A    between atoms: N_26  and  C_27 
ROOT
HETATM    1  C   UNL     1      38.738 -13.777  -1.574  1.00  0.00     0.070 C 
HETATM    2  C   UNL     1      39.754 -13.846  -0.460  1.00  0.00     0.037 C 
HETATM    3  N   UNL     1      39.670 -14.971   0.364  1.00  0.00    -0.192 N 
HETATM    4  C   UNL     1      40.672 -15.327   1.194  1.00  0.00     0.726 A 
HETATM    5  N   UNL     1      41.661 -14.427   1.461  1.00  0.00    -0.083 N 
HETATM    6  N   UNL     1      42.646 -14.969   2.200  1.00  0.00    -0.135 NA
HETATM    7  C   UNL     1      42.182 -16.224   2.370  1.00  0.00     0.200 A 
HETATM    8  N   UNL     1      40.947 -16.455   1.791  1.00  0.00    -0.041 NA
HETATM    9  C   UNL     1      41.680 -13.062   0.937  1.00  0.00     0.202 C 
HETATM   10  C   UNL     1      40.719 -12.914  -0.240  1.00  0.00     0.062 C 
HETATM   11  H   UNL     1      39.032 -15.706   0.063  1.00  0.00     0.184 HD
ENDROOT
BRANCH  10  12
HETATM   12  C   UNL     1      41.022 -11.864  -1.262  1.00  0.00     0.256 C 
HETATM   13  N   UNL     1      40.876 -10.566  -0.821  1.00  0.00    -0.323 N 
HETATM   14  H   UNL     1      40.478 -10.410   0.095  1.00  0.00     0.169 HD
HETATM   15  O   UNL     1      41.430 -12.208  -2.367  1.00  0.00    -0.267 OA
BRANCH  13  16
HETATM   16  C   UNL     1      41.239  -9.386  -1.507  1.00  0.00     0.035 A 
HETATM   17  C   UNL     1      40.483  -8.806  -2.528  1.00  0.00     0.029 A 
HETATM   18  C   UNL     1      40.929  -7.646  -3.171  1.00  0.00     0.002 A 
HETATM   19  C   UNL     1      42.138  -7.061  -2.806  1.00  0.00     0.000 A 
HETATM   20  C   UNL     1      42.900  -7.630  -1.789  1.00  0.00     0.002 A 
HETATM   21  C   UNL     1      42.449  -8.782  -1.139  1.00  0.00     0.029 A 
ENDBRANCH  13  16
ENDBRANCH  10  12
BRANCH   9  22
HETATM   22  C   UNL     1      41.394 -12.091   2.086  1.00  0.00    -0.028 A 
HETATM   23  C   UNL     1      42.449 -11.346   2.647  1.00  0.00     0.012 A 
HETATM   24  C   UNL     1      42.214 -10.455   3.698  1.00  0.00     0.037 A 
HETATM   25  C   UNL     1      40.925 -10.307   4.198  1.00  0.00     0.065 A 
HETATM   26  C   UNL     1      39.871 -11.040   3.669  1.00  0.00     0.037 A 
HETATM   27  C   UNL     1      40.104 -11.936   2.626  1.00  0.00     0.012 A 
BRANCH  25  28
HETATM   28  O   UNL     1      40.652  -9.452   5.222  1.00  0.00    -0.361 OA
HETATM   29  H   UNL     1      40.977  -9.838   6.051  1.00  0.00     0.217 HD
ENDBRANCH  25  28
ENDBRANCH   9  22
BRANCH   7  30
HETATM   30  C   UNL     1      42.909 -17.236   3.126  1.00  0.00     0.036 A 
HETATM   31  C   UNL     1      43.257 -17.080   4.477  1.00  0.00     0.048 A 
HETATM   32 CL   UNL     1      42.821 -15.693   5.418  1.00  0.00    -0.083 Cl
HETATM   33  C   UNL     1      43.950 -18.097   5.148  1.00  0.00     0.025 A 
HETATM   34  C   UNL     1      44.296 -19.276   4.487  1.00  0.00     0.002 A 
HETATM   35  C   UNL     1      43.949 -19.446   3.151  1.00  0.00     0.001 A 
HETATM   36  C   UNL     1      43.259 -18.435   2.477  1.00  0.00     0.017 A 
ENDBRANCH   7  30
TORSDOF 5
ENDMDL
MODEL 4
REMARK VINA RESULT:      -9.7      1.437      1.941
REMARK  5 active torsions:
REMARK  status: ('A' for Active; 'I' for Inactive)
REMARK    1  A    between atoms: C_7  and  C_8 
REMARK    2  A    between atoms: C_16  and  C_17 
REMARK    3  A    between atoms: C_20  and  O_21 
REMARK    4  A    between atoms: C_24  and  C_25 
REMARK       I    between atoms: C_25  and  N_26 
REMARK    5  A    between atoms: N_26  and  C_27 
ROOT
HETATM    1  C   UNL     1      39.831 -12.677   6.415  1.00  0.00     0.070 C 
HETATM    2  C   UNL     1      40.351 -12.914   5.018  1.00  0.00     0.037 C 
HETATM    3  N   UNL     1      39.391 -12.879   4.004  1.00  0.00    -0.192 N 
HETATM    4  C   UNL     1      39.728 -12.768   2.702  1.00  0.00     0.726 A 
HETATM    5  N   UNL     1      41.021 -12.990   2.334  1.00  0.00    -0.083 N 
HETATM    6  N   UNL     1      41.225 -12.722   1.030  1.00  0.00    -0.135 NA
HETATM    7  C   UNL     1      39.986 -12.349   0.647  1.00  0.00     0.200 A 
HETATM    8  N   UNL     1      39.039 -12.408   1.654  1.00  0.00    -0.041 NA
HETATM    9  C   UNL     1      42.074 -13.396   3.264  1.00  0.00     0.202 C 
HETATM   10  C   UNL     1      41.656 -13.134   4.710  1.00  0.00     0.062 C 
HETATM   11  H   UNL     1      38.461 -12.561   4.272  1.00  0.00     0.184 HD
ENDROOT
BRANCH  10  12
HETATM   12  C   UNL     1      42.737 -12.890   5.716  1.00  0.00     0.256 C 
HETATM   13  N   UNL     1      43.189 -11.589   5.775  1.00  0.00    -0.323 N 
HETATM   14  H   UNL     1      42.857 -10.930   5.084  1.00  0.00     0.169 HD
HETATM   15  O   UNL     1      43.094 -13.811   6.443  1.00  0.00    -0.267 OA
BRANCH  13  16
HETATM   16  C   UNL     1      44.079 -11.038   6.725  1.00  0.00     0.035 A 
HETATM   17  C   UNL     1      45.465 -11.205   6.692  1.00  0.00     0.029 A 
HETATM   18  C   UNL     1      46.272 -10.642   7.687  1.00  0.00     0.002 A 
HETATM   19  C   UNL     1      45.700  -9.916   8.727  1.00  0.00     0.000 A 
HETATM   20  C   UNL     1      44.319  -9.742   8.770  1.00  0.00     0.002 A 
HETATM   21  C   UNL     1      43.514 -10.295   7.770  1.00  0.00     0.029 A 
ENDBRANCH  13  16
ENDBRANCH  10  12
BRANCH   9  22
HETATM   22  C   UNL     1      42.438 -14.857   2.988  1.00  0.00    -0.028 A 
HETATM   23  C   UNL     1      41.961 -15.868   3.845  1.00  0.00     0.012 A 
HETATM   24  C   UNL     1      42.281 -17.209   3.616  1.00  0.00     0.037 A 
HETATM   25  C   UNL     1      43.083 -17.547   2.531  1.00  0.00     0.065 A 
HETATM   26  C   UNL     1      43.574 -16.568   1.679  1.00  0.00     0.037 A 
HETATM   27  C   UNL     1      43.263 -15.228   1.910  1.00  0.00     0.012 A 
BRANCH  25  28
HETATM   28  O   UNL     1      43.421 -18.841   2.271  1.00  0.00    -0.361 OA
HETATM   29  H   UNL     1      42.626 -19.394   2.338  1.00  0.00     0.217 HD
ENDBRANCH  25  28
ENDBRANCH   9  22
BRANCH   7  30
HETATM   30  C   UNL     1      39.673 -11.948  -0.719  1.00  0.00     0.036 A 
HETATM   31  C   UNL     1      39.309 -12.862  -1.720  1.00  0.00     0.048 A 
HETATM   32 CL   UNL     1      39.138 -14.562  -1.441  1.00  0.00    -0.083 Cl
HETATM   33  C   UNL     1      39.012 -12.408  -3.013  1.00  0.00     0.025 A 
HETATM   34  C   UNL     1      39.069 -11.048  -3.319  1.00  0.00     0.002 A 
HETATM   35  C   UNL     1      39.419 -10.132  -2.333  1.00  0.00     0.001 A 
HETATM   36  C   UNL     1      39.717 -10.579  -1.043  1.00  0.00     0.017 A 
ENDBRANCH   7  30
TORSDOF 5
ENDMDL
MODEL 5
REMARK VINA RESULT:      -9.6      4.033      6.825
REMARK  5 active torsions:
REMARK  status: ('A' for Active; 'I' for Inactive)
REMARK    1  A    between atoms: C_7  and  C_8 
REMARK    2  A    between atoms: C_16  and  C_17 
REMARK    3  A    between atoms: C_20  and  O_21 
REMARK    4  A    between atoms: C_24  and  C_25 
REMARK       I    between atoms: C_25  and  N_26 
REMARK    5  A    between atoms: N_26  and  C_27 
ROOT
HETATM    1  C   UNL     1      39.520 -12.507   3.563  1.00  0.00     0.070 C 
HETATM    2  C   UNL     1      39.940 -12.189   2.148  1.00  0.00     0.037 C 
HETATM    3  N   UNL     1      39.859 -10.842   1.784  1.00  0.00    -0.192 N 
HETATM    4  C   UNL     1      40.473 -10.360   0.684  1.00  0.00     0.726 A 
HETATM    5  N   UNL     1      40.934 -11.236  -0.253  1.00  0.00    -0.083 N 
HETATM    6  N   UNL     1      41.627 -10.613  -1.224  1.00  0.00    -0.135 NA
HETATM    7  C   UNL     1      41.537  -9.328  -0.823  1.00  0.00     0.200 A 
HETATM    8  N   UNL     1      40.795  -9.146   0.331  1.00  0.00    -0.041 NA
HETATM    9  C   UNL     1      40.760 -12.686  -0.166  1.00  0.00     0.202 C 
HETATM   10  C   UNL     1      40.391 -13.108   1.254  1.00  0.00     0.062 C 
HETATM   11  H   UNL     1      39.662 -10.182   2.534  1.00  0.00     0.184 HD
ENDROOT
BRANCH  10  12
HETATM   12  C   UNL     1      40.765 -14.489   1.692  1.00  0.00     0.256 C 
HETATM   13  N   UNL     1      42.082 -14.639   2.071  1.00  0.00    -0.323 N 
HETATM   14  H   UNL     1      42.717 -13.866   1.926  1.00  0.00     0.169 HD
HETATM   15  O   UNL     1      39.897 -15.353   1.748  1.00  0.00    -0.267 OA
BRANCH  13  16
HETATM   16  C   UNL     1      42.673 -15.774   2.670  1.00  0.00     0.035 A 
HETATM   17  C   UNL     1      42.980 -16.953   1.989  1.00  0.00     0.029 A 
HETATM   18  C   UNL     1      43.545 -18.039   2.666  1.00  0.00     0.002 A 
HETATM   19  C   UNL     1      43.800 -17.959   4.032  1.00  0.00     0.000 A 
HETATM   20  C   UNL     1      43.499 -16.788   4.722  1.00  0.00     0.002 A 
HETATM   21  C   UNL     1      42.945 -15.699   4.043  1.00  0.00     0.029 A 
ENDBRANCH  13  16
ENDBRANCH  10  12
BRANCH   9  22
HETATM   22  C   UNL     1      39.738 -13.122  -1.219  1.00  0.00    -0.028 A 
HETATM   23  C   UNL     1      40.046 -14.184  -2.091  1.00  0.00     0.012 A 
HETATM   24  C   UNL     1      39.131 -14.600  -3.062  1.00  0.00     0.037 A 
HETATM   25  C   UNL     1      37.905 -13.953  -3.171  1.00  0.00     0.065 A 
HETATM   26  C   UNL     1      37.583 -12.895  -2.332  1.00  0.00     0.037 A 
HETATM   27  C   UNL     1      38.498 -12.473  -1.367  1.00  0.00     0.012 A 
BRANCH  25  28
HETATM   28  O   UNL     1      36.984 -14.324  -4.104  1.00  0.00    -0.361 OA
HETATM   29  H   UNL     1      37.383 -14.254  -4.986  1.00  0.00     0.217 HD
ENDBRANCH  25  28
ENDBRANCH   9  22
BRANCH   7  30
HETATM   30  C   UNL     1      42.144  -8.229  -1.562  1.00  0.00     0.036 A 
HETATM   31  C   UNL     1      41.945  -8.029  -2.937  1.00  0.00     0.048 A 
HETATM   32 CL   UNL     1      40.917  -9.030  -3.906  1.00  0.00    -0.083 Cl
HETATM   33  C   UNL     1      42.553  -6.945  -3.586  1.00  0.00     0.025 A 
HETATM   34  C   UNL     1      43.355  -6.051  -2.876  1.00  0.00     0.002 A 
HETATM   35  C   UNL     1      43.553  -6.234  -1.511  1.00  0.00     0.001 A 
HETATM   36  C   UNL     1      42.950  -7.313  -0.860  1.00  0.00     0.017 A 
ENDBRANCH   7  30
TORSDOF 5
ENDMDL
MODEL 6
REMARK VINA RESULT:      -9.2      2.537      3.363
REMARK  5 active torsions:
REMARK  status: ('A' for Active; 'I' for Inactive)
REMARK    1  A    between atoms: C_7  and  C_8 
REMARK    2  A    between atoms: C_16  and  C_17 
REMARK    3  A    between atoms: C_20  and  O_21 
REMARK    4  A    between atoms: C_24  and  C_25 
REMARK       I    between atoms: C_25  and  N_26 
REMARK    5  A    between atoms: N_26  and  C_27 
ROOT
HETATM    1  C   UNL     1      39.030  -9.519   6.474  1.00  0.00     0.070 C 
HETATM    2  C   UNL     1      39.710 -10.532   5.584  1.00  0.00     0.037 C 
HETATM    3  N   UNL     1      38.902 -11.113   4.604  1.00  0.00    -0.192 N 
HETATM    4  C   UNL     1      39.420 -11.789   3.558  1.00  0.00     0.726 A 
HETATM    5  N   UNL     1      40.727 -12.173   3.601  1.00  0.00    -0.083 N 
HETATM    6  N   UNL     1      41.126 -12.725   2.440  1.00  0.00    -0.135 NA
HETATM    7  C   UNL     1      39.987 -12.663   1.720  1.00  0.00     0.200 A 
HETATM    8  N   UNL     1      38.912 -12.125   2.404  1.00  0.00    -0.041 NA
HETATM    9  C   UNL     1      41.606 -11.940   4.747  1.00  0.00     0.202 C 
HETATM   10  C   UNL     1      41.022 -10.878   5.676  1.00  0.00     0.062 C 
HETATM   11  H   UNL     1      37.975 -10.707   4.483  1.00  0.00     0.184 HD
ENDROOT
BRANCH  10  12
HETATM   12  C   UNL     1      41.974 -10.075   6.505  1.00  0.00     0.256 C 
HETATM   13  N   UNL     1      42.449 -10.718   7.628  1.00  0.00    -0.323 N 
HETATM   14  H   UNL     1      42.052 -11.615   7.875  1.00  0.00     0.169 HD
HETATM   15  O   UNL     1      42.311  -8.961   6.116  1.00  0.00    -0.267 OA
BRANCH  13  16
HETATM   16  C   UNL     1      43.467 -10.272   8.500  1.00  0.00     0.035 A 
HETATM   17  C   UNL     1      44.833 -10.367   8.227  1.00  0.00     0.029 A 
HETATM   18  C   UNL     1      45.776  -9.919   9.159  1.00  0.00     0.002 A 
HETATM   19  C   UNL     1      45.363  -9.381  10.374  1.00  0.00     0.000 A 
HETATM   20  C   UNL     1      44.003  -9.280  10.657  1.00  0.00     0.002 A 
HETATM   21  C   UNL     1      43.061  -9.717   9.722  1.00  0.00     0.029 A 
ENDBRANCH  13  16
ENDBRANCH  10  12
BRANCH   9  22
HETATM   22  C   UNL     1      41.876 -13.278   5.440  1.00  0.00    -0.028 A 
HETATM   23  C   UNL     1      43.203 -13.720   5.606  1.00  0.00     0.012 A 
HETATM   24  C   UNL     1      43.476 -14.938   6.234  1.00  0.00     0.037 A 
HETATM   25  C   UNL     1      42.425 -15.724   6.694  1.00  0.00     0.065 A 
HETATM   26  C   UNL     1      41.109 -15.315   6.530  1.00  0.00     0.037 A 
HETATM   27  C   UNL     1      40.833 -14.103   5.897  1.00  0.00     0.012 A 
BRANCH  25  28
HETATM   28  O   UNL     1      42.646 -16.920   7.309  1.00  0.00    -0.361 OA
HETATM   29  H   UNL     1      42.008 -17.570   6.973  1.00  0.00     0.217 HD
ENDBRANCH  25  28
ENDBRANCH   9  22
BRANCH   7  30
HETATM   30  C   UNL     1      39.896 -13.151   0.349  1.00  0.00     0.036 A 
HETATM   31  C   UNL     1      39.834 -14.515   0.025  1.00  0.00     0.048 A 
HETATM   32 CL   UNL     1      39.805 -15.776   1.211  1.00  0.00    -0.083 Cl
HETATM   33  C   UNL     1      39.739 -14.917  -1.315  1.00  0.00     0.025 A 
HETATM   34  C   UNL     1      39.700 -13.970  -2.339  1.00  0.00     0.002 A 
HETATM   35  C   UNL     1      39.752 -12.615  -2.029  1.00  0.00     0.001 A 
HETATM   36  C   UNL     1      39.847 -12.210  -0.696  1.00  0.00     0.017 A 
ENDBRANCH   7  30
TORSDOF 5
ENDMDL
MODEL 7
REMARK VINA RESULT:      -9.2      4.101      7.584
REMARK  5 active torsions:
REMARK  status: ('A' for Active; 'I' for Inactive)
REMARK    1  A    between atoms: C_7  and  C_8 
REMARK    2  A    between atoms: C_16  and  C_17 
REMARK    3  A    between atoms: C_20  and  O_21 
REMARK    4  A    between atoms: C_24  and  C_25 
REMARK       I    between atoms: C_25  and  N_26 
REMARK    5  A    between atoms: N_26  and  C_27 
ROOT
HETATM    1  C   UNL     1      41.702  -9.743   3.785  1.00  0.00     0.070 C 
HETATM    2  C   UNL     1      41.534 -11.136   3.229  1.00  0.00     0.037 C 
HETATM    3  N   UNL     1      42.654 -11.965   3.330  1.00  0.00    -0.192 N 
HETATM    4  C   UNL     1      42.572 -13.301   3.165  1.00  0.00     0.726 A 
HETATM    5  N   UNL     1      41.450 -13.830   2.601  1.00  0.00    -0.083 N 
HETATM    6  N   UNL     1      41.467 -15.176   2.618  1.00  0.00    -0.135 NA
HETATM    7  C   UNL     1      42.660 -15.413   3.202  1.00  0.00     0.200 A 
HETATM    8  N   UNL     1      43.375 -14.270   3.512  1.00  0.00    -0.041 NA
HETATM    9  C   UNL     1      40.331 -13.027   2.109  1.00  0.00     0.202 C 
HETATM   10  C   UNL     1      40.387 -11.609   2.673  1.00  0.00     0.062 C 
HETATM   11  H   UNL     1      43.429 -11.612   3.888  1.00  0.00     0.184 HD
ENDROOT
BRANCH  10  12
HETATM   12  C   UNL     1      39.098 -10.861   2.812  1.00  0.00     0.256 C 
HETATM   13  N   UNL     1      38.717 -10.152   1.694  1.00  0.00    -0.323 N 
HETATM   14  H   UNL     1      39.362 -10.089   0.918  1.00  0.00     0.169 HD
HETATM   15  O   UNL     1      38.453 -10.974   3.849  1.00  0.00    -0.267 OA
BRANCH  13  16
HETATM   16  C   UNL     1      37.487  -9.489   1.483  1.00  0.00     0.035 A 
HETATM   17  C   UNL     1      37.168  -8.236   2.011  1.00  0.00     0.029 A 
HETATM   18  C   UNL     1      35.916  -7.661   1.770  1.00  0.00     0.002 A 
HETATM   19  C   UNL     1      34.968  -8.337   1.007  1.00  0.00     0.000 A 
HETATM   20  C   UNL     1      35.274  -9.587   0.475  1.00  0.00     0.002 A 
HETATM   21  C   UNL     1      36.529 -10.156   0.707  1.00  0.00     0.029 A 
ENDBRANCH  13  16
ENDBRANCH  10  12
BRANCH   9  22
HETATM   22  C   UNL     1      40.325 -13.078   0.579  1.00  0.00    -0.028 A 
HETATM   23  C   UNL     1      39.679 -14.142  -0.079  1.00  0.00     0.012 A 
HETATM   24  C   UNL     1      39.661 -14.212  -1.475  1.00  0.00     0.037 A 
HETATM   25  C   UNL     1      40.291 -13.222  -2.221  1.00  0.00     0.065 A 
HETATM   26  C   UNL     1      40.945 -12.170  -1.594  1.00  0.00     0.037 A 
HETATM   27  C   UNL     1      40.971 -12.102  -0.201  1.00  0.00     0.012 A 
BRANCH  25  28
HETATM   28  O   UNL     1      40.300 -13.252  -3.582  1.00  0.00    -0.361 OA
HETATM   29  H   UNL     1      39.406 -13.460  -3.899  1.00  0.00     0.217 HD
ENDBRANCH  25  28
ENDBRANCH   9  22
BRANCH   7  30
HETATM   30  C   UNL     1      43.159 -16.759   3.454  1.00  0.00     0.036 A 
HETATM   31  C   UNL     1      43.675 -17.164   4.695  1.00  0.00     0.048 A 
HETATM   32 CL   UNL     1      43.732 -16.133   6.085  1.00  0.00    -0.083 Cl
HETATM   33  C   UNL     1      44.131 -18.478   4.873  1.00  0.00     0.025 A 
HETATM   34  C   UNL     1      44.074 -19.397   3.825  1.00  0.00     0.002 A 
HETATM   35  C   UNL     1      43.556 -19.010   2.593  1.00  0.00     0.001 A 
HETATM   36  C   UNL     1      43.101 -17.702   2.411  1.00  0.00     0.017 A 
ENDBRANCH   7  30
TORSDOF 5
ENDMDL
MODEL 8
REMARK VINA RESULT:      -9.1      4.544      7.584
REMARK  5 active torsions:
REMARK  status: ('A' for Active; 'I' for Inactive)
REMARK    1  A    between atoms: C_7  and  C_8 
REMARK    2  A    between atoms: C_16  and  C_17 
REMARK    3  A    between atoms: C_20  and  O_21 
REMARK    4  A    between atoms: C_24  and  C_25 
REMARK       I    between atoms: C_25  and  N_26 
REMARK    5  A    between atoms: N_26  and  C_27 
ROOT
HETATM    1  C   UNL     1      45.243  -9.019   8.659  1.00  0.00     0.070 C 
HETATM    2  C   UNL     1      44.190  -9.757   7.869  1.00  0.00     0.037 C 
HETATM    3  N   UNL     1      44.670 -10.590   6.856  1.00  0.00    -0.192 N 
HETATM    4  C   UNL     1      43.896 -11.531   6.276  1.00  0.00     0.726 A 
HETATM    5  N   UNL     1      42.546 -11.482   6.461  1.00  0.00    -0.083 N 
HETATM    6  N   UNL     1      41.928 -12.552   5.926  1.00  0.00    -0.135 NA
HETATM    7  C   UNL     1      42.976 -13.222   5.404  1.00  0.00     0.200 A 
HETATM    8  N   UNL     1      44.195 -12.590   5.574  1.00  0.00    -0.041 NA
HETATM    9  C   UNL     1      41.867 -10.431   7.217  1.00  0.00     0.202 C 
HETATM   10  C   UNL     1      42.853  -9.666   8.097  1.00  0.00     0.062 C 
HETATM   11  H   UNL     1      45.678 -10.736   6.829  1.00  0.00     0.184 HD
ENDROOT
BRANCH  10  12
HETATM   12  C   UNL     1      42.326  -9.024   9.342  1.00  0.00     0.256 C 
HETATM   13  N   UNL     1      42.411  -9.803  10.476  1.00  0.00    -0.323 N 
HETATM   14  H   UNL     1      42.707 -10.765  10.379  1.00  0.00     0.169 HD
HETATM   15  O   UNL     1      41.926  -7.865   9.292  1.00  0.00    -0.267 OA
BRANCH  13  16
HETATM   16  C   UNL     1      42.141  -9.407  11.805  1.00  0.00     0.035 A 
HETATM   17  C   UNL     1      41.010  -9.796  12.526  1.00  0.00     0.029 A 
HETATM   18  C   UNL     1      40.809  -9.338  13.833  1.00  0.00     0.002 A 
HETATM   19  C   UNL     1      41.731  -8.482  14.427  1.00  0.00     0.000 A 
HETATM   20  C   UNL     1      42.863  -8.087  13.717  1.00  0.00     0.002 A 
HETATM   21  C   UNL     1      43.069  -8.554  12.416  1.00  0.00     0.029 A 
ENDBRANCH  13  16
ENDBRANCH  10  12
BRANCH   9  22
HETATM   22  C   UNL     1      41.100  -9.538   6.238  1.00  0.00    -0.028 A 
HETATM   23  C   UNL     1      39.753  -9.218   6.495  1.00  0.00     0.012 A 
HETATM   24  C   UNL     1      39.031  -8.406   5.616  1.00  0.00     0.037 A 
HETATM   25  C   UNL     1      39.649  -7.915   4.471  1.00  0.00     0.065 A 
HETATM   26  C   UNL     1      40.972  -8.227   4.190  1.00  0.00     0.037 A 
HETATM   27  C   UNL     1      41.693  -9.043   5.062  1.00  0.00     0.012 A 
BRANCH  25  28
HETATM   28  O   UNL     1      38.983  -7.122   3.586  1.00  0.00    -0.361 OA
HETATM   29  H   UNL     1      38.895  -7.596   2.743  1.00  0.00     0.217 HD
ENDBRANCH  25  28
ENDBRANCH   9  22
BRANCH   7  30
HETATM   30  C   UNL     1      42.826 -14.487   4.696  1.00  0.00     0.036 A 
HETATM   31  C   UNL     1      42.542 -15.699   5.345  1.00  0.00     0.048 A 
HETATM   32 CL   UNL     1      42.284 -15.827   7.052  1.00  0.00    -0.083 Cl
HETATM   33  C   UNL     1      42.402 -16.879   4.601  1.00  0.00     0.025 A 
HETATM   34  C   UNL     1      42.538 -16.865   3.213  1.00  0.00     0.002 A 
HETATM   35  C   UNL     1      42.811 -15.669   2.558  1.00  0.00     0.001 A 
HETATM   36  C   UNL     1      42.951 -14.489   3.294  1.00  0.00     0.017 A 
ENDBRANCH   7  30
TORSDOF 5
ENDMDL
MODEL 9
REMARK VINA RESULT:      -9.0      4.225      6.637
REMARK  5 active torsions:
REMARK  status: ('A' for Active; 'I' for Inactive)
REMARK    1  A    between atoms: C_7  and  C_8 
REMARK    2  A    between atoms: C_16  and  C_17 
REMARK    3  A    between atoms: C_20  and  O_21 
REMARK    4  A    between atoms: C_24  and  C_25 
REMARK       I    between atoms: C_25  and  N_26 
REMARK    5  A    between atoms: N_26  and  C_27 
ROOT
HETATM    1  C   UNL     1      38.621 -11.185   6.468  1.00  0.00     0.070 C 
HETATM    2  C   UNL     1      39.946 -11.751   6.019  1.00  0.00     0.037 C 
HETATM    3  N   UNL     1      40.124 -13.119   6.240  1.00  0.00    -0.192 N 
HETATM    4  C   UNL     1      41.103 -13.821   5.633  1.00  0.00     0.726 A 
HETATM    5  N   UNL     1      42.120 -13.147   5.025  1.00  0.00    -0.083 N 
HETATM    6  N   UNL     1      42.946 -13.978   4.363  1.00  0.00    -0.135 NA
HETATM    7  C   UNL     1      42.377 -15.172   4.624  1.00  0.00     0.200 A 
HETATM    8  N   UNL     1      41.261 -15.102   5.439  1.00  0.00    -0.041 NA
HETATM    9  C   UNL     1      42.248 -11.690   5.031  1.00  0.00     0.202 C 
HETATM   10  C   UNL     1      40.928 -11.027   5.418  1.00  0.00     0.062 C 
HETATM   11  H   UNL     1      39.304 -13.637   6.551  1.00  0.00     0.184 HD
ENDROOT
BRANCH  10  12
HETATM   12  C   UNL     1      40.663  -9.646   4.905  1.00  0.00     0.256 C 
HETATM   13  N   UNL     1      40.710  -8.655   5.861  1.00  0.00    -0.323 N 
HETATM   14  H   UNL     1      40.803  -8.923   6.831  1.00  0.00     0.169 HD
HETATM   15  O   UNL     1      40.492  -9.480   3.702  1.00  0.00    -0.267 OA
BRANCH  13  16
HETATM   16  C   UNL     1      40.656  -7.259   5.646  1.00  0.00     0.035 A 
HETATM   17  C   UNL     1      41.779  -6.441   5.513  1.00  0.00     0.029 A 
HETATM   18  C   UNL     1      41.636  -5.062   5.324  1.00  0.00     0.002 A 
HETATM   19  C   UNL     1      40.369  -4.488   5.274  1.00  0.00     0.000 A 
HETATM   20  C   UNL     1      39.240  -5.295   5.404  1.00  0.00     0.002 A 
HETATM   21  C   UNL     1      39.384  -6.673   5.582  1.00  0.00     0.029 A 
ENDBRANCH  13  16
ENDBRANCH  10  12
BRANCH   9  22
HETATM   22  C   UNL     1      43.417 -11.303   5.941  1.00  0.00    -0.028 A 
HETATM   23  C   UNL     1      44.739 -11.487   5.492  1.00  0.00     0.012 A 
HETATM   24  C   UNL     1      45.823 -11.144   6.304  1.00  0.00     0.037 A 
HETATM   25  C   UNL     1      45.593 -10.619   7.571  1.00  0.00     0.065 A 
HETATM   26  C   UNL     1      44.299 -10.441   8.040  1.00  0.00     0.037 A 
HETATM   27  C   UNL     1      43.215 -10.790   7.235  1.00  0.00     0.012 A 
BRANCH  25  28
HETATM   28  O   UNL     1      46.620 -10.273   8.396  1.00  0.00    -0.361 OA
HETATM   29  H   UNL     1      46.646  -9.307   8.480  1.00  0.00     0.217 HD
ENDBRANCH  25  28
ENDBRANCH   9  22
BRANCH   7  30
HETATM   30  C   UNL     1      42.913 -16.428   4.115  1.00  0.00     0.036 A 
HETATM   31  C   UNL     1      43.882 -17.180   4.799  1.00  0.00     0.048 A 
HETATM   32 CL   UNL     1      44.514 -16.734   6.348  1.00  0.00    -0.083 Cl
HETATM   33  C   UNL     1      44.349 -18.385   4.256  1.00  0.00     0.025 A 
HETATM   34  C   UNL     1      43.858 -18.854   3.038  1.00  0.00     0.002 A 
HETATM   35  C   UNL     1      42.891 -18.122   2.355  1.00  0.00     0.001 A 
HETATM   36  C   UNL     1      42.422 -16.920   2.892  1.00  0.00     0.017 A 
ENDBRANCH   7  30
TORSDOF 5
ENDMDL
MODEL 10
REMARK VINA RESULT:      -9.0      4.041      6.919
REMARK  5 active torsions:
REMARK  status: ('A' for Active; 'I' for Inactive)
REMARK    1  A    between atoms: C_7  and  C_8 
REMARK    2  A    between atoms: C_16  and  C_17 
REMARK    3  A    between atoms: C_20  and  O_21 
REMARK    4  A    between atoms: C_24  and  C_25 
REMARK       I    between atoms: C_25  and  N_26 
REMARK    5  A    between atoms: N_26  and  C_27 
ROOT
HETATM    1  C   UNL     1      38.463 -11.397   5.706  1.00  0.00     0.070 C 
HETATM    2  C   UNL     1      39.814 -11.991   5.390  1.00  0.00     0.037 C 
HETATM    3  N   UNL     1      39.945 -13.359   5.641  1.00  0.00    -0.192 N 
HETATM    4  C   UNL     1      40.964 -14.085   5.137  1.00  0.00     0.726 A 
HETATM    5  N   UNL     1      42.046 -13.436   4.621  1.00  0.00    -0.083 N 
HETATM    6  N   UNL     1      42.916 -14.289   4.048  1.00  0.00    -0.135 NA
HETATM    7  C   UNL     1      42.302 -15.470   4.266  1.00  0.00     0.200 A 
HETATM    8  N   UNL     1      41.116 -15.371   4.971  1.00  0.00    -0.041 NA
HETATM    9  C   UNL     1      42.199 -11.982   4.624  1.00  0.00     0.202 C 
HETATM   10  C   UNL     1      40.861 -11.292   4.878  1.00  0.00     0.062 C 
HETATM   11  H   UNL     1      39.090 -13.860   5.878  1.00  0.00     0.184 HD
ENDROOT
BRANCH  10  12
HETATM   12  C   UNL     1      40.671  -9.913   4.328  1.00  0.00     0.256 C 
HETATM   13  N   UNL     1      40.135  -9.864   3.060  1.00  0.00    -0.323 N 
HETATM   14  H   UNL     1      40.015 -10.731   2.553  1.00  0.00     0.169 HD
HETATM   15  O   UNL     1      40.932  -8.947   5.038  1.00  0.00    -0.267 OA
BRANCH  13  16
HETATM   16  C   UNL     1      39.704  -8.715   2.359  1.00  0.00     0.035 A 
HETATM   17  C   UNL     1      40.491  -8.010   1.446  1.00  0.00     0.029 A 
HETATM   18  C   UNL     1      39.992  -6.867   0.813  1.00  0.00     0.002 A 
HETATM   19  C   UNL     1      38.706  -6.413   1.093  1.00  0.00     0.000 A 
HETATM   20  C   UNL     1      37.912  -7.109   2.002  1.00  0.00     0.002 A 
HETATM   21  C   UNL     1      38.407  -8.257   2.626  1.00  0.00     0.029 A 
ENDBRANCH  13  16
ENDBRANCH  10  12
BRANCH   9  22
HETATM   22  C   UNL     1      43.284 -11.605   5.636  1.00  0.00    -0.028 A 
HETATM   23  C   UNL     1      42.922 -11.280   6.958  1.00  0.00     0.012 A 
HETATM   24  C   UNL     1      43.893 -10.931   7.899  1.00  0.00     0.037 A 
HETATM   25  C   UNL     1      45.232 -10.898   7.525  1.00  0.00     0.065 A 
HETATM   26  C   UNL     1      45.613 -11.202   6.225  1.00  0.00     0.037 A 
HETATM   27  C   UNL     1      44.645 -11.544   5.281  1.00  0.00     0.012 A 
BRANCH  25  28
HETATM   28  O   UNL     1      46.211 -10.561   8.410  1.00  0.00    -0.361 OA
HETATM   29  H   UNL     1      46.146  -9.613   8.607  1.00  0.00     0.217 HD
ENDBRANCH  25  28
ENDBRANCH   9  22
BRANCH   7  30
HETATM   30  C   UNL     1      42.862 -16.741   3.823  1.00  0.00     0.036 A 
HETATM   31  C   UNL     1      43.850 -17.434   4.539  1.00  0.00     0.048 A 
HETATM   32 CL   UNL     1      44.482 -16.892   6.057  1.00  0.00    -0.083 Cl
HETATM   33  C   UNL     1      44.338 -18.658   4.060  1.00  0.00     0.025 A 
HETATM   34  C   UNL     1      43.849 -19.203   2.873  1.00  0.00     0.002 A 
HETATM   35  C   UNL     1      42.864 -18.529   2.158  1.00  0.00     0.001 A 
HETATM   36  C   UNL     1      42.373 -17.309   2.631  1.00  0.00     0.017 A 
ENDBRANCH   7  30
TORSDOF 5
ENDMDL
