MODEL 1
REMARK VINA RESULT:      -8.3      0.000      0.000
REMARK  6 active torsions:
REMARK  status: ('A' for Active; 'I' for Inactive)
REMARK    1  A    between atoms: N_2  and  C_4 
REMARK    2  A    between atoms: N_2  and  C_16 
REMARK    3  A    between atoms: C_4  and  C_5 
REMARK       I    between atoms: C_5  and  N_6 
REMARK    4  A    between atoms: N_6  and  C_7 
REMARK    5  A    between atoms: C_16  and  C_17 
REMARK    6  A    between atoms: C_21  and  C_22 
ROOT
HETATM    1  C   UNL     1      41.668 -10.945   2.100  1.00  0.00     0.270 C 
HETATM    2  N   UNL     1      42.424 -12.167   2.519  1.00  0.00    -0.061 N 
HETATM    3  H   UNL     1      42.969 -12.464   1.690  1.00  0.00     0.280 HD
ENDROOT
BRANCH   2   4
HETATM    4  C   UNL     1      43.391 -11.925   3.670  1.00  0.00     0.337 C 
BRANCH   4   5
HETATM    5  C   UNL     1      42.744 -11.355   4.934  1.00  0.00     0.248 C 
HETATM    6  N   UNL     1      42.465 -12.119   6.025  1.00  0.00    -0.326 N 
HETATM    7  H   UNL     1      42.124 -11.537   6.789  1.00  0.00     0.169 HD
HETATM    8  O   UNL     1      42.481 -10.148   5.001  1.00  0.00    -0.271 OA
BRANCH   6   9
HETATM    9  C   UNL     1      42.540 -13.496   6.309  1.00  0.00     0.040 A 
HETATM   10  C   UNL     1      43.710 -14.243   6.424  1.00  0.00     0.072 A 
HETATM   11  C   UNL     1      43.643 -15.611   6.707  1.00  0.00     0.121 A 
HETATM   12  F   UNL     1      44.785 -16.301   6.814  1.00  0.00    -0.206 F 
HETATM   13  C   UNL     1      42.434 -16.264   6.872  1.00  0.00     0.084 A 
HETATM   14  C   UNL     1      41.272 -15.526   6.741  1.00  0.00     0.121 A 
HETATM   15  F   UNL     1      40.085 -16.127   6.887  1.00  0.00    -0.206 F 
HETATM   16  C   UNL     1      41.314 -14.161   6.460  1.00  0.00     0.072 A 
ENDBRANCH   6   9
ENDBRANCH   4   5
ENDBRANCH   2   4
BRANCH   2  17
HETATM   17  C   UNL     1      41.506 -13.367   2.728  1.00  0.00     0.295 C 
BRANCH  17  18
HETATM   18  C   UNL     1      42.286 -14.638   2.582  1.00  0.00     0.082 A 
HETATM   19  N   UNL     1      43.213 -14.733   1.614  1.00  0.00    -0.177 NA
HETATM   20  N   UNL     1      43.685 -15.993   1.756  1.00  0.00    -0.277 N 
HETATM   21  H   UNL     1      44.404 -16.322   1.118  1.00  0.00     0.189 HD
HETATM   22  C   UNL     1      43.080 -16.707   2.762  1.00  0.00     0.062 A 
HETATM   23  C   UNL     1      42.167 -15.833   3.319  1.00  0.00     0.062 A 
BRANCH  22  24
HETATM   24  C   UNL     1      43.384 -18.106   3.066  1.00  0.00    -0.008 A 
HETATM   25  C   UNL     1      43.907 -18.488   4.310  1.00  0.00     0.014 A 
HETATM   26  C   UNL     1      44.202 -19.828   4.579  1.00  0.00     0.001 A 
HETATM   27  C   UNL     1      43.975 -20.802   3.611  1.00  0.00     0.000 A 
HETATM   28  C   UNL     1      43.450 -20.440   2.373  1.00  0.00     0.001 A 
HETATM   29  C   UNL     1      43.156 -19.101   2.103  1.00  0.00     0.014 A 
ENDBRANCH  22  24
ENDBRANCH  17  18
ENDBRANCH   2  17
TORSDOF 6
ENDMDL
MODEL 2
REMARK VINA RESULT:      -8.3      2.637      4.148
REMARK  6 active torsions:
REMARK  status: ('A' for Active; 'I' for Inactive)
REMARK    1  A    between atoms: N_2  and  C_4 
REMARK    2  A    between atoms: N_2  and  C_16 
REMARK    3  A    between atoms: C_4  and  C_5 
REMARK       I    between atoms: C_5  and  N_6 
REMARK    4  A    between atoms: N_6  and  C_7 
REMARK    5  A    between atoms: C_16  and  C_17 
REMARK    6  A    between atoms: C_21  and  C_22 
ROOT
HETATM    1  C   UNL     1      42.841 -12.285   5.646  1.00  0.00     0.270 C 
HETATM    2  N   UNL     1      42.569 -13.309   6.703  1.00  0.00    -0.061 N 
HETATM    3  H   UNL     1      42.385 -12.779   7.574  1.00  0.00     0.280 HD
ENDROOT
BRANCH   2   4
HETATM    4  C   UNL     1      41.359 -14.186   6.409  1.00  0.00     0.337 C 
BRANCH   4   5
HETATM    5  C   UNL     1      40.193 -13.456   5.740  1.00  0.00     0.248 C 
HETATM    6  N   UNL     1      39.913 -13.577   4.414  1.00  0.00    -0.326 N 
HETATM    7  H   UNL     1      39.049 -13.088   4.186  1.00  0.00     0.169 HD
HETATM    8  O   UNL     1      39.443 -12.744   6.418  1.00  0.00    -0.271 OA
BRANCH   6   9
HETATM    9  C   UNL     1      40.547 -14.210   3.327  1.00  0.00     0.040 A 
HETATM   10  C   UNL     1      41.886 -14.070   2.970  1.00  0.00     0.072 A 
HETATM   11  C   UNL     1      42.390 -14.756   1.859  1.00  0.00     0.121 A 
HETATM   12  F   UNL     1      43.682 -14.604   1.542  1.00  0.00    -0.206 F 
HETATM   13  C   UNL     1      41.589 -15.576   1.083  1.00  0.00     0.084 A 
HETATM   14  C   UNL     1      40.256 -15.701   1.428  1.00  0.00     0.121 A 
HETATM   15  F   UNL     1      39.452 -16.480   0.695  1.00  0.00    -0.206 F 
HETATM   16  C   UNL     1      39.732 -15.028   2.530  1.00  0.00     0.072 A 
ENDBRANCH   6   9
ENDBRANCH   4   5
ENDBRANCH   2   4
BRANCH   2  17
HETATM   17  C   UNL     1      43.821 -14.092   7.080  1.00  0.00     0.295 C 
BRANCH  17  18
HETATM   18  C   UNL     1      43.695 -15.512   6.616  1.00  0.00     0.082 A 
HETATM   19  N   UNL     1      43.553 -16.490   7.526  1.00  0.00    -0.177 NA
HETATM   20  N   UNL     1      43.498 -17.613   6.773  1.00  0.00    -0.277 N 
HETATM   21  H   UNL     1      43.404 -18.511   7.237  1.00  0.00     0.189 HD
HETATM   22  C   UNL     1      43.622 -17.386   5.423  1.00  0.00     0.062 A 
HETATM   23  C   UNL     1      43.742 -16.016   5.302  1.00  0.00     0.062 A 
BRANCH  22  24
HETATM   24  C   UNL     1      43.648 -18.449   4.417  1.00  0.00    -0.008 A 
HETATM   25  C   UNL     1      43.338 -18.194   3.074  1.00  0.00     0.014 A 
HETATM   26  C   UNL     1      43.358 -19.224   2.129  1.00  0.00     0.001 A 
HETATM   27  C   UNL     1      43.691 -20.521   2.514  1.00  0.00     0.000 A 
HETATM   28  C   UNL     1      44.008 -20.789   3.843  1.00  0.00     0.001 A 
HETATM   29  C   UNL     1      43.988 -19.760   4.787  1.00  0.00     0.014 A 
ENDBRANCH  22  24
ENDBRANCH  17  18
ENDBRANCH   2  17
TORSDOF 6
ENDMDL
MODEL 3
REMARK VINA RESULT:      -8.2      4.071      5.744
REMARK  6 active torsions:
REMARK  status: ('A' for Active; 'I' for Inactive)
REMARK    1  A    between atoms: N_2  and  C_4 
REMARK    2  A    between atoms: N_2  and  C_16 
REMARK    3  A    between atoms: C_4  and  C_5 
REMARK       I    between atoms: C_5  and  N_6 
REMARK    4  A    between atoms: N_6  and  C_7 
REMARK    5  A    between atoms: C_16  and  C_17 
REMARK    6  A    between atoms: C_21  and  C_22 
ROOT
HETATM    1  C   UNL     1      40.745 -12.149   4.720  1.00  0.00     0.270 C 
HETATM    2  N   UNL     1      40.993 -13.236   3.721  1.00  0.00    -0.061 N 
HETATM    3  H   UNL     1      40.973 -14.124   4.254  1.00  0.00     0.280 HD
ENDROOT
BRANCH   2   4
HETATM    4  C   UNL     1      39.940 -13.310   2.623  1.00  0.00     0.337 C 
BRANCH   4   5
HETATM    5  C   UNL     1      39.733 -14.707   2.034  1.00  0.00     0.248 C 
HETATM    6  N   UNL     1      39.819 -14.963   0.701  1.00  0.00    -0.326 N 
HETATM    7  H   UNL     1      39.741 -15.964   0.524  1.00  0.00     0.169 HD
HETATM    8  O   UNL     1      39.504 -15.663   2.785  1.00  0.00    -0.271 OA
BRANCH   6   9
HETATM    9  C   UNL     1      39.982 -14.164  -0.447  1.00  0.00     0.040 A 
HETATM   10  C   UNL     1      40.804 -13.044  -0.552  1.00  0.00     0.072 A 
HETATM   11  C   UNL     1      40.871 -12.335  -1.756  1.00  0.00     0.121 A 
HETATM   12  F   UNL     1      41.672 -11.264  -1.827  1.00  0.00    -0.206 F 
HETATM   13  C   UNL     1      40.130 -12.707  -2.865  1.00  0.00     0.084 A 
HETATM   14  C   UNL     1      39.302 -13.808  -2.755  1.00  0.00     0.121 A 
HETATM   15  F   UNL     1      38.567 -14.191  -3.806  1.00  0.00    -0.206 F 
HETATM   16  C   UNL     1      39.219 -14.531  -1.566  1.00  0.00     0.072 A 
ENDBRANCH   6   9
ENDBRANCH   4   5
ENDBRANCH   2   4
BRANCH   2  17
HETATM   17  C   UNL     1      42.426 -13.222   3.201  1.00  0.00     0.295 C 
BRANCH  17  18
HETATM   18  C   UNL     1      42.856 -14.615   2.851  1.00  0.00     0.082 A 
HETATM   19  N   UNL     1      43.202 -14.897   1.584  1.00  0.00    -0.177 NA
HETATM   20  N   UNL     1      43.499 -16.216   1.627  1.00  0.00    -0.277 N 
HETATM   21  H   UNL     1      43.782 -16.683   0.770  1.00  0.00     0.189 HD
HETATM   22  C   UNL     1      43.334 -16.785   2.866  1.00  0.00     0.062 A 
HETATM   23  C   UNL     1      42.922 -15.750   3.682  1.00  0.00     0.062 A 
BRANCH  22  24
HETATM   24  C   UNL     1      43.540 -18.208   3.144  1.00  0.00    -0.008 A 
HETATM   25  C   UNL     1      44.028 -18.649   4.382  1.00  0.00     0.014 A 
HETATM   26  C   UNL     1      44.228 -20.011   4.625  1.00  0.00     0.001 A 
HETATM   27  C   UNL     1      43.942 -20.949   3.636  1.00  0.00     0.000 A 
HETATM   28  C   UNL     1      43.451 -20.526   2.403  1.00  0.00     0.001 A 
HETATM   29  C   UNL     1      43.251 -19.165   2.160  1.00  0.00     0.014 A 
ENDBRANCH  22  24
ENDBRANCH  17  18
ENDBRANCH   2  17
TORSDOF 6
ENDMDL
MODEL 4
REMARK VINA RESULT:      -8.2      2.795      4.297
REMARK  6 active torsions:
REMARK  status: ('A' for Active; 'I' for Inactive)
REMARK    1  A    between atoms: N_2  and  C_4 
REMARK    2  A    between atoms: N_2  and  C_16 
REMARK    3  A    between atoms: C_4  and  C_5 
REMARK       I    between atoms: C_5  and  N_6 
REMARK    4  A    between atoms: N_6  and  C_7 
REMARK    5  A    between atoms: C_16  and  C_17 
REMARK    6  A    between atoms: C_21  and  C_22 
ROOT
HETATM    1  C   UNL     1      42.723 -10.880   7.099  1.00  0.00     0.270 C 
HETATM    2  N   UNL     1      42.544 -12.338   6.807  1.00  0.00    -0.061 N 
HETATM    3  H   UNL     1      41.990 -12.720   7.595  1.00  0.00     0.280 HD
ENDROOT
BRANCH   2   4
HETATM    4  C   UNL     1      41.794 -12.615   5.511  1.00  0.00     0.337 C 
BRANCH   4   5
HETATM    5  C   UNL     1      40.361 -13.117   5.701  1.00  0.00     0.248 C 
HETATM    6  N   UNL     1      39.782 -14.020   4.864  1.00  0.00    -0.326 N 
HETATM    7  H   UNL     1      38.864 -14.292   5.214  1.00  0.00     0.169 HD
HETATM    8  O   UNL     1      39.693 -12.722   6.664  1.00  0.00    -0.271 OA
BRANCH   6   9
HETATM    9  C   UNL     1      40.168 -14.633   3.657  1.00  0.00     0.040 A 
HETATM   10  C   UNL     1      40.898 -15.813   3.537  1.00  0.00     0.072 A 
HETATM   11  C   UNL     1      41.219 -16.313   2.270  1.00  0.00     0.121 A 
HETATM   12  F   UNL     1      41.919 -17.451   2.188  1.00  0.00    -0.206 F 
HETATM   13  C   UNL     1      40.838 -15.661   1.110  1.00  0.00     0.084 A 
HETATM   14  C   UNL     1      40.128 -14.481   1.230  1.00  0.00     0.121 A 
HETATM   15  F   UNL     1      39.750 -13.821   0.128  1.00  0.00    -0.206 F 
HETATM   16  C   UNL     1      39.796 -13.963   2.481  1.00  0.00     0.072 A 
ENDBRANCH   6   9
ENDBRANCH   4   5
ENDBRANCH   2   4
BRANCH   2  17
HETATM   17  C   UNL     1      43.848 -13.115   6.944  1.00  0.00     0.295 C 
BRANCH  17  18
HETATM   18  C   UNL     1      43.578 -14.586   6.847  1.00  0.00     0.082 A 
HETATM   19  N   UNL     1      42.880 -15.192   7.822  1.00  0.00    -0.177 NA
HETATM   20  N   UNL     1      42.853 -16.487   7.430  1.00  0.00    -0.277 N 
HETATM   21  H   UNL     1      42.384 -17.167   8.020  1.00  0.00     0.189 HD
HETATM   22  C   UNL     1      43.525 -16.729   6.257  1.00  0.00     0.062 A 
HETATM   23  C   UNL     1      43.998 -15.495   5.856  1.00  0.00     0.062 A 
BRANCH  22  24
HETATM   24  C   UNL     1      43.679 -18.058   5.665  1.00  0.00    -0.008 A 
HETATM   25  C   UNL     1      43.463 -19.224   6.414  1.00  0.00     0.014 A 
HETATM   26  C   UNL     1      43.626 -20.485   5.835  1.00  0.00     0.001 A 
HETATM   27  C   UNL     1      44.004 -20.599   4.499  1.00  0.00     0.000 A 
HETATM   28  C   UNL     1      44.216 -19.451   3.740  1.00  0.00     0.001 A 
HETATM   29  C   UNL     1      44.054 -18.190   4.319  1.00  0.00     0.014 A 
ENDBRANCH  22  24
ENDBRANCH  17  18
ENDBRANCH   2  17
TORSDOF 6
ENDMDL
MODEL 5
REMARK VINA RESULT:      -8.0      1.143      2.219
REMARK  6 active torsions:
REMARK  status: ('A' for Active; 'I' for Inactive)
REMARK    1  A    between atoms: N_2  and  C_4 
REMARK    2  A    between atoms: N_2  and  C_16 
REMARK    3  A    between atoms: C_4  and  C_5 
REMARK       I    between atoms: C_5  and  N_6 
REMARK    4  A    between atoms: N_6  and  C_7 
REMARK    5  A    between atoms: C_16  and  C_17 
REMARK    6  A    between atoms: C_21  and  C_22 
ROOT
HETATM    1  C   UNL     1      40.461 -12.145   0.504  1.00  0.00     0.270 C 
HETATM    2  N   UNL     1      41.104 -13.001   1.551  1.00  0.00    -0.061 N 
HETATM    3  H   UNL     1      42.069 -13.180   1.220  1.00  0.00     0.280 HD
ENDROOT
BRANCH   2   4
HETATM    4  C   UNL     1      41.179 -12.340   2.921  1.00  0.00     0.337 C 
BRANCH   4   5
HETATM    5  C   UNL     1      42.600 -12.130   3.447  1.00  0.00     0.248 C 
HETATM    6  N   UNL     1      43.144 -12.906   4.424  1.00  0.00    -0.326 N 
HETATM    7  H   UNL     1      44.124 -12.664   4.566  1.00  0.00     0.169 HD
HETATM    8  O   UNL     1      43.312 -11.243   2.961  1.00  0.00    -0.271 OA
BRANCH   6   9
HETATM    9  C   UNL     1      42.654 -13.932   5.254  1.00  0.00     0.040 A 
HETATM   10  C   UNL     1      41.316 -14.168   5.557  1.00  0.00     0.072 A 
HETATM   11  C   UNL     1      40.964 -15.225   6.403  1.00  0.00     0.121 A 
HETATM   12  F   UNL     1      39.669 -15.428   6.673  1.00  0.00    -0.206 F 
HETATM   13  C   UNL     1      41.917 -16.055   6.968  1.00  0.00     0.084 A 
HETATM   14  C   UNL     1      43.247 -15.811   6.681  1.00  0.00     0.121 A 
HETATM   15  F   UNL     1      44.194 -16.590   7.217  1.00  0.00    -0.206 F 
HETATM   16  C   UNL     1      43.621 -14.763   5.841  1.00  0.00     0.072 A 
ENDBRANCH   6   9
ENDBRANCH   4   5
ENDBRANCH   2   4
BRANCH   2  17
HETATM   17  C   UNL     1      40.522 -14.410   1.577  1.00  0.00     0.295 C 
BRANCH  17  18
HETATM   18  C   UNL     1      41.601 -15.402   1.887  1.00  0.00     0.082 A 
HETATM   19  N   UNL     1      42.847 -15.181   1.434  1.00  0.00    -0.177 NA
HETATM   20  N   UNL     1      43.534 -16.265   1.866  1.00  0.00    -0.277 N 
HETATM   21  H   UNL     1      44.520 -16.344   1.635  1.00  0.00     0.189 HD
HETATM   22  C   UNL     1      42.767 -17.173   2.554  1.00  0.00     0.062 A 
HETATM   23  C   UNL     1      41.502 -16.621   2.585  1.00  0.00     0.062 A 
BRANCH  22  24
HETATM   24  C   UNL     1      43.276 -18.446   3.068  1.00  0.00    -0.008 A 
HETATM   25  C   UNL     1      43.264 -19.609   2.287  1.00  0.00     0.014 A 
HETATM   26  C   UNL     1      43.745 -20.818   2.799  1.00  0.00     0.001 A 
HETATM   27  C   UNL     1      44.247 -20.878   4.097  1.00  0.00     0.000 A 
HETATM   28  C   UNL     1      44.272 -19.729   4.883  1.00  0.00     0.001 A 
HETATM   29  C   UNL     1      43.791 -18.522   4.372  1.00  0.00     0.014 A 
ENDBRANCH  22  24
ENDBRANCH  17  18
ENDBRANCH   2  17
TORSDOF 6
ENDMDL
MODEL 6
REMARK VINA RESULT:      -7.9      4.168      4.964
REMARK  6 active torsions:
REMARK  status: ('A' for Active; 'I' for Inactive)
REMARK    1  A    between atoms: N_2  and  C_4 
REMARK    2  A    between atoms: N_2  and  C_16 
REMARK    3  A    between atoms: C_4  and  C_5 
REMARK       I    between atoms: C_5  and  N_6 
REMARK    4  A    between atoms: N_6  and  C_7 
REMARK    5  A    between atoms: C_16  and  C_17 
REMARK    6  A    between atoms: C_21  and  C_22 
ROOT
HETATM    1  C   UNL     1      43.160 -10.987   5.012  1.00  0.00     0.270 C 
HETATM    2  N   UNL     1      43.548 -12.262   5.696  1.00  0.00    -0.061 N 
HETATM    3  H   UNL     1      44.242 -12.718   5.076  1.00  0.00     0.280 HD
ENDROOT
BRANCH   2   4
HETATM    4  C   UNL     1      44.186 -12.054   7.063  1.00  0.00     0.337 C 
BRANCH   4   5
HETATM    5  C   UNL     1      45.477 -11.233   7.043  1.00  0.00     0.248 C 
HETATM    6  N   UNL     1      45.708 -10.206   7.905  1.00  0.00    -0.326 N 
HETATM    7  H   UNL     1      46.656  -9.850   7.790  1.00  0.00     0.169 HD
HETATM    8  O   UNL     1      46.373 -11.514   6.238  1.00  0.00    -0.271 OA
BRANCH   6   9
HETATM    9  C   UNL     1      44.938  -9.549   8.885  1.00  0.00     0.040 A 
HETATM   10  C   UNL     1      44.644 -10.039  10.155  1.00  0.00     0.072 A 
HETATM   11  C   UNL     1      43.861  -9.282  11.034  1.00  0.00     0.121 A 
HETATM   12  F   UNL     1      43.598  -9.778  12.249  1.00  0.00    -0.206 F 
HETATM   13  C   UNL     1      43.350  -8.046  10.676  1.00  0.00     0.084 A 
HETATM   14  C   UNL     1      43.628  -7.569   9.409  1.00  0.00     0.121 A 
HETATM   15  F   UNL     1      43.143  -6.380   9.029  1.00  0.00    -0.206 F 
HETATM   16  C   UNL     1      44.406  -8.304   8.516  1.00  0.00     0.072 A 
ENDBRANCH   6   9
ENDBRANCH   4   5
ENDBRANCH   2   4
BRANCH   2  17
HETATM   17  C   UNL     1      42.415 -13.282   5.692  1.00  0.00     0.295 C 
BRANCH  17  18
HETATM   18  C   UNL     1      42.769 -14.434   4.801  1.00  0.00     0.082 A 
HETATM   19  N   UNL     1      42.926 -14.221   3.483  1.00  0.00    -0.177 NA
HETATM   20  N   UNL     1      43.205 -15.453   2.999  1.00  0.00    -0.277 N 
HETATM   21  H   UNL     1      43.356 -15.565   2.000  1.00  0.00     0.189 HD
HETATM   22  C   UNL     1      43.209 -16.441   3.953  1.00  0.00     0.062 A 
HETATM   23  C   UNL     1      42.934 -15.791   5.140  1.00  0.00     0.062 A 
BRANCH  22  24
HETATM   24  C   UNL     1      43.429 -17.858   3.659  1.00  0.00    -0.008 A 
HETATM   25  C   UNL     1      43.138 -18.399   2.399  1.00  0.00     0.014 A 
HETATM   26  C   UNL     1      43.346 -19.757   2.140  1.00  0.00     0.001 A 
HETATM   27  C   UNL     1      43.849 -20.591   3.136  1.00  0.00     0.000 A 
HETATM   28  C   UNL     1      44.149 -20.067   4.391  1.00  0.00     0.001 A 
HETATM   29  C   UNL     1      43.942 -18.710   4.650  1.00  0.00     0.014 A 
ENDBRANCH  22  24
ENDBRANCH  17  18
ENDBRANCH   2  17
TORSDOF 6
ENDMDL
MODEL 7
REMARK VINA RESULT:      -7.9      2.635      4.253
REMARK  6 active torsions:
REMARK  status: ('A' for Active; 'I' for Inactive)
REMARK    1  A    between atoms: N_2  and  C_4 
REMARK    2  A    between atoms: N_2  and  C_16 
REMARK    3  A    between atoms: C_4  and  C_5 
REMARK       I    between atoms: C_5  and  N_6 
REMARK    4  A    between atoms: N_6  and  C_7 
REMARK    5  A    between atoms: C_16  and  C_17 
REMARK    6  A    between atoms: C_21  and  C_22 
ROOT
HETATM    1  C   UNL     1      40.155 -12.915   5.788  1.00  0.00     0.270 C 
HETATM    2  N   UNL     1      41.562 -12.991   5.282  1.00  0.00    -0.061 N 
HETATM    3  H   UNL     1      41.586 -13.792   4.625  1.00  0.00     0.280 HD
ENDROOT
BRANCH   2   4
HETATM    4  C   UNL     1      42.012 -11.743   4.534  1.00  0.00     0.337 C 
BRANCH   4   5
HETATM    5  C   UNL     1      43.198 -11.959   3.592  1.00  0.00     0.248 C 
HETATM    6  N   UNL     1      43.090 -12.646   2.422  1.00  0.00    -0.326 N 
HETATM    7  H   UNL     1      43.965 -12.599   1.900  1.00  0.00     0.169 HD
HETATM    8  O   UNL     1      44.302 -11.476   3.870  1.00  0.00    -0.271 OA
BRANCH   6   9
HETATM    9  C   UNL     1      42.064 -13.386   1.804  1.00  0.00     0.040 A 
HETATM   10  C   UNL     1      41.817 -14.745   1.982  1.00  0.00     0.072 A 
HETATM   11  C   UNL     1      40.761 -15.360   1.301  1.00  0.00     0.121 A 
HETATM   12  F   UNL     1      40.546 -16.667   1.495  1.00  0.00    -0.206 F 
HETATM   13  C   UNL     1      39.943 -14.656   0.434  1.00  0.00     0.084 A 
HETATM   14  C   UNL     1      40.199 -13.311   0.245  1.00  0.00     0.121 A 
HETATM   15  F   UNL     1      39.432 -12.602  -0.593  1.00  0.00    -0.206 F 
HETATM   16  C   UNL     1      41.245 -12.676   0.912  1.00  0.00     0.072 A 
ENDBRANCH   6   9
ENDBRANCH   4   5
ENDBRANCH   2   4
BRANCH   2  17
HETATM   17  C   UNL     1      42.537 -13.448   6.361  1.00  0.00     0.295 C 
BRANCH  17  18
HETATM   18  C   UNL     1      43.101 -14.790   6.004  1.00  0.00     0.082 A 
HETATM   19  N   UNL     1      44.239 -15.202   6.589  1.00  0.00    -0.177 NA
HETATM   20  N   UNL     1      44.461 -16.411   6.023  1.00  0.00    -0.277 N 
HETATM   21  H   UNL     1      45.289 -16.934   6.295  1.00  0.00     0.189 HD
HETATM   22  C   UNL     1      43.522 -16.772   5.088  1.00  0.00     0.062 A 
HETATM   23  C   UNL     1      42.619 -15.727   5.069  1.00  0.00     0.062 A 
BRANCH  22  24
HETATM   24  C   UNL     1      43.583 -18.007   4.306  1.00  0.00    -0.008 A 
HETATM   25  C   UNL     1      43.999 -19.218   4.879  1.00  0.00     0.014 A 
HETATM   26  C   UNL     1      44.061 -20.386   4.113  1.00  0.00     0.001 A 
HETATM   27  C   UNL     1      43.705 -20.360   2.767  1.00  0.00     0.000 A 
HETATM   28  C   UNL     1      43.283 -19.167   2.185  1.00  0.00     0.001 A 
HETATM   29  C   UNL     1      43.222 -18.000   2.950  1.00  0.00     0.014 A 
ENDBRANCH  22  24
ENDBRANCH  17  18
ENDBRANCH   2  17
TORSDOF 6
ENDMDL
MODEL 8
REMARK VINA RESULT:      -7.8      2.775      4.223
REMARK  6 active torsions:
REMARK  status: ('A' for Active; 'I' for Inactive)
REMARK    1  A    between atoms: N_2  and  C_4 
REMARK    2  A    between atoms: N_2  and  C_16 
REMARK    3  A    between atoms: C_4  and  C_5 
REMARK       I    between atoms: C_5  and  N_6 
REMARK    4  A    between atoms: N_6  and  C_7 
REMARK    5  A    between atoms: C_16  and  C_17 
REMARK    6  A    between atoms: C_21  and  C_22 
ROOT
HETATM    1  C   UNL     1      40.141 -11.677   5.923  1.00  0.00     0.270 C 
HETATM    2  N   UNL     1      40.920 -11.823   4.653  1.00  0.00    -0.061 N 
HETATM    3  H   UNL     1      40.594 -12.705   4.218  1.00  0.00     0.280 HD
ENDROOT
BRANCH   2   4
HETATM    4  C   UNL     1      40.697 -10.687   3.664  1.00  0.00     0.337 C 
BRANCH   4   5
HETATM    5  C   UNL     1      39.283 -10.616   3.086  1.00  0.00     0.248 C 
HETATM    6  N   UNL     1      38.760 -11.597   2.300  1.00  0.00    -0.326 N 
HETATM    7  H   UNL     1      37.780 -11.404   2.095  1.00  0.00     0.169 HD
HETATM    8  O   UNL     1      38.557  -9.651   3.352  1.00  0.00    -0.271 OA
BRANCH   6   9
HETATM    9  C   UNL     1      39.270 -12.777   1.727  1.00  0.00     0.040 A 
HETATM   10  C   UNL     1      39.641 -12.943   0.395  1.00  0.00     0.072 A 
HETATM   11  C   UNL     1      40.133 -14.177  -0.046  1.00  0.00     0.121 A 
HETATM   12  F   UNL     1      40.483 -14.305  -1.332  1.00  0.00    -0.206 F 
HETATM   13  C   UNL     1      40.258 -15.260   0.806  1.00  0.00     0.084 A 
HETATM   14  C   UNL     1      39.875 -15.099   2.124  1.00  0.00     0.121 A 
HETATM   15  F   UNL     1      39.976 -16.129   2.974  1.00  0.00    -0.206 F 
HETATM   16  C   UNL     1      39.382 -13.880   2.588  1.00  0.00     0.072 A 
ENDBRANCH   6   9
ENDBRANCH   4   5
ENDBRANCH   2   4
BRANCH   2  17
HETATM   17  C   UNL     1      42.389 -12.135   4.914  1.00  0.00     0.295 C 
BRANCH  17  18
HETATM   18  C   UNL     1      42.784 -13.382   4.182  1.00  0.00     0.082 A 
HETATM   19  N   UNL     1      43.107 -13.305   2.880  1.00  0.00    -0.177 NA
HETATM   20  N   UNL     1      43.376 -14.589   2.548  1.00  0.00    -0.277 N 
HETATM   21  H   UNL     1      43.637 -14.804   1.590  1.00  0.00     0.189 HD
HETATM   22  C   UNL     1      43.216 -15.479   3.583  1.00  0.00     0.062 A 
HETATM   23  C   UNL     1      42.837 -14.705   4.662  1.00  0.00     0.062 A 
BRANCH  22  24
HETATM   24  C   UNL     1      43.395 -16.925   3.450  1.00  0.00    -0.008 A 
HETATM   25  C   UNL     1      44.001 -17.685   4.460  1.00  0.00     0.014 A 
HETATM   26  C   UNL     1      44.173 -19.064   4.310  1.00  0.00     0.001 A 
HETATM   27  C   UNL     1      43.739 -19.702   3.151  1.00  0.00     0.000 A 
HETATM   28  C   UNL     1      43.128 -18.962   2.141  1.00  0.00     0.001 A 
HETATM   29  C   UNL     1      42.957 -17.584   2.290  1.00  0.00     0.014 A 
ENDBRANCH  22  24
ENDBRANCH  17  18
ENDBRANCH   2  17
TORSDOF 6
ENDMDL
MODEL 9
REMARK VINA RESULT:      -7.8      3.179      7.076
REMARK  6 active torsions:
REMARK  status: ('A' for Active; 'I' for Inactive)
REMARK    1  A    between atoms: N_2  and  C_4 
REMARK    2  A    between atoms: N_2  and  C_16 
REMARK    3  A    between atoms: C_4  and  C_5 
REMARK       I    between atoms: C_5  and  N_6 
REMARK    4  A    between atoms: N_6  and  C_7 
REMARK    5  A    between atoms: C_16  and  C_17 
REMARK    6  A    between atoms: C_21  and  C_22 
ROOT
HETATM    1  C   UNL     1      40.337 -16.342   5.618  1.00  0.00     0.270 C 
HETATM    2  N   UNL     1      41.268 -15.460   4.846  1.00  0.00    -0.061 N 
HETATM    3  H   UNL     1      42.212 -15.625   5.241  1.00  0.00     0.280 HD
ENDROOT
BRANCH   2   4
HETATM    4  C   UNL     1      41.309 -15.770   3.355  1.00  0.00     0.337 C 
BRANCH   4   5
HETATM    5  C   UNL     1      42.668 -15.530   2.694  1.00  0.00     0.248 C 
HETATM    6  N   UNL     1      43.588 -16.518   2.523  1.00  0.00    -0.326 N 
HETATM    7  H   UNL     1      44.382 -16.176   1.984  1.00  0.00     0.169 HD
HETATM    8  O   UNL     1      42.952 -14.405   2.263  1.00  0.00    -0.271 OA
BRANCH   6   9
HETATM    9  C   UNL     1      43.673 -17.865   2.926  1.00  0.00     0.040 A 
HETATM   10  C   UNL     1      43.960 -18.316   4.211  1.00  0.00     0.072 A 
HETATM   11  C   UNL     1      44.018 -19.688   4.476  1.00  0.00     0.121 A 
HETATM   12  F   UNL     1      44.294 -20.091   5.722  1.00  0.00    -0.206 F 
HETATM   13  C   UNL     1      43.805 -20.632   3.485  1.00  0.00     0.084 A 
HETATM   14  C   UNL     1      43.537 -20.184   2.206  1.00  0.00     0.121 A 
HETATM   15  F   UNL     1      43.333 -21.069   1.223  1.00  0.00    -0.206 F 
HETATM   16  C   UNL     1      43.473 -18.821   1.918  1.00  0.00     0.072 A 
ENDBRANCH   6   9
ENDBRANCH   4   5
ENDBRANCH   2   4
BRANCH   2  17
HETATM   17  C   UNL     1      41.056 -13.985   5.163  1.00  0.00     0.295 C 
BRANCH  17  18
HETATM   18  C   UNL     1      42.258 -13.437   5.873  1.00  0.00     0.082 A 
HETATM   19  N   UNL     1      43.284 -14.258   6.156  1.00  0.00    -0.177 NA
HETATM   20  N   UNL     1      44.157 -13.453   6.806  1.00  0.00    -0.277 N 
HETATM   21  H   UNL     1      45.029 -13.849   7.145  1.00  0.00     0.189 HD
HETATM   22  C   UNL     1      43.715 -12.162   6.964  1.00  0.00     0.062 A 
HETATM   23  C   UNL     1      42.478 -12.131   6.351  1.00  0.00     0.062 A 
BRANCH  22  24
HETATM   24  C   UNL     1      44.461 -11.127   7.682  1.00  0.00    -0.008 A 
HETATM   25  C   UNL     1      45.688 -10.644   7.205  1.00  0.00     0.014 A 
HETATM   26  C   UNL     1      46.391  -9.663   7.910  1.00  0.00     0.001 A 
HETATM   27  C   UNL     1      45.876  -9.151   9.099  1.00  0.00     0.000 A 
HETATM   28  C   UNL     1      44.656  -9.616   9.582  1.00  0.00     0.001 A 
HETATM   29  C   UNL     1      43.953 -10.596   8.878  1.00  0.00     0.014 A 
ENDBRANCH  22  24
ENDBRANCH  17  18
ENDBRANCH   2  17
TORSDOF 6
ENDMDL
MODEL 10
REMARK VINA RESULT:      -7.7      4.218      6.206
REMARK  6 active torsions:
REMARK  status: ('A' for Active; 'I' for Inactive)
REMARK    1  A    between atoms: N_2  and  C_4 
REMARK    2  A    between atoms: N_2  and  C_16 
REMARK    3  A    between atoms: C_4  and  C_5 
REMARK       I    between atoms: C_5  and  N_6 
REMARK    4  A    between atoms: N_6  and  C_7 
REMARK    5  A    between atoms: C_16  and  C_17 
REMARK    6  A    between atoms: C_21  and  C_22 
ROOT
HETATM    1  C   UNL     1      42.607 -11.083   3.553  1.00  0.00     0.270 C 
HETATM    2  N   UNL     1      41.977 -12.313   2.978  1.00  0.00    -0.061 N 
HETATM    3  H   UNL     1      41.725 -12.910   3.787  1.00  0.00     0.280 HD
ENDROOT
BRANCH   2   4
HETATM    4  C   UNL     1      40.716 -12.036   2.172  1.00  0.00     0.337 C 
BRANCH   4   5
HETATM    5  C   UNL     1      39.819 -13.256   1.956  1.00  0.00     0.248 C 
HETATM    6  N   UNL     1      39.283 -13.570   0.745  1.00  0.00    -0.326 N 
HETATM    7  H   UNL     1      38.795 -14.464   0.792  1.00  0.00     0.169 HD
HETATM    8  O   UNL     1      39.580 -14.019   2.900  1.00  0.00    -0.271 OA
BRANCH   6   9
HETATM    9  C   UNL     1      39.256 -12.940  -0.513  1.00  0.00     0.040 A 
HETATM   10  C   UNL     1      38.196 -12.202  -1.034  1.00  0.00     0.072 A 
HETATM   11  C   UNL     1      38.300 -11.629  -2.307  1.00  0.00     0.121 A 
HETATM   12  F   UNL     1      37.265 -10.922  -2.779  1.00  0.00    -0.206 F 
HETATM   13  C   UNL     1      39.435 -11.779  -3.084  1.00  0.00     0.084 A 
HETATM   14  C   UNL     1      40.480 -12.525  -2.574  1.00  0.00     0.121 A 
HETATM   15  F   UNL     1      41.590 -12.696  -3.303  1.00  0.00    -0.206 F 
HETATM   16  C   UNL     1      40.401 -13.106  -1.309  1.00  0.00     0.072 A 
ENDBRANCH   6   9
ENDBRANCH   4   5
ENDBRANCH   2   4
BRANCH   2  17
HETATM   17  C   UNL     1      42.992 -13.192   2.254  1.00  0.00     0.295 C 
BRANCH  17  18
HETATM   18  C   UNL     1      43.053 -14.542   2.904  1.00  0.00     0.082 A 
HETATM   19  N   UNL     1      42.951 -14.633   4.240  1.00  0.00    -0.177 NA
HETATM   20  N   UNL     1      43.073 -15.961   4.473  1.00  0.00    -0.277 N 
HETATM   21  H   UNL     1      43.043 -16.295   5.432  1.00  0.00     0.189 HD
HETATM   22  C   UNL     1      43.271 -16.711   3.339  1.00  0.00     0.062 A 
HETATM   23  C   UNL     1      43.251 -15.799   2.302  1.00  0.00     0.062 A 
BRANCH  22  24
HETATM   24  C   UNL     1      43.485 -18.158   3.347  1.00  0.00    -0.008 A 
HETATM   25  C   UNL     1      43.196 -18.948   2.225  1.00  0.00     0.014 A 
HETATM   26  C   UNL     1      43.397 -20.331   2.255  1.00  0.00     0.001 A 
HETATM   27  C   UNL     1      43.893 -20.942   3.404  1.00  0.00     0.000 A 
HETATM   28  C   UNL     1      44.192 -20.171   4.524  1.00  0.00     0.001 A 
HETATM   29  C   UNL     1      43.990 -18.789   4.495  1.00  0.00     0.014 A 
ENDBRANCH  22  24
ENDBRANCH  17  18
ENDBRANCH   2  17
TORSDOF 6
ENDMDL
