MODEL 1
REMARK VINA RESULT:      -9.2      0.000      0.000
REMARK  4 active torsions:
REMARK  status: ('A' for Active; 'I' for Inactive)
REMARK    1  A    between atoms: C_3  and  C_4 
REMARK    2  A    between atoms: C_15  and  C_16 
REMARK       I    between atoms: C_16  and  N_17 
REMARK    3  A    between atoms: N_17  and  C_18 
REMARK    4  A    between atoms: C_18  and  C_19 
ROOT
HETATM    1  C   UNL     1      44.614 -15.901   6.677  1.00  0.00     0.055 C 
HETATM    2  C   UNL     1      43.622 -15.063   5.926  1.00  0.00     0.024 A 
HETATM    3  C   UNL     1      42.946 -15.404   4.813  1.00  0.00     0.096 A 
HETATM    4  O   UNL     1      41.989 -14.623   4.195  1.00  0.00    -0.307 OA
HETATM    5  C   UNL     1      41.744 -13.356   4.659  1.00  0.00     0.106 A 
HETATM    6  C   UNL     1      42.416 -12.851   5.773  1.00  0.00     0.050 A 
HETATM    7  C   UNL     1      43.371 -13.714   6.488  1.00  0.00     0.193 A 
HETATM    8  O   UNL     1      43.940 -13.320   7.500  1.00  0.00    -0.287 OA
HETATM    9  C   UNL     1      40.791 -12.558   4.004  1.00  0.00     0.066 A 
HETATM   10  C   UNL     1      40.565 -11.247   4.468  1.00  0.00     0.020 A 
HETATM   11  C   UNL     1      41.261 -10.743   5.568  1.00  0.00     0.002 A 
HETATM   12  C   UNL     1      42.182 -11.549   6.228  1.00  0.00     0.018 A 
ENDROOT
BRANCH   9  13
HETATM   13  C   UNL     1      39.937 -13.017   2.863  1.00  0.00     0.255 C 
HETATM   14  N   UNL     1      40.554 -13.603   1.784  1.00  0.00    -0.349 N 
HETATM   15  H   UNL     1      41.560 -13.730   1.789  1.00  0.00     0.163 HD
HETATM   16  O   UNL     1      38.720 -12.866   2.922  1.00  0.00    -0.268 OA
BRANCH  14  17
HETATM   17  C   UNL     1      39.802 -14.239   0.717  1.00  0.00     0.114 C 
HETATM   18  C   UNL     1      39.969 -15.760   0.789  1.00  0.00     0.037 C 
BRANCH  17  19
HETATM   19  C   UNL     1      40.204 -13.636  -0.613  1.00  0.00    -0.033 A 
HETATM   20  C   UNL     1      40.895 -12.425  -0.722  1.00  0.00     0.028 A 
HETATM   21  C   UNL     1      41.204 -11.944  -1.987  1.00  0.00     0.116 A 
HETATM   22  N   UNL     1      40.869 -12.569  -3.134  1.00  0.00    -0.273 NA
HETATM   23  C   UNL     1      40.186 -13.727  -3.013  1.00  0.00     0.116 A 
HETATM   24  C   UNL     1      39.833 -14.288  -1.796  1.00  0.00     0.028 A 
ENDBRANCH  17  19
ENDBRANCH  14  17
ENDBRANCH   9  13
BRANCH   3  25
HETATM   25  C   UNL     1      43.160 -16.675   4.106  1.00  0.00    -0.002 A 
HETATM   26  C   UNL     1      42.834 -16.797   2.751  1.00  0.00     0.014 A 
HETATM   27  C   UNL     1      43.057 -18.001   2.082  1.00  0.00     0.001 A 
HETATM   28  C   UNL     1      43.612 -19.087   2.758  1.00  0.00     0.000 A 
HETATM   29  C   UNL     1      43.948 -18.971   4.105  1.00  0.00     0.001 A 
HETATM   30  C   UNL     1      43.727 -17.768   4.776  1.00  0.00     0.014 A 
ENDBRANCH   3  25
TORSDOF 4
ENDMDL
MODEL 2
REMARK VINA RESULT:      -8.8      2.811      6.977
REMARK  4 active torsions:
REMARK  status: ('A' for Active; 'I' for Inactive)
REMARK    1  A    between atoms: C_3  and  C_4 
REMARK    2  A    between atoms: C_15  and  C_16 
REMARK       I    between atoms: C_16  and  N_17 
REMARK    3  A    between atoms: N_17  and  C_18 
REMARK    4  A    between atoms: C_18  and  C_19 
ROOT
HETATM    1  C   UNL     1      41.742  -9.263   4.388  1.00  0.00     0.055 C 
HETATM    2  C   UNL     1      41.596 -10.749   4.252  1.00  0.00     0.024 A 
HETATM    3  C   UNL     1      42.184 -11.698   5.005  1.00  0.00     0.096 A 
HETATM    4  O   UNL     1      41.964 -13.056   4.887  1.00  0.00    -0.307 OA
HETATM    5  C   UNL     1      41.167 -13.529   3.876  1.00  0.00     0.106 A 
HETATM    6  C   UNL     1      40.538 -12.659   2.985  1.00  0.00     0.050 A 
HETATM    7  C   UNL     1      40.698 -11.207   3.164  1.00  0.00     0.193 A 
HETATM    8  O   UNL     1      40.119 -10.414   2.430  1.00  0.00    -0.287 OA
HETATM    9  C   UNL     1      40.976 -14.914   3.744  1.00  0.00     0.066 A 
HETATM   10  C   UNL     1      40.179 -15.394   2.686  1.00  0.00     0.020 A 
HETATM   11  C   UNL     1      39.575 -14.517   1.785  1.00  0.00     0.002 A 
HETATM   12  C   UNL     1      39.746 -13.146   1.939  1.00  0.00     0.018 A 
ENDROOT
BRANCH   9  13
HETATM   13  C   UNL     1      41.514 -15.941   4.692  1.00  0.00     0.255 C 
HETATM   14  N   UNL     1      42.846 -16.270   4.606  1.00  0.00    -0.349 N 
HETATM   15  H   UNL     1      43.435 -15.803   3.926  1.00  0.00     0.163 HD
HETATM   16  O   UNL     1      40.763 -16.453   5.517  1.00  0.00    -0.268 OA
BRANCH  14  17
HETATM   17  C   UNL     1      43.497 -17.114   5.591  1.00  0.00     0.114 C 
HETATM   18  C   UNL     1      44.801 -16.465   6.064  1.00  0.00     0.037 C 
BRANCH  17  19
HETATM   19  C   UNL     1      43.671 -18.508   5.024  1.00  0.00    -0.033 A 
HETATM   20  C   UNL     1      43.792 -19.647   5.827  1.00  0.00     0.028 A 
HETATM   21  C   UNL     1      43.967 -20.880   5.215  1.00  0.00     0.116 A 
HETATM   22  N   UNL     1      44.041 -21.055   3.880  1.00  0.00    -0.273 NA
HETATM   23  C   UNL     1      43.943 -19.945   3.119  1.00  0.00     0.116 A 
HETATM   24  C   UNL     1      43.766 -18.672   3.636  1.00  0.00     0.028 A 
ENDBRANCH  17  19
ENDBRANCH  14  17
ENDBRANCH   9  13
BRANCH   3  25
HETATM   25  C   UNL     1      43.159 -11.388   6.061  1.00  0.00    -0.002 A 
HETATM   26  C   UNL     1      44.503 -11.745   5.914  1.00  0.00     0.014 A 
HETATM   27  C   UNL     1      45.426 -11.433   6.913  1.00  0.00     0.001 A 
HETATM   28  C   UNL     1      45.016 -10.754   8.060  1.00  0.00     0.000 A 
HETATM   29  C   UNL     1      43.681 -10.385   8.210  1.00  0.00     0.001 A 
HETATM   30  C   UNL     1      42.756 -10.697   7.213  1.00  0.00     0.014 A 
ENDBRANCH   3  25
TORSDOF 4
ENDMDL
MODEL 3
REMARK VINA RESULT:      -8.7      1.969      5.107
REMARK  4 active torsions:
REMARK  status: ('A' for Active; 'I' for Inactive)
REMARK    1  A    between atoms: C_3  and  C_4 
REMARK    2  A    between atoms: C_15  and  C_16 
REMARK       I    between atoms: C_16  and  N_17 
REMARK    3  A    between atoms: N_17  and  C_18 
REMARK    4  A    between atoms: C_18  and  C_19 
ROOT
HETATM    1  C   UNL     1      43.510 -13.344   7.201  1.00  0.00     0.055 C 
HETATM    2  C   UNL     1      42.941 -14.009   5.984  1.00  0.00     0.024 A 
HETATM    3  C   UNL     1      41.940 -13.560   5.204  1.00  0.00     0.096 A 
HETATM    4  O   UNL     1      41.495 -14.175   4.049  1.00  0.00    -0.307 OA
HETATM    5  C   UNL     1      42.020 -15.386   3.680  1.00  0.00     0.106 A 
HETATM    6  C   UNL     1      43.027 -15.996   4.430  1.00  0.00     0.050 A 
HETATM    7  C   UNL     1      43.566 -15.301   5.611  1.00  0.00     0.193 A 
HETATM    8  O   UNL     1      44.485 -15.785   6.261  1.00  0.00    -0.287 OA
HETATM    9  C   UNL     1      41.539 -16.019   2.522  1.00  0.00     0.066 A 
HETATM   10  C   UNL     1      42.063 -17.277   2.165  1.00  0.00     0.020 A 
HETATM   11  C   UNL     1      43.052 -17.890   2.935  1.00  0.00     0.002 A 
HETATM   12  C   UNL     1      43.542 -17.245   4.065  1.00  0.00     0.018 A 
ENDROOT
BRANCH   9  13
HETATM   13  C   UNL     1      40.535 -15.424   1.583  1.00  0.00     0.255 C 
HETATM   14  N   UNL     1      40.609 -14.077   1.321  1.00  0.00    -0.349 N 
HETATM   15  H   UNL     1      41.343 -13.523   1.746  1.00  0.00     0.163 HD
HETATM   16  O   UNL     1      39.686 -16.148   1.071  1.00  0.00    -0.268 OA
BRANCH  14  17
HETATM   17  C   UNL     1      39.801 -13.446   0.294  1.00  0.00     0.114 C 
HETATM   18  C   UNL     1      40.663 -13.116  -0.928  1.00  0.00     0.037 C 
BRANCH  17  19
HETATM   19  C   UNL     1      39.081 -12.250   0.882  1.00  0.00    -0.033 A 
HETATM   20  C   UNL     1      39.223 -11.856   2.216  1.00  0.00     0.028 A 
HETATM   21  C   UNL     1      38.507 -10.756   2.668  1.00  0.00     0.116 A 
HETATM   22  N   UNL     1      37.662 -10.039   1.899  1.00  0.00    -0.273 NA
HETATM   23  C   UNL     1      37.520 -10.443   0.620  1.00  0.00     0.116 A 
HETATM   24  C   UNL     1      38.192 -11.526   0.076  1.00  0.00     0.028 A 
ENDBRANCH  17  19
ENDBRANCH  14  17
ENDBRANCH   9  13
BRANCH   3  25
HETATM   25  C   UNL     1      41.180 -12.338   5.505  1.00  0.00    -0.002 A 
HETATM   26  C   UNL     1      41.680 -11.084   5.140  1.00  0.00     0.014 A 
HETATM   27  C   UNL     1      40.945  -9.929   5.413  1.00  0.00     0.001 A 
HETATM   28  C   UNL     1      39.704 -10.019   6.043  1.00  0.00     0.000 A 
HETATM   29  C   UNL     1      39.194 -11.266   6.400  1.00  0.00     0.001 A 
HETATM   30  C   UNL     1      39.927 -12.422   6.128  1.00  0.00     0.014 A 
ENDBRANCH   3  25
TORSDOF 4
ENDMDL
MODEL 4
REMARK VINA RESULT:      -8.7      2.890      7.518
REMARK  4 active torsions:
REMARK  status: ('A' for Active; 'I' for Inactive)
REMARK    1  A    between atoms: C_3  and  C_4 
REMARK    2  A    between atoms: C_15  and  C_16 
REMARK       I    between atoms: C_16  and  N_17 
REMARK    3  A    between atoms: N_17  and  C_18 
REMARK    4  A    between atoms: C_18  and  C_19 
ROOT
HETATM    1  C   UNL     1      40.402 -15.800   1.094  1.00  0.00     0.055 C 
HETATM    2  C   UNL     1      41.193 -15.540   2.341  1.00  0.00     0.024 A 
HETATM    3  C   UNL     1      41.242 -14.397   3.051  1.00  0.00     0.096 A 
HETATM    4  O   UNL     1      41.932 -14.226   4.235  1.00  0.00    -0.307 OA
HETATM    5  C   UNL     1      42.720 -15.241   4.714  1.00  0.00     0.106 A 
HETATM    6  C   UNL     1      42.809 -16.464   4.047  1.00  0.00     0.050 A 
HETATM    7  C   UNL     1      42.004 -16.680   2.833  1.00  0.00     0.193 A 
HETATM    8  O   UNL     1      42.019 -17.759   2.252  1.00  0.00    -0.287 OA
HETATM    9  C   UNL     1      43.444 -15.046   5.902  1.00  0.00     0.066 A 
HETATM   10  C   UNL     1      44.274 -16.083   6.372  1.00  0.00     0.020 A 
HETATM   11  C   UNL     1      44.375 -17.292   5.684  1.00  0.00     0.002 A 
HETATM   12  C   UNL     1      43.634 -17.487   4.523  1.00  0.00     0.018 A 
ENDROOT
BRANCH   9  13
HETATM   13  C   UNL     1      43.357 -13.821   6.759  1.00  0.00     0.255 C 
HETATM   14  N   UNL     1      43.264 -12.599   6.137  1.00  0.00    -0.349 N 
HETATM   15  H   UNL     1      43.235 -12.551   5.126  1.00  0.00     0.163 HD
HETATM   16  O   UNL     1      43.365 -13.938   7.981  1.00  0.00    -0.268 OA
BRANCH  14  17
HETATM   17  C   UNL     1      42.995 -11.377   6.875  1.00  0.00     0.114 C 
HETATM   18  C   UNL     1      42.045 -10.478   6.078  1.00  0.00     0.037 C 
BRANCH  17  19
HETATM   19  C   UNL     1      44.305 -10.715   7.247  1.00  0.00    -0.033 A 
HETATM   20  C   UNL     1      45.552 -11.233   6.882  1.00  0.00     0.028 A 
HETATM   21  C   UNL     1      46.698 -10.563   7.286  1.00  0.00     0.116 A 
HETATM   22  N   UNL     1      46.692  -9.436   8.026  1.00  0.00    -0.273 NA
HETATM   23  C   UNL     1      45.482  -8.958   8.387  1.00  0.00     0.116 A 
HETATM   24  C   UNL     1      44.282  -9.554   8.032  1.00  0.00     0.028 A 
ENDBRANCH  17  19
ENDBRANCH  14  17
ENDBRANCH   9  13
BRANCH   3  25
HETATM   25  C   UNL     1      40.554 -13.167   2.632  1.00  0.00    -0.002 A 
HETATM   26  C   UNL     1      39.249 -12.902   3.061  1.00  0.00     0.014 A 
HETATM   27  C   UNL     1      38.609 -11.724   2.673  1.00  0.00     0.001 A 
HETATM   28  C   UNL     1      39.269 -10.801   1.863  1.00  0.00     0.000 A 
HETATM   29  C   UNL     1      40.573 -11.052   1.441  1.00  0.00     0.001 A 
HETATM   30  C   UNL     1      41.215 -12.229   1.826  1.00  0.00     0.014 A 
ENDBRANCH   3  25
TORSDOF 4
ENDMDL
MODEL 5
REMARK VINA RESULT:      -8.6     15.601     17.713
REMARK  4 active torsions:
REMARK  status: ('A' for Active; 'I' for Inactive)
REMARK    1  A    between atoms: C_3  and  C_4 
REMARK    2  A    between atoms: C_15  and  C_16 
REMARK       I    between atoms: C_16  and  N_17 
REMARK    3  A    between atoms: N_17  and  C_18 
REMARK    4  A    between atoms: C_18  and  C_19 
ROOT
HETATM    1  C   UNL     1      49.234 -29.825  -1.936  1.00  0.00     0.055 C 
HETATM    2  C   UNL     1      48.942 -30.005  -0.477  1.00  0.00     0.024 A 
HETATM    3  C   UNL     1      47.735 -30.002   0.119  1.00  0.00     0.096 A 
HETATM    4  O   UNL     1      47.510 -30.242   1.461  1.00  0.00    -0.307 OA
HETATM    5  C   UNL     1      48.576 -30.407   2.308  1.00  0.00     0.106 A 
HETATM    6  C   UNL     1      49.888 -30.377   1.834  1.00  0.00     0.050 A 
HETATM    7  C   UNL     1      50.127 -30.211   0.392  1.00  0.00     0.193 A 
HETATM    8  O   UNL     1      51.265 -30.232  -0.065  1.00  0.00    -0.287 OA
HETATM    9  C   UNL     1      48.337 -30.619   3.677  1.00  0.00     0.066 A 
HETATM   10  C   UNL     1      49.437 -30.759   4.546  1.00  0.00     0.020 A 
HETATM   11  C   UNL     1      50.746 -30.702   4.065  1.00  0.00     0.002 A 
HETATM   12  C   UNL     1      50.973 -30.520   2.706  1.00  0.00     0.018 A 
ENDROOT
BRANCH   9  13
HETATM   13  C   UNL     1      46.980 -30.769   4.290  1.00  0.00     0.255 C 
HETATM   14  N   UNL     1      45.970 -31.288   3.515  1.00  0.00    -0.349 N 
HETATM   15  H   UNL     1      46.166 -31.574   2.563  1.00  0.00     0.163 HD
HETATM   16  O   UNL     1      46.805 -30.435   5.459  1.00  0.00    -0.268 OA
BRANCH  14  17
HETATM   17  C   UNL     1      44.675 -31.638   4.069  1.00  0.00     0.114 C 
HETATM   18  C   UNL     1      44.572 -33.156   4.251  1.00  0.00     0.037 C 
BRANCH  17  19
HETATM   19  C   UNL     1      43.581 -31.044   3.208  1.00  0.00    -0.033 A 
HETATM   20  C   UNL     1      42.271 -31.535   3.194  1.00  0.00     0.028 A 
HETATM   21  C   UNL     1      41.341 -30.935   2.357  1.00  0.00     0.116 A 
HETATM   22  N   UNL     1      41.622 -29.903   1.535  1.00  0.00    -0.273 NA
HETATM   23  C   UNL     1      42.894 -29.452   1.545  1.00  0.00     0.116 A 
HETATM   24  C   UNL     1      43.892 -29.984   2.346  1.00  0.00     0.028 A 
ENDBRANCH  17  19
ENDBRANCH  14  17
ENDBRANCH   9  13
BRANCH   3  25
HETATM   25  C   UNL     1      46.487 -29.727  -0.608  1.00  0.00    -0.002 A 
HETATM   26  C   UNL     1      45.705 -30.778  -1.098  1.00  0.00     0.014 A 
HETATM   27  C   UNL     1      44.513 -30.510  -1.772  1.00  0.00     0.001 A 
HETATM   28  C   UNL     1      44.089 -29.194  -1.953  1.00  0.00     0.000 A 
HETATM   29  C   UNL     1      44.857 -28.142  -1.458  1.00  0.00     0.001 A 
HETATM   30  C   UNL     1      46.050 -28.406  -0.784  1.00  0.00     0.014 A 
ENDBRANCH   3  25
TORSDOF 4
ENDMDL
MODEL 6
REMARK VINA RESULT:      -8.5      2.500      6.257
REMARK  4 active torsions:
REMARK  status: ('A' for Active; 'I' for Inactive)
REMARK    1  A    between atoms: C_3  and  C_4 
REMARK    2  A    between atoms: C_15  and  C_16 
REMARK       I    between atoms: C_16  and  N_17 
REMARK    3  A    between atoms: N_17  and  C_18 
REMARK    4  A    between atoms: C_18  and  C_19 
ROOT
HETATM    1  C   UNL     1      40.023 -14.333  -1.033  1.00  0.00     0.055 C 
HETATM    2  C   UNL     1      39.924 -13.500   0.210  1.00  0.00     0.024 A 
HETATM    3  C   UNL     1      40.557 -13.704   1.380  1.00  0.00     0.096 A 
HETATM    4  O   UNL     1      40.488 -12.868   2.478  1.00  0.00    -0.307 OA
HETATM    5  C   UNL     1      39.647 -11.786   2.454  1.00  0.00     0.106 A 
HETATM    6  C   UNL     1      38.886 -11.487   1.323  1.00  0.00     0.050 A 
HETATM    7  C   UNL     1      39.025 -12.324   0.121  1.00  0.00     0.193 A 
HETATM    8  O   UNL     1      38.410 -12.059  -0.906  1.00  0.00    -0.287 OA
HETATM    9  C   UNL     1      39.560 -10.960   3.587  1.00  0.00     0.066 A 
HETATM   10  C   UNL     1      38.672  -9.866   3.566  1.00  0.00     0.020 A 
HETATM   11  C   UNL     1      37.896  -9.591   2.439  1.00  0.00     0.002 A 
HETATM   12  C   UNL     1      38.009 -10.396   1.312  1.00  0.00     0.018 A 
ENDROOT
BRANCH   9  13
HETATM   13  C   UNL     1      40.394 -11.117   4.820  1.00  0.00     0.255 C 
HETATM   14  N   UNL     1      41.149 -12.258   4.953  1.00  0.00    -0.349 N 
HETATM   15  H   UNL     1      41.142 -12.953   4.215  1.00  0.00     0.163 HD
HETATM   16  O   UNL     1      40.390 -10.230   5.669  1.00  0.00    -0.268 OA
BRANCH  14  17
HETATM   17  C   UNL     1      42.122 -12.419   6.018  1.00  0.00     0.114 C 
HETATM   18  C   UNL     1      43.452 -11.773   5.620  1.00  0.00     0.037 C 
BRANCH  17  19
HETATM   19  C   UNL     1      42.233 -13.885   6.383  1.00  0.00    -0.033 A 
HETATM   20  C   UNL     1      43.160 -14.372   7.309  1.00  0.00     0.028 A 
HETATM   21  C   UNL     1      43.198 -15.735   7.564  1.00  0.00     0.116 A 
HETATM   22  N   UNL     1      42.396 -16.637   6.962  1.00  0.00    -0.273 NA
HETATM   23  C   UNL     1      41.519 -16.156   6.056  1.00  0.00     0.116 A 
HETATM   24  C   UNL     1      41.406 -14.812   5.735  1.00  0.00     0.028 A 
ENDBRANCH  17  19
ENDBRANCH  14  17
ENDBRANCH   9  13
BRANCH   3  25
HETATM   25  C   UNL     1      41.411 -14.875   1.632  1.00  0.00    -0.002 A 
HETATM   26  C   UNL     1      42.794 -14.798   1.440  1.00  0.00     0.014 A 
HETATM   27  C   UNL     1      43.601 -15.908   1.698  1.00  0.00     0.001 A 
HETATM   28  C   UNL     1      43.034 -17.096   2.157  1.00  0.00     0.000 A 
HETATM   29  C   UNL     1      41.657 -17.177   2.361  1.00  0.00     0.001 A 
HETATM   30  C   UNL     1      40.849 -16.069   2.104  1.00  0.00     0.014 A 
ENDBRANCH   3  25
TORSDOF 4
ENDMDL
MODEL 7
REMARK VINA RESULT:      -8.2      2.502      6.378
REMARK  4 active torsions:
REMARK  status: ('A' for Active; 'I' for Inactive)
REMARK    1  A    between atoms: C_3  and  C_4 
REMARK    2  A    between atoms: C_15  and  C_16 
REMARK       I    between atoms: C_16  and  N_17 
REMARK    3  A    between atoms: N_17  and  C_18 
REMARK    4  A    between atoms: C_18  and  C_19 
ROOT
HETATM    1  C   UNL     1      40.144 -14.504  -1.478  1.00  0.00     0.055 C 
HETATM    2  C   UNL     1      39.827 -13.605  -0.321  1.00  0.00     0.024 A 
HETATM    3  C   UNL     1      40.292 -13.703   0.938  1.00  0.00     0.096 A 
HETATM    4  O   UNL     1      40.026 -12.808   1.957  1.00  0.00    -0.307 OA
HETATM    5  C   UNL     1      39.149 -11.777   1.741  1.00  0.00     0.106 A 
HETATM    6  C   UNL     1      38.546 -11.588   0.496  1.00  0.00     0.050 A 
HETATM    7  C   UNL     1      38.897 -12.487  -0.615  1.00  0.00     0.193 A 
HETATM    8  O   UNL     1      38.426 -12.318  -1.734  1.00  0.00    -0.287 OA
HETATM    9  C   UNL     1      38.860 -10.891   2.792  1.00  0.00     0.066 A 
HETATM   10  C   UNL     1      37.935  -9.851   2.572  1.00  0.00     0.020 A 
HETATM   11  C   UNL     1      37.319  -9.687   1.331  1.00  0.00     0.002 A 
HETATM   12  C   UNL     1      37.631 -10.551   0.287  1.00  0.00     0.018 A 
ENDROOT
BRANCH   9  13
HETATM   13  C   UNL     1      39.513 -10.928   4.139  1.00  0.00     0.255 C 
HETATM   14  N   UNL     1      40.787 -11.436   4.230  1.00  0.00    -0.349 N 
HETATM   15  H   UNL     1      41.261 -11.753   3.393  1.00  0.00     0.163 HD
HETATM   16  O   UNL     1      38.904 -10.502   5.117  1.00  0.00    -0.268 OA
BRANCH  14  17
HETATM   17  C   UNL     1      41.566 -11.348   5.451  1.00  0.00     0.114 C 
HETATM   18  C   UNL     1      42.490 -10.128   5.400  1.00  0.00     0.037 C 
BRANCH  17  19
HETATM   19  C   UNL     1      42.288 -12.659   5.684  1.00  0.00    -0.033 A 
HETATM   20  C   UNL     1      41.995 -13.827   4.973  1.00  0.00     0.028 A 
HETATM   21  C   UNL     1      42.698 -14.985   5.271  1.00  0.00     0.116 A 
HETATM   22  N   UNL     1      43.651 -15.065   6.222  1.00  0.00    -0.273 NA
HETATM   23  C   UNL     1      43.910 -13.936   6.914  1.00  0.00     0.116 A 
HETATM   24  C   UNL     1      43.262 -12.731   6.689  1.00  0.00     0.028 A 
ENDBRANCH  17  19
ENDBRANCH  14  17
ENDBRANCH   9  13
BRANCH   3  25
HETATM   25  C   UNL     1      41.153 -14.807   1.387  1.00  0.00    -0.002 A 
HETATM   26  C   UNL     1      40.591 -15.986   1.889  1.00  0.00     0.014 A 
HETATM   27  C   UNL     1      41.414 -17.037   2.297  1.00  0.00     0.001 A 
HETATM   28  C   UNL     1      42.800 -16.922   2.199  1.00  0.00     0.000 A 
HETATM   29  C   UNL     1      43.367 -15.755   1.690  1.00  0.00     0.001 A 
HETATM   30  C   UNL     1      42.547 -14.703   1.281  1.00  0.00     0.014 A 
ENDBRANCH   3  25
TORSDOF 4
ENDMDL
MODEL 8
REMARK VINA RESULT:      -8.1      2.504      5.582
REMARK  4 active torsions:
REMARK  status: ('A' for Active; 'I' for Inactive)
REMARK    1  A    between atoms: C_3  and  C_4 
REMARK    2  A    between atoms: C_15  and  C_16 
REMARK       I    between atoms: C_16  and  N_17 
REMARK    3  A    between atoms: N_17  and  C_18 
REMARK    4  A    between atoms: C_18  and  C_19 
ROOT
HETATM    1  C   UNL     1      42.445 -10.582   5.044  1.00  0.00     0.055 C 
HETATM    2  C   UNL     1      42.035 -11.754   4.204  1.00  0.00     0.024 A 
HETATM    3  C   UNL     1      41.108 -11.772   3.229  1.00  0.00     0.096 A 
HETATM    4  O   UNL     1      40.812 -12.862   2.433  1.00  0.00    -0.307 OA
HETATM    5  C   UNL     1      41.416 -14.067   2.682  1.00  0.00     0.106 A 
HETATM    6  C   UNL     1      42.358 -14.207   3.702  1.00  0.00     0.050 A 
HETATM    7  C   UNL     1      42.741 -13.026   4.493  1.00  0.00     0.193 A 
HETATM    8  O   UNL     1      43.602 -13.102   5.362  1.00  0.00    -0.287 OA
HETATM    9  C   UNL     1      41.085 -15.178   1.887  1.00  0.00     0.066 A 
HETATM   10  C   UNL     1      41.689 -16.419   2.168  1.00  0.00     0.020 A 
HETATM   11  C   UNL     1      42.610 -16.554   3.207  1.00  0.00     0.002 A 
HETATM   12  C   UNL     1      42.953 -15.444   3.970  1.00  0.00     0.018 A 
ENDROOT
BRANCH   9  13
HETATM   13  C   UNL     1      40.168 -15.134   0.705  1.00  0.00     0.255 C 
HETATM   14  N   UNL     1      40.144 -13.990  -0.057  1.00  0.00    -0.349 N 
HETATM   15  H   UNL     1      40.753 -13.216   0.180  1.00  0.00     0.163 HD
HETATM   16  O   UNL     1      39.473 -16.112   0.444  1.00  0.00    -0.268 OA
BRANCH  14  17
HETATM   17  C   UNL     1      39.427 -13.919  -1.318  1.00  0.00     0.114 C 
HETATM   18  C   UNL     1      40.415 -13.933  -2.487  1.00  0.00     0.037 C 
BRANCH  17  19
HETATM   19  C   UNL     1      38.503 -12.719  -1.305  1.00  0.00    -0.033 A 
HETATM   20  C   UNL     1      37.760 -12.318  -2.420  1.00  0.00     0.028 A 
HETATM   21  C   UNL     1      36.954 -11.194  -2.316  1.00  0.00     0.116 A 
HETATM   22  N   UNL     1      36.845 -10.444  -1.201  1.00  0.00    -0.273 NA
HETATM   23  C   UNL     1      37.582 -10.831  -0.139  1.00  0.00     0.116 A 
HETATM   24  C   UNL     1      38.415 -11.939  -0.144  1.00  0.00     0.028 A 
ENDBRANCH  17  19
ENDBRANCH  14  17
ENDBRANCH   9  13
BRANCH   3  25
HETATM   25  C   UNL     1      40.277 -10.606   2.895  1.00  0.00    -0.002 A 
HETATM   26  C   UNL     1      39.046 -10.406   3.531  1.00  0.00     0.014 A 
HETATM   27  C   UNL     1      38.271  -9.288   3.222  1.00  0.00     0.001 A 
HETATM   28  C   UNL     1      38.721  -8.358   2.285  1.00  0.00     0.000 A 
HETATM   29  C   UNL     1      39.950  -8.544   1.656  1.00  0.00     0.001 A 
HETATM   30  C   UNL     1      40.728  -9.661   1.962  1.00  0.00     0.014 A 
ENDBRANCH   3  25
TORSDOF 4
ENDMDL
MODEL 9
REMARK VINA RESULT:      -8.1      3.158      6.630
REMARK  4 active torsions:
REMARK  status: ('A' for Active; 'I' for Inactive)
REMARK    1  A    between atoms: C_3  and  C_4 
REMARK    2  A    between atoms: C_15  and  C_16 
REMARK       I    between atoms: C_16  and  N_17 
REMARK    3  A    between atoms: N_17  and  C_18 
REMARK    4  A    between atoms: C_18  and  C_19 
ROOT
HETATM    1  C   UNL     1      41.589 -16.183   2.571  1.00  0.00     0.055 C 
HETATM    2  C   UNL     1      41.008 -14.875   3.020  1.00  0.00     0.024 A 
HETATM    3  C   UNL     1      41.176 -14.276   4.213  1.00  0.00     0.096 A 
HETATM    4  O   UNL     1      40.676 -13.035   4.557  1.00  0.00    -0.307 OA
HETATM    5  C   UNL     1      39.859 -12.367   3.682  1.00  0.00     0.106 A 
HETATM    6  C   UNL     1      39.553 -12.899   2.429  1.00  0.00     0.050 A 
HETATM    7  C   UNL     1      40.157 -14.179   2.024  1.00  0.00     0.193 A 
HETATM    8  O   UNL     1      39.950 -14.649   0.911  1.00  0.00    -0.287 OA
HETATM    9  C   UNL     1      39.329 -11.120   4.054  1.00  0.00     0.066 A 
HETATM   10  C   UNL     1      38.467 -10.452   3.161  1.00  0.00     0.020 A 
HETATM   11  C   UNL     1      38.147 -11.005   1.921  1.00  0.00     0.002 A 
HETATM   12  C   UNL     1      38.698 -12.226   1.549  1.00  0.00     0.018 A 
ENDROOT
BRANCH   9  13
HETATM   13  C   UNL     1      39.660 -10.400   5.325  1.00  0.00     0.255 C 
HETATM   14  N   UNL     1      40.981 -10.133   5.595  1.00  0.00    -0.349 N 
HETATM   15  H   UNL     1      41.694 -10.405   4.929  1.00  0.00     0.163 HD
HETATM   16  O   UNL     1      38.753 -10.065   6.082  1.00  0.00    -0.268 OA
BRANCH  14  17
HETATM   17  C   UNL     1      41.385  -9.287   6.704  1.00  0.00     0.114 C 
HETATM   18  C   UNL     1      41.699  -7.874   6.203  1.00  0.00     0.037 C 
BRANCH  17  19
HETATM   19  C   UNL     1      42.526  -9.946   7.450  1.00  0.00    -0.033 A 
HETATM   20  C   UNL     1      42.876  -9.605   8.761  1.00  0.00     0.028 A 
HETATM   21  C   UNL     1      43.950 -10.253   9.355  1.00  0.00     0.116 A 
HETATM   22  N   UNL     1      44.697 -11.193   8.742  1.00  0.00    -0.273 NA
HETATM   23  C   UNL     1      44.360 -11.497   7.471  1.00  0.00     0.116 A 
HETATM   24  C   UNL     1      43.305 -10.907   6.793  1.00  0.00     0.028 A 
ENDBRANCH  17  19
ENDBRANCH  14  17
ENDBRANCH   9  13
BRANCH   3  25
HETATM   25  C   UNL     1      41.925 -14.893   5.318  1.00  0.00    -0.002 A 
HETATM   26  C   UNL     1      41.336 -15.888   6.105  1.00  0.00     0.014 A 
HETATM   27  C   UNL     1      42.059 -16.482   7.141  1.00  0.00     0.001 A 
HETATM   28  C   UNL     1      43.374 -16.093   7.392  1.00  0.00     0.000 A 
HETATM   29  C   UNL     1      43.971 -15.110   6.606  1.00  0.00     0.001 A 
HETATM   30  C   UNL     1      43.251 -14.514   5.569  1.00  0.00     0.014 A 
ENDBRANCH   3  25
TORSDOF 4
ENDMDL
MODEL 10
REMARK VINA RESULT:      -8.0      6.376     10.493
REMARK  4 active torsions:
REMARK  status: ('A' for Active; 'I' for Inactive)
REMARK    1  A    between atoms: C_3  and  C_4 
REMARK    2  A    between atoms: C_15  and  C_16 
REMARK       I    between atoms: C_16  and  N_17 
REMARK    3  A    between atoms: N_17  and  C_18 
REMARK    4  A    between atoms: C_18  and  C_19 
ROOT
HETATM    1  C   UNL     1      45.630 -10.174  10.514  1.00  0.00     0.055 C 
HETATM    2  C   UNL     1      44.382 -10.017   9.697  1.00  0.00     0.024 A 
HETATM    3  C   UNL     1      43.198  -9.524  10.105  1.00  0.00     0.096 A 
HETATM    4  O   UNL     1      42.095  -9.334   9.296  1.00  0.00    -0.307 OA
HETATM    5  C   UNL     1      42.130  -9.755   7.991  1.00  0.00     0.106 A 
HETATM    6  C   UNL     1      43.277 -10.337   7.450  1.00  0.00     0.050 A 
HETATM    7  C   UNL     1      44.483 -10.458   8.285  1.00  0.00     0.193 A 
HETATM    8  O   UNL     1      45.523 -10.918   7.826  1.00  0.00    -0.287 OA
HETATM    9  C   UNL     1      40.992  -9.586   7.185  1.00  0.00     0.066 A 
HETATM   10  C   UNL     1      41.026 -10.047   5.854  1.00  0.00     0.020 A 
HETATM   11  C   UNL     1      42.169 -10.651   5.331  1.00  0.00     0.002 A 
HETATM   12  C   UNL     1      43.301 -10.788   6.126  1.00  0.00     0.018 A 
ENDROOT
BRANCH   9  13
HETATM   13  C   UNL     1      39.739  -8.890   7.618  1.00  0.00     0.255 C 
HETATM   14  N   UNL     1      39.842  -7.890   8.556  1.00  0.00    -0.349 N 
HETATM   15  H   UNL     1      40.753  -7.633   8.917  1.00  0.00     0.163 HD
HETATM   16  O   UNL     1      38.664  -9.220   7.125  1.00  0.00    -0.268 OA
BRANCH  14  17
HETATM   17  C   UNL     1      38.717  -7.040   8.903  1.00  0.00     0.114 C 
HETATM   18  C   UNL     1      38.743  -5.762   8.060  1.00  0.00     0.037 C 
BRANCH  17  19
HETATM   19  C   UNL     1      38.714  -6.795  10.397  1.00  0.00    -0.033 A 
HETATM   20  C   UNL     1      38.356  -5.568  10.967  1.00  0.00     0.028 A 
HETATM   21  C   UNL     1      38.401  -5.434  12.348  1.00  0.00     0.116 A 
HETATM   22  N   UNL     1      38.783  -6.417  13.189  1.00  0.00    -0.273 NA
HETATM   23  C   UNL     1      39.144  -7.588  12.624  1.00  0.00     0.116 A 
HETATM   24  C   UNL     1      39.131  -7.819  11.257  1.00  0.00     0.028 A 
ENDBRANCH  17  19
ENDBRANCH  14  17
ENDBRANCH   9  13
BRANCH   3  25
HETATM   25  C   UNL     1      42.935  -9.128  11.497  1.00  0.00    -0.002 A 
HETATM   26  C   UNL     1      43.207  -7.825  11.927  1.00  0.00     0.014 A 
HETATM   27  C   UNL     1      42.939  -7.451  13.245  1.00  0.00     0.001 A 
HETATM   28  C   UNL     1      42.390  -8.371  14.137  1.00  0.00     0.000 A 
HETATM   29  C   UNL     1      42.106  -9.668  13.713  1.00  0.00     0.001 A 
HETATM   30  C   UNL     1      42.374 -10.045  12.397  1.00  0.00     0.014 A 
ENDBRANCH   3  25
TORSDOF 4
ENDMDL
