MODEL 1
REMARK VINA RESULT:      -8.6      0.000      0.000
REMARK  5 active torsions:
REMARK  status: ('A' for Active; 'I' for Inactive)
REMARK    1  A    between atoms: C_3  and  N_4 
REMARK       I    between atoms: N_4  and  C_5 
REMARK    2  A    between atoms: C_9  and  N_10 
REMARK       I    between atoms: N_10  and  C_11 
REMARK    3  A    between atoms: C_11  and  C_12 
REMARK    4  A    between atoms: C_17  and  C_18 
REMARK    5  A    between atoms: C_24  and  C_25 
ROOT
HETATM    1  C   UNL     1      42.799 -11.334   5.953  1.00  0.00     0.148 A 
HETATM    2  N   UNL     1      42.385 -12.598   6.204  1.00  0.00    -0.165 NA
HETATM    3  N   UNL     1      42.614 -13.242   5.042  1.00  0.00    -0.240 N 
HETATM    4  C   UNL     1      43.191 -12.459   4.081  1.00  0.00     0.123 A 
HETATM    5  N   UNL     1      43.536 -12.953   2.874  1.00  0.00    -0.364 N 
HETATM    6  C   UNL     1      43.123 -14.288   2.444  1.00  0.00     0.143 C 
HETATM    7  C   UNL     1      43.058 -15.231   3.659  1.00  0.00     0.068 C 
HETATM    8  C   UNL     1      42.311 -14.651   4.876  1.00  0.00     0.221 C 
HETATM    9  C   UNL     1      43.317 -11.213   4.635  1.00  0.00     0.089 A 
HETATM   10  H   UNL     1      43.809 -12.325   2.118  1.00  0.00     0.162 HD
ENDROOT
BRANCH   1  11
HETATM   11  C   UNL     1      42.701 -10.262   6.959  1.00  0.00     0.276 C 
HETATM   12  N   UNL     1      43.001 -10.716   8.229  1.00  0.00    -0.322 N 
HETATM   13  H   UNL     1      43.235 -11.706   8.260  1.00  0.00     0.169 HD
HETATM   14  O   UNL     1      42.370  -9.123   6.646  1.00  0.00    -0.266 OA
BRANCH  12  15
HETATM   15  C   UNL     1      42.987 -10.000   9.439  1.00  0.00     0.037 A 
HETATM   16  C   UNL     1      41.853  -9.375   9.961  1.00  0.00     0.059 A 
HETATM   17  C   UNL     1      41.879  -8.686  11.193  1.00  0.00     0.042 A 
HETATM   18  C   UNL     1      43.099  -8.564  11.878  1.00  0.00    -0.035 A 
HETATM   19  C   UNL     1      43.310  -7.745  13.121  1.00  0.00     0.050 C 
HETATM   20  C   UNL     1      44.232  -9.217  11.356  1.00  0.00     0.011 A 
HETATM   21  C   UNL     1      44.178  -9.924  10.154  1.00  0.00     0.030 A 
BRANCH  17  22
HETATM   22  N   UNL     1      40.634  -8.137  11.583  1.00  0.00    -0.327 N 
HETATM   23  C   UNL     1      39.736  -8.623  12.513  1.00  0.00     0.218 C 
HETATM   24  C   UNL     1      38.556  -7.701  12.707  1.00  0.00     0.117 C 
HETATM   25  O   UNL     1      39.812  -9.671  13.141  1.00  0.00    -0.274 OA
HETATM   26  H   UNL     1      40.253  -7.453  10.940  1.00  0.00     0.169 HD
ENDBRANCH  17  22
ENDBRANCH  12  15
ENDBRANCH   1  11
BRANCH   8  27
HETATM   27  C   UNL     1      40.813 -14.859   4.833  1.00  0.00     0.409 C 
HETATM   28  F   UNL     1      40.284 -14.959   6.077  1.00  0.00    -0.169 F 
HETATM   29  F   UNL     1      40.146 -13.881   4.193  1.00  0.00    -0.169 F 
HETATM   30  F   UNL     1      40.517 -16.027   4.207  1.00  0.00    -0.169 F 
ENDBRANCH   8  27
BRANCH   6  31
HETATM   31  C   UNL     1      41.890 -14.326   1.601  1.00  0.00     0.075 A 
HETATM   32  O   UNL     1      41.385 -13.118   1.214  1.00  0.00    -0.325 OA
HETATM   33  C   UNL     1      40.265 -13.367   0.488  1.00  0.00     0.142 A 
HETATM   34  C   UNL     1      40.037 -14.719   0.402  1.00  0.00     0.027 A 
HETATM   35  C   UNL     1      41.081 -15.341   1.129  1.00  0.00     0.037 A 
ENDBRANCH   6  31
TORSDOF 5
ENDMDL
MODEL 2
REMARK VINA RESULT:      -8.5      3.059      9.555
REMARK  5 active torsions:
REMARK  status: ('A' for Active; 'I' for Inactive)
REMARK    1  A    between atoms: C_3  and  N_4 
REMARK       I    between atoms: N_4  and  C_5 
REMARK    2  A    between atoms: C_9  and  N_10 
REMARK       I    between atoms: N_10  and  C_11 
REMARK    3  A    between atoms: C_11  and  C_12 
REMARK    4  A    between atoms: C_17  and  C_18 
REMARK    5  A    between atoms: C_24  and  C_25 
ROOT
HETATM    1  C   UNL     1      43.043 -11.548   6.549  1.00  0.00     0.148 A 
HETATM    2  N   UNL     1      42.617 -10.266   6.634  1.00  0.00    -0.165 NA
HETATM    3  N   UNL     1      43.268  -9.788   7.713  1.00  0.00    -0.240 N 
HETATM    4  C   UNL     1      44.117 -10.692   8.291  1.00  0.00     0.123 A 
HETATM    5  N   UNL     1      44.886 -10.367   9.351  1.00  0.00    -0.364 N 
HETATM    6  C   UNL     1      44.706  -9.109  10.075  1.00  0.00     0.143 C 
HETATM    7  C   UNL     1      44.252  -8.008   9.101  1.00  0.00     0.068 C 
HETATM    8  C   UNL     1      43.099  -8.420   8.164  1.00  0.00     0.221 C 
HETATM    9  C   UNL     1      43.989 -11.846   7.567  1.00  0.00     0.089 A 
HETATM   10  H   UNL     1      45.384 -11.091   9.869  1.00  0.00     0.162 HD
ENDROOT
BRANCH   1  11
HETATM   11  C   UNL     1      42.552 -12.471   5.510  1.00  0.00     0.276 C 
HETATM   12  N   UNL     1      43.263 -13.655   5.493  1.00  0.00    -0.322 N 
HETATM   13  H   UNL     1      44.003 -13.693   6.192  1.00  0.00     0.169 HD
HETATM   14  O   UNL     1      41.627 -12.160   4.767  1.00  0.00    -0.266 OA
BRANCH  12  15
HETATM   15  C   UNL     1      43.107 -14.756   4.633  1.00  0.00     0.037 A 
HETATM   16  C   UNL     1      42.412 -14.707   3.423  1.00  0.00     0.059 A 
HETATM   17  C   UNL     1      42.301 -15.831   2.577  1.00  0.00     0.042 A 
HETATM   18  C   UNL     1      42.843 -17.056   3.000  1.00  0.00    -0.035 A 
HETATM   19  C   UNL     1      42.681 -18.364   2.277  1.00  0.00     0.050 C 
HETATM   20  C   UNL     1      43.563 -17.091   4.210  1.00  0.00     0.011 A 
HETATM   21  C   UNL     1      43.692 -15.959   5.016  1.00  0.00     0.030 A 
BRANCH  17  22
HETATM   22  N   UNL     1      41.586 -15.594   1.379  1.00  0.00    -0.327 N 
HETATM   23  C   UNL     1      40.234 -15.361   1.219  1.00  0.00     0.218 C 
HETATM   24  C   UNL     1      39.867 -15.069  -0.216  1.00  0.00     0.117 C 
HETATM   25  O   UNL     1      39.370 -15.381   2.086  1.00  0.00    -0.274 OA
HETATM   26  H   UNL     1      42.074 -15.865   0.533  1.00  0.00     0.169 HD
ENDBRANCH  17  22
ENDBRANCH  12  15
ENDBRANCH   1  11
BRANCH   8  27
HETATM   27  C   UNL     1      41.723  -8.237   8.765  1.00  0.00     0.409 C 
HETATM   28  F   UNL     1      41.266  -9.380   9.331  1.00  0.00    -0.169 F 
HETATM   29  F   UNL     1      41.663  -7.275   9.705  1.00  0.00    -0.169 F 
HETATM   30  F   UNL     1      40.826  -7.914   7.798  1.00  0.00    -0.169 F 
ENDBRANCH   8  27
BRANCH   6  31
HETATM   31  C   UNL     1      43.853  -9.203  11.299  1.00  0.00     0.075 A 
HETATM   32  O   UNL     1      43.260 -10.411  11.531  1.00  0.00    -0.325 OA
HETATM   33  C   UNL     1      42.519 -10.281  12.661  1.00  0.00     0.142 A 
HETATM   34  C   UNL     1      42.622  -9.006  13.161  1.00  0.00     0.027 A 
HETATM   35  C   UNL     1      43.477  -8.304  12.277  1.00  0.00     0.037 A 
ENDBRANCH   6  31
TORSDOF 5
ENDMDL
MODEL 3
REMARK VINA RESULT:      -8.5      6.689      8.845
REMARK  5 active torsions:
REMARK  status: ('A' for Active; 'I' for Inactive)
REMARK    1  A    between atoms: C_3  and  N_4 
REMARK       I    between atoms: N_4  and  C_5 
REMARK    2  A    between atoms: C_9  and  N_10 
REMARK       I    between atoms: N_10  and  C_11 
REMARK    3  A    between atoms: C_11  and  C_12 
REMARK    4  A    between atoms: C_17  and  C_18 
REMARK    5  A    between atoms: C_24  and  C_25 
ROOT
HETATM    1  C   UNL     1      40.919 -14.378   0.998  1.00  0.00     0.148 A 
HETATM    2  N   UNL     1      40.642 -14.800  -0.258  1.00  0.00    -0.165 NA
HETATM    3  N   UNL     1      40.473 -13.654  -0.946  1.00  0.00    -0.240 N 
HETATM    4  C   UNL     1      40.669 -12.526  -0.197  1.00  0.00     0.123 A 
HETATM    5  N   UNL     1      40.590 -11.292  -0.736  1.00  0.00    -0.364 N 
HETATM    6  C   UNL     1      40.082 -11.076  -2.091  1.00  0.00     0.143 C 
HETATM    7  C   UNL     1      40.457 -12.272  -2.985  1.00  0.00     0.068 C 
HETATM    8  C   UNL     1      40.160 -13.651  -2.363  1.00  0.00     0.221 C 
HETATM    9  C   UNL     1      40.951 -12.960   1.070  1.00  0.00     0.089 A 
HETATM   10  H   UNL     1      40.574 -10.467  -0.137  1.00  0.00     0.162 HD
ENDROOT
BRANCH   1  11
HETATM   11  C   UNL     1      41.148 -15.319   2.108  1.00  0.00     0.276 C 
HETATM   12  N   UNL     1      42.269 -16.100   1.901  1.00  0.00    -0.322 N 
HETATM   13  H   UNL     1      42.744 -15.901   1.023  1.00  0.00     0.169 HD
HETATM   14  O   UNL     1      40.389 -15.368   3.071  1.00  0.00    -0.266 OA
BRANCH  12  15
HETATM   15  C   UNL     1      42.787 -17.121   2.718  1.00  0.00     0.037 A 
HETATM   16  C   UNL     1      42.930 -17.013   4.103  1.00  0.00     0.059 A 
HETATM   17  C   UNL     1      43.433 -18.073   4.887  1.00  0.00     0.042 A 
HETATM   18  C   UNL     1      43.872 -19.243   4.248  1.00  0.00    -0.035 A 
HETATM   19  C   UNL     1      44.557 -20.393   4.932  1.00  0.00     0.050 C 
HETATM   20  C   UNL     1      43.702 -19.353   2.854  1.00  0.00     0.011 A 
HETATM   21  C   UNL     1      43.169 -18.306   2.099  1.00  0.00     0.030 A 
BRANCH  17  22
HETATM   22  N   UNL     1      43.484 -17.801   6.276  1.00  0.00    -0.327 N 
HETATM   23  C   UNL     1      44.228 -16.841   6.934  1.00  0.00     0.218 C 
HETATM   24  C   UNL     1      43.942 -16.812   8.417  1.00  0.00     0.117 C 
HETATM   25  O   UNL     1      45.049 -16.074   6.447  1.00  0.00    -0.274 OA
HETATM   26  H   UNL     1      43.127 -18.542   6.866  1.00  0.00     0.169 HD
ENDBRANCH  17  22
ENDBRANCH  12  15
ENDBRANCH   1  11
BRANCH   8  27
HETATM   27  C   UNL     1      38.743 -14.132  -2.583  1.00  0.00     0.409 C 
HETATM   28  F   UNL     1      38.684 -15.479  -2.717  1.00  0.00    -0.169 F 
HETATM   29  F   UNL     1      37.892 -13.791  -1.597  1.00  0.00    -0.169 F 
HETATM   30  F   UNL     1      38.246 -13.621  -3.739  1.00  0.00    -0.169 F 
ENDBRANCH   8  27
BRANCH   6  31
HETATM   31  C   UNL     1      38.636 -10.710  -2.172  1.00  0.00     0.075 A 
HETATM   32  O   UNL     1      38.148 -10.446  -3.420  1.00  0.00    -0.325 OA
HETATM   33  C   UNL     1      36.840 -10.113  -3.275  1.00  0.00     0.142 A 
HETATM   34  C   UNL     1      36.476 -10.154  -1.951  1.00  0.00     0.027 A 
HETATM   35  C   UNL     1      37.637 -10.530  -1.235  1.00  0.00     0.037 A 
ENDBRANCH   6  31
TORSDOF 5
ENDMDL
MODEL 4
REMARK VINA RESULT:      -8.4      2.930      9.462
REMARK  5 active torsions:
REMARK  status: ('A' for Active; 'I' for Inactive)
REMARK    1  A    between atoms: C_3  and  N_4 
REMARK       I    between atoms: N_4  and  C_5 
REMARK    2  A    between atoms: C_9  and  N_10 
REMARK       I    between atoms: N_10  and  C_11 
REMARK    3  A    between atoms: C_11  and  C_12 
REMARK    4  A    between atoms: C_17  and  C_18 
REMARK    5  A    between atoms: C_24  and  C_25 
ROOT
HETATM    1  C   UNL     1      44.079 -10.863   8.043  1.00  0.00     0.148 A 
HETATM    2  N   UNL     1      43.177  -9.885   7.793  1.00  0.00    -0.165 NA
HETATM    3  N   UNL     1      43.133  -9.194   8.950  1.00  0.00    -0.240 N 
HETATM    4  C   UNL     1      43.992  -9.662   9.905  1.00  0.00     0.123 A 
HETATM    5  N   UNL     1      44.116  -9.059  11.106  1.00  0.00    -0.364 N 
HETATM    6  C   UNL     1      43.194  -8.010  11.538  1.00  0.00     0.143 C 
HETATM    7  C   UNL     1      42.732  -7.189  10.321  1.00  0.00     0.068 C 
HETATM    8  C   UNL     1      42.276  -8.035   9.116  1.00  0.00     0.221 C 
HETATM    9  C   UNL     1      44.615 -10.749   9.353  1.00  0.00     0.089 A 
HETATM   10  H   UNL     1      44.632  -9.512  11.860  1.00  0.00     0.162 HD
ENDROOT
BRANCH   1  11
HETATM   11  C   UNL     1      44.420 -11.889   7.042  1.00  0.00     0.276 C 
HETATM   12  N   UNL     1      43.487 -12.908   7.007  1.00  0.00    -0.322 N 
HETATM   13  H   UNL     1      42.728 -12.784   7.674  1.00  0.00     0.169 HD
HETATM   14  O   UNL     1      45.436 -11.802   6.359  1.00  0.00    -0.266 OA
BRANCH  12  15
HETATM   15  C   UNL     1      43.487 -14.066   6.209  1.00  0.00     0.037 A 
HETATM   16  C   UNL     1      42.908 -14.138   4.940  1.00  0.00     0.059 A 
HETATM   17  C   UNL     1      42.952 -15.315   4.164  1.00  0.00     0.042 A 
HETATM   18  C   UNL     1      43.529 -16.471   4.714  1.00  0.00    -0.035 A 
HETATM   19  C   UNL     1      43.523 -17.828   4.068  1.00  0.00     0.050 C 
HETATM   20  C   UNL     1      44.131 -16.384   5.985  1.00  0.00     0.011 A 
HETATM   21  C   UNL     1      44.109 -15.199   6.723  1.00  0.00     0.030 A 
BRANCH  17  22
HETATM   22  N   UNL     1      42.340 -15.202   2.893  1.00  0.00    -0.327 N 
HETATM   23  C   UNL     1      41.030 -15.469   2.545  1.00  0.00     0.218 C 
HETATM   24  C   UNL     1      40.743 -15.143   1.098  1.00  0.00     0.117 C 
HETATM   25  O   UNL     1      40.150 -15.927   3.262  1.00  0.00    -0.274 OA
HETATM   26  H   UNL     1      42.986 -15.154   2.114  1.00  0.00     0.169 HD
ENDBRANCH  17  22
ENDBRANCH  12  15
ENDBRANCH   1  11
BRANCH   8  27
HETATM   27  C   UNL     1      40.827  -8.464   9.179  1.00  0.00     0.409 C 
HETATM   28  F   UNL     1      40.277  -8.557   7.945  1.00  0.00    -0.169 F 
HETATM   29  F   UNL     1      40.635  -9.647   9.791  1.00  0.00    -0.169 F 
HETATM   30  F   UNL     1      40.091  -7.539   9.847  1.00  0.00    -0.169 F 
ENDBRANCH   8  27
BRANCH   6  31
HETATM   31  C   UNL     1      42.064  -8.477  12.398  1.00  0.00     0.075 A 
HETATM   32  O   UNL     1      41.144  -7.533  12.752  1.00  0.00    -0.325 OA
HETATM   33  C   UNL     1      40.227  -8.147  13.543  1.00  0.00     0.142 A 
HETATM   34  C   UNL     1      40.543  -9.473  13.708  1.00  0.00     0.027 A 
HETATM   35  C   UNL     1      41.736  -9.687  12.976  1.00  0.00     0.037 A 
ENDBRANCH   6  31
TORSDOF 5
ENDMDL
MODEL 5
REMARK VINA RESULT:      -8.4      2.106      2.299
REMARK  5 active torsions:
REMARK  status: ('A' for Active; 'I' for Inactive)
REMARK    1  A    between atoms: C_3  and  N_4 
REMARK       I    between atoms: N_4  and  C_5 
REMARK    2  A    between atoms: C_9  and  N_10 
REMARK       I    between atoms: N_10  and  C_11 
REMARK    3  A    between atoms: C_11  and  C_12 
REMARK    4  A    between atoms: C_17  and  C_18 
REMARK    5  A    between atoms: C_24  and  C_25 
ROOT
HETATM    1  C   UNL     1      43.998 -11.810   7.298  1.00  0.00     0.148 A 
HETATM    2  N   UNL     1      43.695 -13.128   7.365  1.00  0.00    -0.165 NA
HETATM    3  N   UNL     1      43.442 -13.459   6.083  1.00  0.00    -0.240 N 
HETATM    4  C   UNL     1      43.609 -12.426   5.203  1.00  0.00     0.123 A 
HETATM    5  N   UNL     1      43.446 -12.592   3.874  1.00  0.00    -0.364 N 
HETATM    6  C   UNL     1      42.877 -13.818   3.316  1.00  0.00     0.143 C 
HETATM    7  C   UNL     1      43.278 -15.022   4.187  1.00  0.00     0.068 C 
HETATM    8  C   UNL     1      43.075 -14.810   5.701  1.00  0.00     0.221 C 
HETATM    9  C   UNL     1      43.961 -11.340   5.957  1.00  0.00     0.089 A 
HETATM   10  H   UNL     1      43.411 -11.784   3.253  1.00  0.00     0.162 HD
ENDROOT
BRANCH   1  11
HETATM   11  C   UNL     1      44.317 -11.017   8.497  1.00  0.00     0.276 C 
HETATM   12  N   UNL     1      43.185 -10.475   9.075  1.00  0.00    -0.322 N 
HETATM   13  H   UNL     1      42.327 -10.708   8.579  1.00  0.00     0.169 HD
HETATM   14  O   UNL     1      45.474 -10.877   8.881  1.00  0.00    -0.266 OA
BRANCH  12  15
HETATM   15  C   UNL     1      43.093  -9.643  10.205  1.00  0.00     0.037 A 
HETATM   16  C   UNL     1      42.936  -8.257  10.141  1.00  0.00     0.059 A 
HETATM   17  C   UNL     1      42.823  -7.462  11.302  1.00  0.00     0.042 A 
HETATM   18  C   UNL     1      42.946  -8.075  12.559  1.00  0.00    -0.035 A 
HETATM   19  C   UNL     1      42.989  -7.345  13.873  1.00  0.00     0.050 C 
HETATM   20  C   UNL     1      43.081  -9.476  12.615  1.00  0.00     0.011 A 
HETATM   21  C   UNL     1      43.154 -10.249  11.455  1.00  0.00     0.030 A 
BRANCH  17  22
HETATM   22  N   UNL     1      42.642  -6.081  11.051  1.00  0.00    -0.327 N 
HETATM   23  C   UNL     1      41.472  -5.349  11.092  1.00  0.00     0.218 C 
HETATM   24  C   UNL     1      41.707  -3.877  10.844  1.00  0.00     0.117 C 
HETATM   25  O   UNL     1      40.339  -5.769  11.289  1.00  0.00    -0.274 OA
HETATM   26  H   UNL     1      43.406  -5.637  10.554  1.00  0.00     0.169 HD
ENDBRANCH  17  22
ENDBRANCH  12  15
ENDBRANCH   1  11
BRANCH   8  27
HETATM   27  C   UNL     1      41.677 -15.126   6.184  1.00  0.00     0.409 C 
HETATM   28  F   UNL     1      41.689 -15.733   7.395  1.00  0.00    -0.169 F 
HETATM   29  F   UNL     1      40.879 -14.046   6.286  1.00  0.00    -0.169 F 
HETATM   30  F   UNL     1      41.071 -15.996   5.336  1.00  0.00    -0.169 F 
ENDBRANCH   8  27
BRANCH   6  31
HETATM   31  C   UNL     1      41.412 -13.760   3.028  1.00  0.00     0.075 A 
HETATM   32  O   UNL     1      40.873 -14.854   2.414  1.00  0.00    -0.325 OA
HETATM   33  C   UNL     1      39.554 -14.594   2.221  1.00  0.00     0.142 A 
HETATM   34  C   UNL     1      39.234 -13.346   2.698  1.00  0.00     0.027 A 
HETATM   35  C   UNL     1      40.435 -12.801   3.212  1.00  0.00     0.037 A 
ENDBRANCH   6  31
TORSDOF 5
ENDMDL
MODEL 6
REMARK VINA RESULT:      -8.4      6.098      8.335
REMARK  5 active torsions:
REMARK  status: ('A' for Active; 'I' for Inactive)
REMARK    1  A    between atoms: C_3  and  N_4 
REMARK       I    between atoms: N_4  and  C_5 
REMARK    2  A    between atoms: C_9  and  N_10 
REMARK       I    between atoms: N_10  and  C_11 
REMARK    3  A    between atoms: C_11  and  C_12 
REMARK    4  A    between atoms: C_17  and  C_18 
REMARK    5  A    between atoms: C_24  and  C_25 
ROOT
HETATM    1  C   UNL     1      40.876 -14.049   1.229  1.00  0.00     0.148 A 
HETATM    2  N   UNL     1      40.578 -14.620   0.039  1.00  0.00    -0.165 NA
HETATM    3  N   UNL     1      40.543 -13.576  -0.812  1.00  0.00    -0.240 N 
HETATM    4  C   UNL     1      40.843 -12.377  -0.227  1.00  0.00     0.123 A 
HETATM    5  N   UNL     1      40.904 -11.233  -0.941  1.00  0.00    -0.364 N 
HETATM    6  C   UNL     1      40.445 -11.168  -2.329  1.00  0.00     0.143 C 
HETATM    7  C   UNL     1      40.708 -12.514  -3.028  1.00  0.00     0.068 C 
HETATM    8  C   UNL     1      40.256 -13.749  -2.224  1.00  0.00     0.221 C 
HETATM    9  C   UNL     1      41.056 -12.646   1.098  1.00  0.00     0.089 A 
HETATM   10  H   UNL     1      40.964 -10.332  -0.468  1.00  0.00     0.162 HD
ENDROOT
BRANCH   1  11
HETATM   11  C   UNL     1      40.986 -14.835   2.471  1.00  0.00     0.276 C 
HETATM   12  N   UNL     1      42.177 -14.596   3.130  1.00  0.00    -0.322 N 
HETATM   13  H   UNL     1      42.777 -13.927   2.652  1.00  0.00     0.169 HD
HETATM   14  O   UNL     1      40.098 -15.606   2.818  1.00  0.00    -0.266 OA
BRANCH  12  15
HETATM   15  C   UNL     1      42.649 -15.176   4.320  1.00  0.00     0.037 A 
HETATM   16  C   UNL     1      42.791 -16.552   4.514  1.00  0.00     0.059 A 
HETATM   17  C   UNL     1      43.292 -17.090   5.718  1.00  0.00     0.042 A 
HETATM   18  C   UNL     1      43.586 -16.221   6.781  1.00  0.00    -0.035 A 
HETATM   19  C   UNL     1      43.990 -16.655   8.162  1.00  0.00     0.050 C 
HETATM   20  C   UNL     1      43.462 -14.834   6.570  1.00  0.00     0.011 A 
HETATM   21  C   UNL     1      42.999 -14.319   5.358  1.00  0.00     0.030 A 
BRANCH  17  22
HETATM   22  N   UNL     1      43.396 -18.502   5.730  1.00  0.00    -0.327 N 
HETATM   23  C   UNL     1      44.156 -19.313   4.910  1.00  0.00     0.218 C 
HETATM   24  C   UNL     1      44.060 -20.770   5.295  1.00  0.00     0.117 C 
HETATM   25  O   UNL     1      44.845 -18.969   3.959  1.00  0.00    -0.274 OA
HETATM   26  H   UNL     1      42.652 -18.977   6.228  1.00  0.00     0.169 HD
ENDBRANCH  17  22
ENDBRANCH  12  15
ENDBRANCH   1  11
BRANCH   8  27
HETATM   27  C   UNL     1      38.801 -14.111  -2.419  1.00  0.00     0.409 C 
HETATM   28  F   UNL     1      38.018 -13.586  -1.446  1.00  0.00    -0.169 F 
HETATM   29  F   UNL     1      38.293 -13.710  -3.599  1.00  0.00    -0.169 F 
HETATM   30  F   UNL     1      38.636 -15.457  -2.344  1.00  0.00    -0.169 F 
ENDBRANCH   8  27
BRANCH   6  31
HETATM   31  C   UNL     1      39.047 -10.672  -2.509  1.00  0.00     0.075 A 
HETATM   32  O   UNL     1      38.296 -10.558  -1.374  1.00  0.00    -0.325 OA
HETATM   33  C   UNL     1      37.067 -10.123  -1.751  1.00  0.00     0.142 A 
HETATM   34  C   UNL     1      37.011  -9.957  -3.114  1.00  0.00     0.027 A 
HETATM   35  C   UNL     1      38.287 -10.320  -3.607  1.00  0.00     0.037 A 
ENDBRANCH   6  31
TORSDOF 5
ENDMDL
MODEL 7
REMARK VINA RESULT:      -8.3      2.535      3.566
REMARK  5 active torsions:
REMARK  status: ('A' for Active; 'I' for Inactive)
REMARK    1  A    between atoms: C_3  and  N_4 
REMARK       I    between atoms: N_4  and  C_5 
REMARK    2  A    between atoms: C_9  and  N_10 
REMARK       I    between atoms: N_10  and  C_11 
REMARK    3  A    between atoms: C_11  and  C_12 
REMARK    4  A    between atoms: C_17  and  C_18 
REMARK    5  A    between atoms: C_24  and  C_25 
ROOT
HETATM    1  C   UNL     1      40.575 -12.026   5.732  1.00  0.00     0.148 A 
HETATM    2  N   UNL     1      41.173 -12.001   4.517  1.00  0.00    -0.165 NA
HETATM    3  N   UNL     1      41.084 -13.277   4.095  1.00  0.00    -0.240 N 
HETATM    4  C   UNL     1      40.424 -14.102   4.964  1.00  0.00     0.123 A 
HETATM    5  N   UNL     1      40.199 -15.401   4.678  1.00  0.00    -0.364 N 
HETATM    6  C   UNL     1      40.828 -16.057   3.532  1.00  0.00     0.143 C 
HETATM    7  C   UNL     1      40.999 -15.046   2.383  1.00  0.00     0.068 C 
HETATM    8  C   UNL     1      41.608 -13.695   2.808  1.00  0.00     0.221 C 
HETATM    9  C   UNL     1      40.088 -13.325   6.039  1.00  0.00     0.089 A 
HETATM   10  H   UNL     1      39.857 -16.037   5.399  1.00  0.00     0.162 HD
ENDROOT
BRANCH   1  11
HETATM   11  C   UNL     1      40.474 -10.827   6.581  1.00  0.00     0.276 C 
HETATM   12  N   UNL     1      41.712 -10.395   7.015  1.00  0.00    -0.322 N 
HETATM   13  H   UNL     1      42.482 -10.972   6.682  1.00  0.00     0.169 HD
HETATM   14  O   UNL     1      39.387 -10.326   6.850  1.00  0.00    -0.266 OA
BRANCH  12  15
HETATM   15  C   UNL     1      42.014  -9.311   7.858  1.00  0.00     0.037 A 
HETATM   16  C   UNL     1      42.184  -9.422   9.240  1.00  0.00     0.059 A 
HETATM   17  C   UNL     1      42.510  -8.310  10.045  1.00  0.00     0.042 A 
HETATM   18  C   UNL     1      42.593  -7.041   9.451  1.00  0.00    -0.035 A 
HETATM   19  C   UNL     1      42.791  -5.752  10.198  1.00  0.00     0.050 C 
HETATM   20  C   UNL     1      42.444  -6.941   8.054  1.00  0.00     0.011 A 
HETATM   21  C   UNL     1      42.157  -8.059   7.269  1.00  0.00     0.030 A 
BRANCH  17  22
HETATM   22  N   UNL     1      42.672  -8.610  11.419  1.00  0.00    -0.327 N 
HETATM   23  C   UNL     1      41.723  -8.576  12.422  1.00  0.00     0.218 C 
HETATM   24  C   UNL     1      42.272  -9.048  13.748  1.00  0.00     0.117 C 
HETATM   25  O   UNL     1      40.559  -8.210  12.330  1.00  0.00    -0.274 OA
HETATM   26  H   UNL     1      43.633  -8.613  11.742  1.00  0.00     0.169 HD
ENDBRANCH  17  22
ENDBRANCH  12  15
ENDBRANCH   1  11
BRANCH   8  27
HETATM   27  C   UNL     1      43.120 -13.684   2.834  1.00  0.00     0.409 C 
HETATM   28  F   UNL     1      43.605 -14.091   4.032  1.00  0.00    -0.169 F 
HETATM   29  F   UNL     1      43.687 -14.458   1.890  1.00  0.00    -0.169 F 
HETATM   30  F   UNL     1      43.585 -12.421   2.653  1.00  0.00    -0.169 F 
ENDBRANCH   8  27
BRANCH   6  31
HETATM   31  C   UNL     1      42.079 -16.812   3.845  1.00  0.00     0.075 A 
HETATM   32  O   UNL     1      42.456 -16.838   5.158  1.00  0.00    -0.325 OA
HETATM   33  C   UNL     1      43.614 -17.543   5.226  1.00  0.00     0.142 A 
HETATM   34  C   UNL     1      43.993 -17.970   3.976  1.00  0.00     0.027 A 
HETATM   35  C   UNL     1      43.008 -17.490   3.081  1.00  0.00     0.037 A 
ENDBRANCH   6  31
TORSDOF 5
ENDMDL
MODEL 8
REMARK VINA RESULT:      -8.3      4.995     10.328
REMARK  5 active torsions:
REMARK  status: ('A' for Active; 'I' for Inactive)
REMARK    1  A    between atoms: C_3  and  N_4 
REMARK       I    between atoms: N_4  and  C_5 
REMARK    2  A    between atoms: C_9  and  N_10 
REMARK       I    between atoms: N_10  and  C_11 
REMARK    3  A    between atoms: C_11  and  C_12 
REMARK    4  A    between atoms: C_17  and  C_18 
REMARK    5  A    between atoms: C_24  and  C_25 
ROOT
HETATM    1  C   UNL     1      40.243 -13.761   0.543  1.00  0.00     0.148 A 
HETATM    2  N   UNL     1      40.994 -14.858   0.796  1.00  0.00    -0.165 NA
HETATM    3  N   UNL     1      40.959 -14.962   2.139  1.00  0.00    -0.240 N 
HETATM    4  C   UNL     1      40.190 -14.008   2.747  1.00  0.00     0.123 A 
HETATM    5  N   UNL     1      40.002 -13.992   4.083  1.00  0.00    -0.364 N 
HETATM    6  C   UNL     1      40.775 -14.852   4.979  1.00  0.00     0.143 C 
HETATM    7  C   UNL     1      41.096 -16.182   4.274  1.00  0.00     0.068 C 
HETATM    8  C   UNL     1      41.646 -16.029   2.842  1.00  0.00     0.221 C 
HETATM    9  C   UNL     1      39.717 -13.208   1.742  1.00  0.00     0.089 A 
HETATM   10  H   UNL     1      39.567 -13.186   4.534  1.00  0.00     0.162 HD
ENDROOT
BRANCH   1  11
HETATM   11  C   UNL     1      40.033 -13.252  -0.823  1.00  0.00     0.276 C 
HETATM   12  N   UNL     1      39.813 -11.888  -0.839  1.00  0.00    -0.322 N 
HETATM   13  H   UNL     1      39.829 -11.465   0.087  1.00  0.00     0.169 HD
HETATM   14  O   UNL     1      40.047 -14.003  -1.793  1.00  0.00    -0.266 OA
BRANCH  12  15
HETATM   15  C   UNL     1      39.547 -11.058  -1.942  1.00  0.00     0.037 A 
HETATM   16  C   UNL     1      40.512 -10.277  -2.580  1.00  0.00     0.059 A 
HETATM   17  C   UNL     1      40.206  -9.475  -3.700  1.00  0.00     0.042 A 
HETATM   18  C   UNL     1      38.874  -9.403  -4.141  1.00  0.00    -0.035 A 
HETATM   19  C   UNL     1      38.374  -8.490  -5.224  1.00  0.00     0.050 C 
HETATM   20  C   UNL     1      37.911 -10.212  -3.507  1.00  0.00     0.011 A 
HETATM   21  C   UNL     1      38.241 -11.027  -2.422  1.00  0.00     0.030 A 
BRANCH  17  22
HETATM   22  N   UNL     1      41.311  -8.772  -4.237  1.00  0.00    -0.327 N 
HETATM   23  C   UNL     1      41.748  -7.499  -3.929  1.00  0.00     0.218 C 
HETATM   24  C   UNL     1      43.019  -7.136  -4.661  1.00  0.00     0.117 C 
HETATM   25  O   UNL     1      41.220  -6.695  -3.171  1.00  0.00    -0.274 OA
HETATM   26  H   UNL     1      41.668  -9.146  -5.108  1.00  0.00     0.169 HD
ENDBRANCH  17  22
ENDBRANCH  12  15
ENDBRANCH   1  11
BRANCH   8  27
HETATM   27  C   UNL     1      43.142 -15.814   2.778  1.00  0.00     0.409 C 
HETATM   28  F   UNL     1      43.688 -16.400   1.686  1.00  0.00    -0.169 F 
HETATM   29  F   UNL     1      43.506 -14.519   2.760  1.00  0.00    -0.169 F 
HETATM   30  F   UNL     1      43.747 -16.388   3.850  1.00  0.00    -0.169 F 
ENDBRANCH   8  27
BRANCH   6  31
HETATM   31  C   UNL     1      41.973 -14.206   5.596  1.00  0.00     0.075 A 
HETATM   32  O   UNL     1      42.272 -12.947   5.159  1.00  0.00    -0.325 OA
HETATM   33  C   UNL     1      43.394 -12.554   5.815  1.00  0.00     0.142 A 
HETATM   34  C   UNL     1      43.826 -13.542   6.667  1.00  0.00     0.027 A 
HETATM   35  C   UNL     1      42.914 -14.614   6.520  1.00  0.00     0.037 A 
ENDBRANCH   6  31
TORSDOF 5
ENDMDL
MODEL 9
REMARK VINA RESULT:      -7.9      1.255      2.056
REMARK  5 active torsions:
REMARK  status: ('A' for Active; 'I' for Inactive)
REMARK    1  A    between atoms: C_3  and  N_4 
REMARK       I    between atoms: N_4  and  C_5 
REMARK    2  A    between atoms: C_9  and  N_10 
REMARK       I    between atoms: N_10  and  C_11 
REMARK    3  A    between atoms: C_11  and  C_12 
REMARK    4  A    between atoms: C_17  and  C_18 
REMARK    5  A    between atoms: C_24  and  C_25 
ROOT
HETATM    1  C   UNL     1      42.693 -11.351   6.023  1.00  0.00     0.148 A 
HETATM    2  N   UNL     1      42.311 -12.636   6.208  1.00  0.00    -0.165 NA
HETATM    3  N   UNL     1      42.567 -13.216   5.018  1.00  0.00    -0.240 N 
HETATM    4  C   UNL     1      43.131 -12.371   4.102  1.00  0.00     0.123 A 
HETATM    5  N   UNL     1      43.500 -12.796   2.876  1.00  0.00    -0.364 N 
HETATM    6  C   UNL     1      43.126 -14.119   2.377  1.00  0.00     0.143 C 
HETATM    7  C   UNL     1      43.076 -15.122   3.543  1.00  0.00     0.068 C 
HETATM    8  C   UNL     1      42.303 -14.623   4.780  1.00  0.00     0.221 C 
HETATM    9  C   UNL     1      43.219 -11.152   4.718  1.00  0.00     0.089 A 
HETATM   10  H   UNL     1      43.762 -12.125   2.154  1.00  0.00     0.162 HD
ENDROOT
BRANCH   1  11
HETATM   11  C   UNL     1      42.557 -10.333   7.079  1.00  0.00     0.276 C 
HETATM   12  N   UNL     1      41.254 -10.219   7.522  1.00  0.00    -0.322 N 
HETATM   13  H   UNL     1      40.609 -10.849   7.048  1.00  0.00     0.169 HD
HETATM   14  O   UNL     1      43.523  -9.683   7.466  1.00  0.00    -0.266 OA
BRANCH  12  15
HETATM   15  C   UNL     1      40.733  -9.343   8.491  1.00  0.00     0.037 A 
HETATM   16  C   UNL     1      41.218  -9.249   9.797  1.00  0.00     0.059 A 
HETATM   17  C   UNL     1      40.680  -8.337  10.730  1.00  0.00     0.042 A 
HETATM   18  C   UNL     1      39.575  -7.555  10.358  1.00  0.00    -0.035 A 
HETATM   19  C   UNL     1      38.810  -6.649  11.282  1.00  0.00     0.050 C 
HETATM   20  C   UNL     1      39.107  -7.640   9.032  1.00  0.00     0.011 A 
HETATM   21  C   UNL     1      39.676  -8.522   8.112  1.00  0.00     0.030 A 
BRANCH  17  22
HETATM   22  N   UNL     1      41.311  -8.356  11.998  1.00  0.00    -0.327 N 
HETATM   23  C   UNL     1      41.038  -9.171  13.079  1.00  0.00     0.218 C 
HETATM   24  C   UNL     1      41.991  -8.940  14.227  1.00  0.00     0.117 C 
HETATM   25  O   UNL     1      40.142 -10.000  13.176  1.00  0.00    -0.274 OA
HETATM   26  H   UNL     1      41.850  -7.527  12.215  1.00  0.00     0.169 HD
ENDBRANCH  17  22
ENDBRANCH  12  15
ENDBRANCH   1  11
BRANCH   8  27
HETATM   27  C   UNL     1      40.812 -14.867   4.712  1.00  0.00     0.409 C 
HETATM   28  F   UNL     1      40.276 -15.048   5.943  1.00  0.00    -0.169 F 
HETATM   29  F   UNL     1      40.123 -13.874   4.119  1.00  0.00    -0.169 F 
HETATM   30  F   UNL     1      40.552 -16.007   4.022  1.00  0.00    -0.169 F 
ENDBRANCH   8  27
BRANCH   6  31
HETATM   31  C   UNL     1      41.902 -14.148   1.520  1.00  0.00     0.075 A 
HETATM   32  O   UNL     1      41.348 -12.937   1.218  1.00  0.00    -0.325 OA
HETATM   33  C   UNL     1      40.245 -13.180   0.464  1.00  0.00     0.142 A 
HETATM   34  C   UNL     1      40.077 -14.531   0.277  1.00  0.00     0.027 A 
HETATM   35  C   UNL     1      41.141 -15.159   0.967  1.00  0.00     0.037 A 
ENDBRANCH   6  31
TORSDOF 5
ENDMDL
MODEL 10
REMARK VINA RESULT:      -7.9     19.090     21.170
REMARK  5 active torsions:
REMARK  status: ('A' for Active; 'I' for Inactive)
REMARK    1  A    between atoms: C_3  and  N_4 
REMARK       I    between atoms: N_4  and  C_5 
REMARK    2  A    between atoms: C_9  and  N_10 
REMARK       I    between atoms: N_10  and  C_11 
REMARK    3  A    between atoms: C_11  and  C_12 
REMARK    4  A    between atoms: C_17  and  C_18 
REMARK    5  A    between atoms: C_24  and  C_25 
ROOT
HETATM    1  C   UNL     1      47.673 -29.678   2.815  1.00  0.00     0.148 A 
HETATM    2  N   UNL     1      48.506 -29.658   1.748  1.00  0.00    -0.165 NA
HETATM    3  N   UNL     1      47.762 -29.088   0.779  1.00  0.00    -0.240 N 
HETATM    4  C   UNL     1      46.514 -28.709   1.190  1.00  0.00     0.123 A 
HETATM    5  N   UNL     1      45.655 -28.077   0.364  1.00  0.00    -0.364 N 
HETATM    6  C   UNL     1      45.918 -27.952  -1.069  1.00  0.00     0.143 C 
HETATM    7  C   UNL     1      47.432 -27.829  -1.312  1.00  0.00     0.068 C 
HETATM    8  C   UNL     1      48.286 -28.866  -0.556  1.00  0.00     0.221 C 
HETATM    9  C   UNL     1      46.420 -29.085   2.503  1.00  0.00     0.089 A 
HETATM   10  H   UNL     1      44.679 -27.952   0.632  1.00  0.00     0.162 HD
ENDROOT
BRANCH   1  11
HETATM   11  C   UNL     1      48.072 -30.256   4.110  1.00  0.00     0.276 C 
HETATM   12  N   UNL     1      49.350 -30.780   4.071  1.00  0.00    -0.322 N 
HETATM   13  H   UNL     1      49.798 -30.685   3.162  1.00  0.00     0.169 HD
HETATM   14  O   UNL     1      47.309 -30.256   5.071  1.00  0.00    -0.266 OA
BRANCH  12  15
HETATM   15  C   UNL     1      50.058 -31.435   5.094  1.00  0.00     0.037 A 
HETATM   16  C   UNL     1      51.395 -31.176   5.404  1.00  0.00     0.059 A 
HETATM   17  C   UNL     1      52.061 -31.840   6.456  1.00  0.00     0.042 A 
HETATM   18  C   UNL     1      51.382 -32.844   7.164  1.00  0.00    -0.035 A 
HETATM   19  C   UNL     1      52.000 -33.731   8.209  1.00  0.00     0.050 C 
HETATM   20  C   UNL     1      50.027 -33.083   6.860  1.00  0.00     0.011 A 
HETATM   21  C   UNL     1      49.375 -32.389   5.839  1.00  0.00     0.030 A 
BRANCH  17  22
HETATM   22  N   UNL     1      53.404 -31.435   6.647  1.00  0.00    -0.327 N 
HETATM   23  C   UNL     1      54.559 -32.146   6.388  1.00  0.00     0.218 C 
HETATM   24  C   UNL     1      55.805 -31.332   6.649  1.00  0.00     0.117 C 
HETATM   25  O   UNL     1      54.647 -33.304   6.002  1.00  0.00    -0.274 OA
HETATM   26  H   UNL     1      53.522 -30.639   7.263  1.00  0.00     0.169 HD
ENDBRANCH  17  22
ENDBRANCH  12  15
ENDBRANCH   1  11
BRANCH   8  27
HETATM   27  C   UNL     1      48.436 -30.185  -1.281  1.00  0.00     0.409 C 
HETATM   28  F   UNL     1      49.662 -30.728  -1.089  1.00  0.00    -0.169 F 
HETATM   29  F   UNL     1      47.529 -31.111  -0.921  1.00  0.00    -0.169 F 
HETATM   30  F   UNL     1      48.316 -30.002  -2.621  1.00  0.00    -0.169 F 
ENDBRANCH   8  27
BRANCH   6  31
HETATM   31  C   UNL     1      45.265 -28.991  -1.923  1.00  0.00     0.075 A 
HETATM   32  O   UNL     1      45.549 -28.940  -3.258  1.00  0.00    -0.325 OA
HETATM   33  C   UNL     1      44.847 -29.939  -3.853  1.00  0.00     0.142 A 
HETATM   34  C   UNL     1      44.111 -30.632  -2.922  1.00  0.00     0.027 A 
HETATM   35  C   UNL     1      44.373 -30.015  -1.676  1.00  0.00     0.037 A 
ENDBRANCH   6  31
TORSDOF 5
ENDMDL
