MODEL 1
REMARK VINA RESULT:      -8.2      0.000      0.000
REMARK  9 active torsions:
REMARK  status: ('A' for Active; 'I' for Inactive)
REMARK    1  A    between atoms: C_4  and  C_5 
REMARK    2  A    between atoms: C_7  and  C_8 
REMARK    3  A    between atoms: C_8  and  C_9 
REMARK       I    between atoms: C_9  and  N_10 
REMARK    4  A    between atoms: N_10  and  C_11 
REMARK    5  A    between atoms: C_11  and  C_12 
REMARK    6  A    between atoms: C_12  and  N_13 
REMARK    7  A    between atoms: C_27  and  C_28 
REMARK    8  A    between atoms: C_28  and  O_29 
REMARK    9  A    between atoms: O_29  and  C_30 
ROOT
HETATM    1  C   UNL     1      40.506 -11.863   2.558  1.00  0.00     0.166 C 
HETATM    2  N   UNL     1      40.098 -11.550   3.962  1.00  0.00    -0.319 N 
HETATM    3  C   UNL     1      40.488 -11.937   5.140  1.00  0.00     0.011 C 
HETATM    4  C   UNL     1      38.955 -10.503   4.073  1.00  0.00     0.170 C 
HETATM    5  S   UNL     1      38.563 -10.122   5.715  1.00  0.00    -0.086 SA
HETATM    6  C   UNL     1      39.672 -11.412   6.307  1.00  0.00     0.135 C 
HETATM    7  N   UNL     1      38.325  -9.961   3.096  1.00  0.00    -0.229 NA
HETATM    8  C   UNL     1      38.630 -10.344   1.815  1.00  0.00     0.048 C 
HETATM    9  C   UNL     1      37.812  -9.620   0.766  1.00  0.00     0.071 C 
HETATM   10  C   UNL     1      39.591 -11.246   1.535  1.00  0.00     0.069 C 
ENDROOT
BRANCH   3  11
HETATM   11  C   UNL     1      41.570 -12.967   5.342  1.00  0.00     0.156 C 
BRANCH  11  12
HETATM   12  C   UNL     1      41.084 -14.328   5.802  1.00  0.00     0.223 C 
HETATM   13  N   UNL     1      41.897 -15.390   5.467  1.00  0.00    -0.359 N 
HETATM   14  H   UNL     1      42.809 -15.151   5.082  1.00  0.00     0.162 HD
HETATM   15  O   UNL     1      40.045 -14.466   6.434  1.00  0.00    -0.273 OA
BRANCH  13  16
HETATM   16  C   UNL     1      41.892 -16.634   6.247  1.00  0.00     0.150 C 
BRANCH  16  17
HETATM   17  C   UNL     1      43.246 -17.158   6.771  1.00  0.00     0.254 C 
BRANCH  17  18
HETATM   18  N   UNL     1      43.847 -18.212   5.856  1.00  0.00    -0.070 N 
HETATM   19  H   UNL     1      44.866 -18.127   5.961  1.00  0.00     0.279 HD
HETATM   20  C   UNL     1      43.441 -19.621   6.229  1.00  0.00     0.235 C 
HETATM   21  C   UNL     1      44.149 -20.618   5.323  1.00  0.00     0.028 C 
HETATM   22  C   UNL     1      43.874 -20.337   3.851  1.00  0.00     0.003 C 
HETATM   23  C   UNL     1      44.228 -18.898   3.497  1.00  0.00     0.028 C 
HETATM   24  C   UNL     1      43.520 -17.904   4.406  1.00  0.00     0.235 C 
ENDBRANCH  17  18
ENDBRANCH  16  17
ENDBRANCH  13  16
ENDBRANCH  11  12
ENDBRANCH   3  11
BRANCH   1  25
HETATM   25  C   UNL     1      40.694 -13.366   2.373  1.00  0.00    -0.030 A 
HETATM   26  C   UNL     1      41.964 -13.857   2.004  1.00  0.00     0.016 A 
HETATM   27  C   UNL     1      42.206 -15.231   1.882  1.00  0.00    -0.061 A 
HETATM   28  C   UNL     1      43.563 -15.727   1.471  1.00  0.00     0.048 C 
HETATM   29  C   UNL     1      41.146 -16.121   2.074  1.00  0.00     0.007 A 
HETATM   30  C   UNL     1      39.874 -15.648   2.397  1.00  0.00     0.001 A 
HETATM   31  C   UNL     1      39.643 -14.281   2.548  1.00  0.00     0.009 A 
ENDBRANCH   1  25
BRANCH  10  32
HETATM   32  C   UNL     1      39.838 -11.674   0.140  1.00  0.00     0.294 C 
HETATM   33  O   UNL     1      40.843 -11.364  -0.472  1.00  0.00    -0.259 OA
BRANCH  32  34
HETATM   34  O   UNL     1      38.848 -12.517  -0.229  1.00  0.00    -0.313 OA
BRANCH  34  35
HETATM   35  C   UNL     1      38.980 -13.182  -1.502  1.00  0.00     0.124 C 
HETATM   36  C   UNL     1      39.433 -14.607  -1.206  1.00  0.00     0.040 C 
HETATM   37  C   UNL     1      37.629 -13.186  -2.207  1.00  0.00     0.040 C 
ENDBRANCH  34  35
ENDBRANCH  32  34
ENDBRANCH  10  32
TORSDOF 9
ENDMDL
MODEL 2
REMARK VINA RESULT:      -7.8      1.956      2.419
REMARK  9 active torsions:
REMARK  status: ('A' for Active; 'I' for Inactive)
REMARK    1  A    between atoms: C_4  and  C_5 
REMARK    2  A    between atoms: C_7  and  C_8 
REMARK    3  A    between atoms: C_8  and  C_9 
REMARK       I    between atoms: C_9  and  N_10 
REMARK    4  A    between atoms: N_10  and  C_11 
REMARK    5  A    between atoms: C_11  and  C_12 
REMARK    6  A    between atoms: C_12  and  N_13 
REMARK    7  A    between atoms: C_27  and  C_28 
REMARK    8  A    between atoms: C_28  and  O_29 
REMARK    9  A    between atoms: O_29  and  C_30 
ROOT
HETATM    1  C   UNL     1      41.423 -11.472   1.242  1.00  0.00     0.166 C 
HETATM    2  N   UNL     1      41.356 -10.664   2.498  1.00  0.00    -0.319 N 
HETATM    3  C   UNL     1      41.799 -10.812   3.712  1.00  0.00     0.011 C 
HETATM    4  C   UNL     1      40.602  -9.313   2.345  1.00  0.00     0.170 C 
HETATM    5  S   UNL     1      40.608  -8.382   3.804  1.00  0.00    -0.086 SA
HETATM    6  C   UNL     1      41.372  -9.745   4.701  1.00  0.00     0.135 C 
HETATM    7  N   UNL     1      40.010  -8.891   1.288  1.00  0.00    -0.229 NA
HETATM    8  C   UNL     1      39.980  -9.694   0.178  1.00  0.00     0.048 C 
HETATM    9  C   UNL     1      39.251  -9.066  -0.992  1.00  0.00     0.071 C 
HETATM   10  C   UNL     1      40.577 -10.902   0.137  1.00  0.00     0.069 C 
ENDROOT
BRANCH   3  11
HETATM   11  C   UNL     1      42.551 -12.040   4.160  1.00  0.00     0.156 C 
BRANCH  11  12
HETATM   12  C   UNL     1      42.071 -12.644   5.465  1.00  0.00     0.223 C 
HETATM   13  N   UNL     1      40.845 -13.272   5.410  1.00  0.00    -0.359 N 
HETATM   14  H   UNL     1      40.451 -13.403   4.480  1.00  0.00     0.162 HD
HETATM   15  O   UNL     1      42.736 -12.583   6.492  1.00  0.00    -0.273 OA
BRANCH  13  16
HETATM   16  C   UNL     1      40.485 -14.333   6.360  1.00  0.00     0.150 C 
BRANCH  16  17
HETATM   17  C   UNL     1      40.559 -15.794   5.866  1.00  0.00     0.254 C 
BRANCH  17  18
HETATM   18  N   UNL     1      41.926 -16.413   6.108  1.00  0.00    -0.070 N 
HETATM   19  H   UNL     1      41.761 -17.423   6.214  1.00  0.00     0.279 HD
HETATM   20  C   UNL     1      42.885 -16.200   4.957  1.00  0.00     0.235 C 
HETATM   21  C   UNL     1      44.195 -16.921   5.240  1.00  0.00     0.028 C 
HETATM   22  C   UNL     1      44.811 -16.476   6.560  1.00  0.00     0.003 C 
HETATM   23  C   UNL     1      43.818 -16.635   7.705  1.00  0.00     0.028 C 
HETATM   24  C   UNL     1      42.508 -15.916   7.419  1.00  0.00     0.235 C 
ENDBRANCH  17  18
ENDBRANCH  16  17
ENDBRANCH  13  16
ENDBRANCH  11  12
ENDBRANCH   3  11
BRANCH   1  25
HETATM   25  C   UNL     1      41.131 -12.943   1.531  1.00  0.00    -0.030 A 
HETATM   26  C   UNL     1      42.144 -13.899   1.308  1.00  0.00     0.016 A 
HETATM   27  C   UNL     1      41.949 -15.250   1.615  1.00  0.00    -0.061 A 
HETATM   28  C   UNL     1      43.038 -16.251   1.353  1.00  0.00     0.048 C 
HETATM   29  C   UNL     1      40.702 -15.659   2.095  1.00  0.00     0.007 A 
HETATM   30  C   UNL     1      39.676 -14.732   2.278  1.00  0.00     0.001 A 
HETATM   31  C   UNL     1      39.883 -13.381   2.001  1.00  0.00     0.009 A 
ENDBRANCH   1  25
BRANCH  10  32
HETATM   32  C   UNL     1      40.460 -11.759  -1.064  1.00  0.00     0.294 C 
HETATM   33  O   UNL     1      41.382 -11.929  -1.839  1.00  0.00    -0.259 OA
BRANCH  32  34
HETATM   34  O   UNL     1      39.250 -12.359  -1.044  1.00  0.00    -0.313 OA
BRANCH  34  35
HETATM   35  C   UNL     1      38.974 -13.337  -2.068  1.00  0.00     0.124 C 
HETATM   36  C   UNL     1      39.263 -14.703  -1.456  1.00  0.00     0.040 C 
HETATM   37  C   UNL     1      37.510 -13.234  -2.477  1.00  0.00     0.040 C 
ENDBRANCH  34  35
ENDBRANCH  32  34
ENDBRANCH  10  32
TORSDOF 9
ENDMDL
MODEL 3
REMARK VINA RESULT:      -7.8      3.661      5.749
REMARK  9 active torsions:
REMARK  status: ('A' for Active; 'I' for Inactive)
REMARK    1  A    between atoms: C_4  and  C_5 
REMARK    2  A    between atoms: C_7  and  C_8 
REMARK    3  A    between atoms: C_8  and  C_9 
REMARK       I    between atoms: C_9  and  N_10 
REMARK    4  A    between atoms: N_10  and  C_11 
REMARK    5  A    between atoms: C_11  and  C_12 
REMARK    6  A    between atoms: C_12  and  N_13 
REMARK    7  A    between atoms: C_27  and  C_28 
REMARK    8  A    between atoms: C_28  and  O_29 
REMARK    9  A    between atoms: O_29  and  C_30 
ROOT
HETATM    1  C   UNL     1      41.963 -11.800   2.878  1.00  0.00     0.166 C 
HETATM    2  N   UNL     1      41.916 -11.145   4.222  1.00  0.00    -0.319 N 
HETATM    3  C   UNL     1      42.655 -11.186   5.291  1.00  0.00     0.011 C 
HETATM    4  C   UNL     1      40.727 -10.162   4.408  1.00  0.00     0.170 C 
HETATM    5  S   UNL     1      40.751  -9.376   5.950  1.00  0.00    -0.086 SA
HETATM    6  C   UNL     1      42.128 -10.409   6.483  1.00  0.00     0.135 C 
HETATM    7  N   UNL     1      39.794  -9.929   3.558  1.00  0.00    -0.229 NA
HETATM    8  C   UNL     1      39.785 -10.623   2.376  1.00  0.00     0.048 C 
HETATM    9  C   UNL     1      38.631 -10.245   1.472  1.00  0.00     0.071 C 
HETATM   10  C   UNL     1      40.737 -11.521   2.052  1.00  0.00     0.069 C 
ENDROOT
BRANCH   3  11
HETATM   11  C   UNL     1      43.868 -12.073   5.408  1.00  0.00     0.156 C 
BRANCH  11  12
HETATM   12  C   UNL     1      44.693 -11.869   6.665  1.00  0.00     0.223 C 
HETATM   13  N   UNL     1      45.884 -11.197   6.486  1.00  0.00    -0.359 N 
HETATM   14  H   UNL     1      46.027 -10.774   5.571  1.00  0.00     0.162 HD
HETATM   15  O   UNL     1      44.316 -12.266   7.760  1.00  0.00    -0.273 OA
BRANCH  13  16
HETATM   16  C   UNL     1      46.517 -10.456   7.586  1.00  0.00     0.150 C 
BRANCH  16  17
HETATM   17  C   UNL     1      45.874  -9.120   8.014  1.00  0.00     0.254 C 
BRANCH  17  18
HETATM   18  N   UNL     1      44.724  -9.321   8.987  1.00  0.00    -0.070 N 
HETATM   19  H   UNL     1      44.083  -9.982   8.530  1.00  0.00     0.279 HD
HETATM   20  C   UNL     1      45.164  -9.914  10.308  1.00  0.00     0.235 C 
HETATM   21  C   UNL     1      43.949 -10.164  11.190  1.00  0.00     0.028 C 
HETATM   22  C   UNL     1      43.133  -8.895  11.400  1.00  0.00     0.003 C 
HETATM   23  C   UNL     1      42.747  -8.269  10.066  1.00  0.00     0.028 C 
HETATM   24  C   UNL     1      43.963  -8.023   9.185  1.00  0.00     0.235 C 
ENDBRANCH  17  18
ENDBRANCH  16  17
ENDBRANCH  13  16
ENDBRANCH  11  12
ENDBRANCH   3  11
BRANCH   1  25
HETATM   25  C   UNL     1      42.275 -13.288   3.015  1.00  0.00    -0.030 A 
HETATM   26  C   UNL     1      41.568 -14.052   3.966  1.00  0.00     0.016 A 
HETATM   27  C   UNL     1      41.772 -15.431   4.089  1.00  0.00    -0.061 A 
HETATM   28  C   UNL     1      41.018 -16.219   5.122  1.00  0.00     0.048 C 
HETATM   29  C   UNL     1      42.740 -16.043   3.289  1.00  0.00     0.007 A 
HETATM   30  C   UNL     1      43.479 -15.293   2.374  1.00  0.00     0.001 A 
HETATM   31  C   UNL     1      43.252 -13.924   2.232  1.00  0.00     0.009 A 
ENDBRANCH   1  25
BRANCH  10  32
HETATM   32  C   UNL     1      40.646 -12.293   0.792  1.00  0.00     0.294 C 
HETATM   33  O   UNL     1      41.274 -11.993  -0.206  1.00  0.00    -0.259 OA
BRANCH  32  34
HETATM   34  O   UNL     1      39.878 -13.382   1.013  1.00  0.00    -0.313 OA
BRANCH  34  35
HETATM   35  C   UNL     1      40.205 -14.586   0.289  1.00  0.00     0.124 C 
HETATM   36  C   UNL     1      39.806 -15.755   1.182  1.00  0.00     0.040 C 
HETATM   37  C   UNL     1      39.416 -14.616  -1.015  1.00  0.00     0.040 C 
ENDBRANCH  34  35
ENDBRANCH  32  34
ENDBRANCH  10  32
TORSDOF 9
ENDMDL
MODEL 4
REMARK VINA RESULT:      -7.6      3.632      6.815
REMARK  9 active torsions:
REMARK  status: ('A' for Active; 'I' for Inactive)
REMARK    1  A    between atoms: C_4  and  C_5 
REMARK    2  A    between atoms: C_7  and  C_8 
REMARK    3  A    between atoms: C_8  and  C_9 
REMARK       I    between atoms: C_9  and  N_10 
REMARK    4  A    between atoms: N_10  and  C_11 
REMARK    5  A    between atoms: C_11  and  C_12 
REMARK    6  A    between atoms: C_12  and  N_13 
REMARK    7  A    between atoms: C_27  and  C_28 
REMARK    8  A    between atoms: C_28  and  O_29 
REMARK    9  A    between atoms: O_29  and  C_30 
ROOT
HETATM    1  C   UNL     1      41.999 -12.322   2.915  1.00  0.00     0.166 C 
HETATM    2  N   UNL     1      40.837 -11.383   2.994  1.00  0.00    -0.319 N 
HETATM    3  C   UNL     1      40.614 -10.245   3.581  1.00  0.00     0.011 C 
HETATM    4  C   UNL     1      39.595 -11.840   2.179  1.00  0.00     0.170 C 
HETATM    5  S   UNL     1      38.301 -10.693   2.245  1.00  0.00    -0.086 SA
HETATM    6  C   UNL     1      39.198  -9.712   3.461  1.00  0.00     0.135 C 
HETATM    7  N   UNL     1      39.478 -12.937   1.525  1.00  0.00    -0.229 NA
HETATM    8  C   UNL     1      40.508 -13.841   1.555  1.00  0.00     0.048 C 
HETATM    9  C   UNL     1      40.233 -15.086   0.738  1.00  0.00     0.071 C 
HETATM   10  C   UNL     1      41.658 -13.612   2.220  1.00  0.00     0.069 C 
ENDROOT
BRANCH   3  11
HETATM   11  C   UNL     1      41.634  -9.568   4.461  1.00  0.00     0.156 C 
BRANCH  11  12
HETATM   12  C   UNL     1      41.268  -9.500   5.931  1.00  0.00     0.223 C 
HETATM   13  N   UNL     1      41.528  -8.294   6.549  1.00  0.00    -0.359 N 
HETATM   14  H   UNL     1      41.795  -7.526   5.936  1.00  0.00     0.162 HD
HETATM   15  O   UNL     1      40.768 -10.449   6.520  1.00  0.00    -0.273 OA
BRANCH  13  16
HETATM   16  C   UNL     1      40.783  -7.869   7.741  1.00  0.00     0.150 C 
BRANCH  16  17
HETATM   17  C   UNL     1      41.574  -7.695   9.056  1.00  0.00     0.254 C 
BRANCH  17  18
HETATM   18  N   UNL     1      42.782  -8.616   9.125  1.00  0.00    -0.070 N 
HETATM   19  H   UNL     1      42.681  -9.270   8.338  1.00  0.00     0.279 HD
HETATM   20  C   UNL     1      44.096  -7.881   8.973  1.00  0.00     0.235 C 
HETATM   21  C   UNL     1      45.245  -8.879   8.967  1.00  0.00     0.028 C 
HETATM   22  C   UNL     1      45.242  -9.752  10.216  1.00  0.00     0.003 C 
HETATM   23  C   UNL     1      43.895 -10.440  10.396  1.00  0.00     0.028 C 
HETATM   24  C   UNL     1      42.748  -9.441  10.399  1.00  0.00     0.235 C 
ENDBRANCH  17  18
ENDBRANCH  16  17
ENDBRANCH  13  16
ENDBRANCH  11  12
ENDBRANCH   3  11
BRANCH   1  25
HETATM   25  C   UNL     1      42.625 -12.523   4.292  1.00  0.00    -0.030 A 
HETATM   26  C   UNL     1      43.843 -11.878   4.591  1.00  0.00     0.016 A 
HETATM   27  C   UNL     1      44.428 -11.979   5.859  1.00  0.00    -0.061 A 
HETATM   28  C   UNL     1      45.734 -11.296   6.147  1.00  0.00     0.048 C 
HETATM   29  C   UNL     1      43.815 -12.786   6.821  1.00  0.00     0.007 A 
HETATM   30  C   UNL     1      42.633 -13.466   6.527  1.00  0.00     0.001 A 
HETATM   31  C   UNL     1      42.036 -13.338   5.272  1.00  0.00     0.009 A 
ENDBRANCH   1  25
BRANCH  10  32
HETATM   32  C   UNL     1      42.714 -14.647   2.276  1.00  0.00     0.294 C 
HETATM   33  O   UNL     1      43.799 -14.506   1.744  1.00  0.00    -0.259 OA
BRANCH  32  34
HETATM   34  O   UNL     1      42.293 -15.643   3.086  1.00  0.00    -0.313 OA
BRANCH  34  35
HETATM   35  C   UNL     1      43.251 -16.658   3.449  1.00  0.00     0.124 C 
HETATM   36  C   UNL     1      42.998 -16.993   4.914  1.00  0.00     0.040 C 
HETATM   37  C   UNL     1      43.035 -17.887   2.574  1.00  0.00     0.040 C 
ENDBRANCH  34  35
ENDBRANCH  32  34
ENDBRANCH  10  32
TORSDOF 9
ENDMDL
MODEL 5
REMARK VINA RESULT:      -7.5      3.712      7.384
REMARK  9 active torsions:
REMARK  status: ('A' for Active; 'I' for Inactive)
REMARK    1  A    between atoms: C_4  and  C_5 
REMARK    2  A    between atoms: C_7  and  C_8 
REMARK    3  A    between atoms: C_8  and  C_9 
REMARK       I    between atoms: C_9  and  N_10 
REMARK    4  A    between atoms: N_10  and  C_11 
REMARK    5  A    between atoms: C_11  and  C_12 
REMARK    6  A    between atoms: C_12  and  N_13 
REMARK    7  A    between atoms: C_27  and  C_28 
REMARK    8  A    between atoms: C_28  and  O_29 
REMARK    9  A    between atoms: O_29  and  C_30 
ROOT
HETATM    1  C   UNL     1      41.745 -12.961   5.520  1.00  0.00     0.166 C 
HETATM    2  N   UNL     1      42.510 -11.909   6.259  1.00  0.00    -0.319 N 
HETATM    3  C   UNL     1      42.390 -10.624   6.414  1.00  0.00     0.011 C 
HETATM    4  C   UNL     1      43.731 -12.452   7.052  1.00  0.00     0.170 C 
HETATM    5  S   UNL     1      44.546 -11.212   7.944  1.00  0.00    -0.086 SA
HETATM    6  C   UNL     1      43.509  -9.949   7.185  1.00  0.00     0.135 C 
HETATM    7  N   UNL     1      44.146 -13.666   7.071  1.00  0.00    -0.229 NA
HETATM    8  C   UNL     1      43.504 -14.598   6.298  1.00  0.00     0.048 C 
HETATM    9  C   UNL     1      44.099 -15.986   6.421  1.00  0.00     0.071 C 
HETATM   10  C   UNL     1      42.430 -14.300   5.540  1.00  0.00     0.069 C 
ENDROOT
BRANCH   3  11
HETATM   11  C   UNL     1      41.306  -9.820   5.742  1.00  0.00     0.156 C 
BRANCH  11  12
HETATM   12  C   UNL     1      39.976  -9.802   6.470  1.00  0.00     0.223 C 
HETATM   13  N   UNL     1      39.946 -10.497   7.661  1.00  0.00    -0.359 N 
HETATM   14  H   UNL     1      40.844 -10.825   8.011  1.00  0.00     0.162 HD
HETATM   15  O   UNL     1      39.004  -9.202   6.031  1.00  0.00    -0.273 OA
BRANCH  13  16
HETATM   16  C   UNL     1      38.985 -10.158   8.720  1.00  0.00     0.150 C 
BRANCH  16  17
HETATM   17  C   UNL     1      39.432  -9.145   9.796  1.00  0.00     0.254 C 
BRANCH  17  18
HETATM   18  N   UNL     1      40.430  -9.748  10.772  1.00  0.00    -0.070 N 
HETATM   19  H   UNL     1      40.340 -10.767  10.671  1.00  0.00     0.279 HD
HETATM   20  C   UNL     1      41.861  -9.360  10.470  1.00  0.00     0.235 C 
HETATM   21  C   UNL     1      42.801 -10.070  11.435  1.00  0.00     0.028 C 
HETATM   22  C   UNL     1      42.445  -9.778  12.887  1.00  0.00     0.003 C 
HETATM   23  C   UNL     1      40.986 -10.112  13.167  1.00  0.00     0.028 C 
HETATM   24  C   UNL     1      40.049  -9.404  12.200  1.00  0.00     0.235 C 
ENDBRANCH  17  18
ENDBRANCH  16  17
ENDBRANCH  13  16
ENDBRANCH  11  12
ENDBRANCH   3  11
BRANCH   1  25
HETATM   25  C   UNL     1      41.389 -12.483   4.115  1.00  0.00    -0.030 A 
HETATM   26  C   UNL     1      40.032 -12.417   3.737  1.00  0.00     0.016 A 
HETATM   27  C   UNL     1      39.649 -11.928   2.483  1.00  0.00    -0.061 A 
HETATM   28  C   UNL     1      38.197 -11.884   2.099  1.00  0.00     0.048 C 
HETATM   29  C   UNL     1      40.641 -11.556   1.573  1.00  0.00     0.007 A 
HETATM   30  C   UNL     1      41.990 -11.657   1.916  1.00  0.00     0.001 A 
HETATM   31  C   UNL     1      42.368 -12.116   3.178  1.00  0.00     0.009 A 
ENDBRANCH   1  25
BRANCH  10  32
HETATM   32  C   UNL     1      41.813 -15.328   4.672  1.00  0.00     0.294 C 
HETATM   33  O   UNL     1      40.711 -15.795   4.892  1.00  0.00    -0.259 OA
BRANCH  32  34
HETATM   34  O   UNL     1      42.617 -15.525   3.605  1.00  0.00    -0.313 OA
BRANCH  34  35
HETATM   35  C   UNL     1      42.108 -16.336   2.526  1.00  0.00     0.124 C 
HETATM   36  C   UNL     1      41.830 -15.390   1.363  1.00  0.00     0.040 C 
HETATM   37  C   UNL     1      43.157 -17.370   2.137  1.00  0.00     0.040 C 
ENDBRANCH  34  35
ENDBRANCH  32  34
ENDBRANCH  10  32
TORSDOF 9
ENDMDL
MODEL 6
REMARK VINA RESULT:      -7.5      3.536      6.917
REMARK  9 active torsions:
REMARK  status: ('A' for Active; 'I' for Inactive)
REMARK    1  A    between atoms: C_4  and  C_5 
REMARK    2  A    between atoms: C_7  and  C_8 
REMARK    3  A    between atoms: C_8  and  C_9 
REMARK       I    between atoms: C_9  and  N_10 
REMARK    4  A    between atoms: N_10  and  C_11 
REMARK    5  A    between atoms: C_11  and  C_12 
REMARK    6  A    between atoms: C_12  and  N_13 
REMARK    7  A    between atoms: C_27  and  C_28 
REMARK    8  A    between atoms: C_28  and  O_29 
REMARK    9  A    between atoms: O_29  and  C_30 
ROOT
HETATM    1  C   UNL     1      41.756 -12.717   3.301  1.00  0.00     0.166 C 
HETATM    2  N   UNL     1      40.567 -11.817   3.420  1.00  0.00    -0.319 N 
HETATM    3  C   UNL     1      40.149 -10.958   4.302  1.00  0.00     0.011 C 
HETATM    4  C   UNL     1      39.594 -11.887   2.210  1.00  0.00     0.170 C 
HETATM    5  S   UNL     1      38.271 -10.780   2.359  1.00  0.00    -0.086 SA
HETATM    6  C   UNL     1      38.786 -10.350   4.031  1.00  0.00     0.135 C 
HETATM    7  N   UNL     1      39.699 -12.666   1.196  1.00  0.00    -0.229 NA
HETATM    8  C   UNL     1      40.730 -13.568   1.156  1.00  0.00     0.048 C 
HETATM    9  C   UNL     1      40.729 -14.418  -0.098  1.00  0.00     0.071 C 
HETATM   10  C   UNL     1      41.663 -13.650   2.125  1.00  0.00     0.069 C 
ENDROOT
BRANCH   3  11
HETATM   11  C   UNL     1      40.881 -10.695   5.594  1.00  0.00     0.156 C 
BRANCH  11  12
HETATM   12  C   UNL     1      40.027 -10.779   6.844  1.00  0.00     0.223 C 
HETATM   13  N   UNL     1      40.366  -9.900   7.851  1.00  0.00    -0.359 N 
HETATM   14  H   UNL     1      41.049  -9.184   7.609  1.00  0.00     0.162 HD
HETATM   15  O   UNL     1      39.096 -11.568   6.942  1.00  0.00    -0.273 OA
BRANCH  13  16
HETATM   16  C   UNL     1      39.381  -9.464   8.851  1.00  0.00     0.150 C 
BRANCH  16  17
HETATM   17  C   UNL     1      39.628  -9.866  10.321  1.00  0.00     0.254 C 
BRANCH  17  18
HETATM   18  N   UNL     1      41.062  -9.608  10.753  1.00  0.00    -0.070 N 
HETATM   19  H   UNL     1      41.645 -10.224  10.172  1.00  0.00     0.279 HD
HETATM   20  C   UNL     1      41.501  -8.178  10.527  1.00  0.00     0.235 C 
HETATM   21  C   UNL     1      42.968  -8.024  10.903  1.00  0.00     0.028 C 
HETATM   22  C   UNL     1      43.232  -8.462  12.338  1.00  0.00     0.003 C 
HETATM   23  C   UNL     1      42.731  -9.881  12.575  1.00  0.00     0.028 C 
HETATM   24  C   UNL     1      41.266 -10.032  12.196  1.00  0.00     0.235 C 
ENDBRANCH  17  18
ENDBRANCH  16  17
ENDBRANCH  13  16
ENDBRANCH  11  12
ENDBRANCH   3  11
BRANCH   1  25
HETATM   25  C   UNL     1      42.024 -13.433   4.623  1.00  0.00    -0.030 A 
HETATM   26  C   UNL     1      41.020 -14.259   5.170  1.00  0.00     0.016 A 
HETATM   27  C   UNL     1      41.238 -14.987   6.345  1.00  0.00    -0.061 A 
HETATM   28  C   UNL     1      40.146 -15.847   6.916  1.00  0.00     0.048 C 
HETATM   29  C   UNL     1      42.454 -14.838   7.014  1.00  0.00     0.007 A 
HETATM   30  C   UNL     1      43.441 -13.990   6.510  1.00  0.00     0.001 A 
HETATM   31  C   UNL     1      43.233 -13.290   5.321  1.00  0.00     0.009 A 
ENDBRANCH   1  25
BRANCH  10  32
HETATM   32  C   UNL     1      42.720 -14.685   2.067  1.00  0.00     0.294 C 
HETATM   33  O   UNL     1      43.865 -14.434   1.743  1.00  0.00    -0.259 OA
BRANCH  32  34
HETATM   34  O   UNL     1      42.207 -15.845   2.534  1.00  0.00    -0.313 OA
BRANCH  34  35
HETATM   35  C   UNL     1      43.123 -16.936   2.759  1.00  0.00     0.124 C 
HETATM   36  C   UNL     1      43.288 -17.063   4.269  1.00  0.00     0.040 C 
HETATM   37  C   UNL     1      42.534 -18.214   2.175  1.00  0.00     0.040 C 
ENDBRANCH  34  35
ENDBRANCH  32  34
ENDBRANCH  10  32
TORSDOF 9
ENDMDL
MODEL 7
REMARK VINA RESULT:      -7.4      2.508      8.055
REMARK  9 active torsions:
REMARK  status: ('A' for Active; 'I' for Inactive)
REMARK    1  A    between atoms: C_4  and  C_5 
REMARK    2  A    between atoms: C_7  and  C_8 
REMARK    3  A    between atoms: C_8  and  C_9 
REMARK       I    between atoms: C_9  and  N_10 
REMARK    4  A    between atoms: N_10  and  C_11 
REMARK    5  A    between atoms: C_11  and  C_12 
REMARK    6  A    between atoms: C_12  and  N_13 
REMARK    7  A    between atoms: C_27  and  C_28 
REMARK    8  A    between atoms: C_28  and  O_29 
REMARK    9  A    between atoms: O_29  and  C_30 
ROOT
HETATM    1  C   UNL     1      40.115 -14.043   3.194  1.00  0.00     0.166 C 
HETATM    2  N   UNL     1      39.621 -13.086   2.155  1.00  0.00    -0.319 N 
HETATM    3  C   UNL     1      39.461 -13.132   0.866  1.00  0.00     0.011 C 
HETATM    4  C   UNL     1      39.169 -11.712   2.721  1.00  0.00     0.170 C 
HETATM    5  S   UNL     1      38.543 -10.663   1.494  1.00  0.00    -0.086 SA
HETATM    6  C   UNL     1      39.023 -11.835   0.212  1.00  0.00     0.135 C 
HETATM    7  N   UNL     1      39.240 -11.334   3.945  1.00  0.00    -0.229 NA
HETATM    8  C   UNL     1      39.802 -12.178   4.868  1.00  0.00     0.048 C 
HETATM    9  C   UNL     1      39.817 -11.603   6.269  1.00  0.00     0.071 C 
HETATM   10  C   UNL     1      40.255 -13.407   4.550  1.00  0.00     0.069 C 
ENDROOT
BRANCH   3  11
HETATM   11  C   UNL     1      39.837 -14.337   0.040  1.00  0.00     0.156 C 
BRANCH  11  12
HETATM   12  C   UNL     1      39.579 -14.200  -1.448  1.00  0.00     0.223 C 
HETATM   13  N   UNL     1      38.260 -14.330  -1.832  1.00  0.00    -0.359 N 
HETATM   14  H   UNL     1      37.574 -14.353  -1.080  1.00  0.00     0.162 HD
HETATM   15  O   UNL     1      40.480 -13.981  -2.246  1.00  0.00    -0.273 OA
BRANCH  13  16
HETATM   16  C   UNL     1      37.760 -13.717  -3.070  1.00  0.00     0.150 C 
BRANCH  16  17
HETATM   17  C   UNL     1      36.562 -12.750  -2.958  1.00  0.00     0.254 C 
BRANCH  17  18
HETATM   18  N   UNL     1      36.978 -11.298  -3.134  1.00  0.00    -0.070 N 
HETATM   19  H   UNL     1      36.598 -11.007  -4.044  1.00  0.00     0.279 HD
HETATM   20  C   UNL     1      36.415 -10.388  -2.064  1.00  0.00     0.235 C 
HETATM   21  C   UNL     1      36.804  -8.946  -2.360  1.00  0.00     0.028 C 
HETATM   22  C   UNL     1      38.314  -8.783  -2.485  1.00  0.00     0.003 C 
HETATM   23  C   UNL     1      38.881  -9.746  -3.519  1.00  0.00     0.028 C 
HETATM   24  C   UNL     1      38.489 -11.186  -3.223  1.00  0.00     0.235 C 
ENDBRANCH  17  18
ENDBRANCH  16  17
ENDBRANCH  13  16
ENDBRANCH  11  12
ENDBRANCH   3  11
BRANCH   1  25
HETATM   25  C   UNL     1      41.385 -14.745   2.720  1.00  0.00    -0.030 A 
HETATM   26  C   UNL     1      41.435 -16.155   2.740  1.00  0.00     0.016 A 
HETATM   27  C   UNL     1      42.551 -16.850   2.259  1.00  0.00    -0.061 A 
HETATM   28  C   UNL     1      42.586 -18.351   2.307  1.00  0.00     0.048 C 
HETATM   29  C   UNL     1      43.654 -16.122   1.808  1.00  0.00     0.007 A 
HETATM   30  C   UNL     1      43.637 -14.727   1.823  1.00  0.00     0.001 A 
HETATM   31  C   UNL     1      42.511 -14.037   2.274  1.00  0.00     0.009 A 
ENDBRANCH   1  25
BRANCH  10  32
HETATM   32  C   UNL     1      40.913 -14.254   5.570  1.00  0.00     0.294 C 
HETATM   33  O   UNL     1      40.316 -15.114   6.191  1.00  0.00    -0.259 OA
BRANCH  32  34
HETATM   34  O   UNL     1      42.234 -13.975   5.569  1.00  0.00    -0.313 OA
BRANCH  34  35
HETATM   35  C   UNL     1      42.969 -14.223   6.785  1.00  0.00     0.124 C 
HETATM   36  C   UNL     1      43.884 -15.410   6.508  1.00  0.00     0.040 C 
HETATM   37  C   UNL     1      43.788 -12.987   7.137  1.00  0.00     0.040 C 
ENDBRANCH  34  35
ENDBRANCH  32  34
ENDBRANCH  10  32
TORSDOF 9
ENDMDL
MODEL 8
REMARK VINA RESULT:      -7.3      4.276      7.318
REMARK  9 active torsions:
REMARK  status: ('A' for Active; 'I' for Inactive)
REMARK    1  A    between atoms: C_4  and  C_5 
REMARK    2  A    between atoms: C_7  and  C_8 
REMARK    3  A    between atoms: C_8  and  C_9 
REMARK       I    between atoms: C_9  and  N_10 
REMARK    4  A    between atoms: N_10  and  C_11 
REMARK    5  A    between atoms: C_11  and  C_12 
REMARK    6  A    between atoms: C_12  and  N_13 
REMARK    7  A    between atoms: C_27  and  C_28 
REMARK    8  A    between atoms: C_28  and  O_29 
REMARK    9  A    between atoms: O_29  and  C_30 
ROOT
HETATM    1  C   UNL     1      42.163  -9.811   7.166  1.00  0.00     0.166 C 
HETATM    2  N   UNL     1      42.555 -10.610   5.965  1.00  0.00    -0.319 N 
HETATM    3  C   UNL     1      43.147 -11.752   5.774  1.00  0.00     0.011 C 
HETATM    4  C   UNL     1      42.158  -9.958   4.611  1.00  0.00     0.170 C 
HETATM    5  S   UNL     1      42.570 -10.948   3.252  1.00  0.00    -0.086 SA
HETATM    6  C   UNL     1      43.436 -12.107   4.327  1.00  0.00     0.135 C 
HETATM    7  N   UNL     1      41.601  -8.813   4.454  1.00  0.00    -0.229 NA
HETATM    8  C   UNL     1      41.353  -8.040   5.559  1.00  0.00     0.048 C 
HETATM    9  C   UNL     1      40.692  -6.719   5.224  1.00  0.00     0.071 C 
HETATM   10  C   UNL     1      41.639  -8.446   6.811  1.00  0.00     0.069 C 
ENDROOT
BRANCH   3  11
HETATM   11  C   UNL     1      43.664 -12.601   6.907  1.00  0.00     0.156 C 
BRANCH  11  12
HETATM   12  C   UNL     1      43.324 -14.076   6.810  1.00  0.00     0.223 C 
HETATM   13  N   UNL     1      42.016 -14.401   7.105  1.00  0.00    -0.359 N 
HETATM   14  H   UNL     1      41.373 -13.618   7.210  1.00  0.00     0.162 HD
HETATM   15  O   UNL     1      44.155 -14.913   6.483  1.00  0.00    -0.273 OA
BRANCH  13  16
HETATM   16  C   UNL     1      41.389 -15.614   6.564  1.00  0.00     0.150 C 
BRANCH  16  17
HETATM   17  C   UNL     1      40.827 -15.551   5.128  1.00  0.00     0.254 C 
BRANCH  17  18
HETATM   18  N   UNL     1      41.926 -15.592   4.079  1.00  0.00    -0.070 N 
HETATM   19  H   UNL     1      42.713 -15.065   4.477  1.00  0.00     0.279 HD
HETATM   20  C   UNL     1      42.395 -16.997   3.768  1.00  0.00     0.235 C 
HETATM   21  C   UNL     1      43.551 -16.946   2.778  1.00  0.00     0.028 C 
HETATM   22  C   UNL     1      43.171 -16.198   1.506  1.00  0.00     0.003 C 
HETATM   23  C   UNL     1      42.641 -14.807   1.831  1.00  0.00     0.028 C 
HETATM   24  C   UNL     1      41.489 -14.860   2.822  1.00  0.00     0.235 C 
ENDBRANCH  17  18
ENDBRANCH  16  17
ENDBRANCH  13  16
ENDBRANCH  11  12
ENDBRANCH   3  11
BRANCH   1  25
HETATM   25  C   UNL     1      43.299  -9.777   8.186  1.00  0.00    -0.030 A 
HETATM   26  C   UNL     1      43.076 -10.301   9.476  1.00  0.00     0.016 A 
HETATM   27  C   UNL     1      44.101 -10.352  10.428  1.00  0.00    -0.061 A 
HETATM   28  C   UNL     1      43.833 -10.900  11.801  1.00  0.00     0.048 C 
HETATM   29  C   UNL     1      45.349  -9.815  10.103  1.00  0.00     0.007 A 
HETATM   30  C   UNL     1      45.572  -9.253   8.846  1.00  0.00     0.001 A 
HETATM   31  C   UNL     1      44.558  -9.232   7.888  1.00  0.00     0.009 A 
ENDBRANCH   1  25
BRANCH  10  32
HETATM   32  C   UNL     1      41.412  -7.547   7.965  1.00  0.00     0.294 C 
HETATM   33  O   UNL     1      42.064  -6.536   8.146  1.00  0.00    -0.259 OA
BRANCH  32  34
HETATM   34  O   UNL     1      40.330  -7.989   8.643  1.00  0.00    -0.313 OA
BRANCH  34  35
HETATM   35  C   UNL     1      40.127  -7.481   9.978  1.00  0.00     0.124 C 
HETATM   36  C   UNL     1      38.699  -6.950  10.031  1.00  0.00     0.040 C 
HETATM   37  C   UNL     1      40.315  -8.614  10.979  1.00  0.00     0.040 C 
ENDBRANCH  34  35
ENDBRANCH  32  34
ENDBRANCH  10  32
TORSDOF 9
ENDMDL
MODEL 9
REMARK VINA RESULT:      -7.1      4.438      8.231
REMARK  9 active torsions:
REMARK  status: ('A' for Active; 'I' for Inactive)
REMARK    1  A    between atoms: C_4  and  C_5 
REMARK    2  A    between atoms: C_7  and  C_8 
REMARK    3  A    between atoms: C_8  and  C_9 
REMARK       I    between atoms: C_9  and  N_10 
REMARK    4  A    between atoms: N_10  and  C_11 
REMARK    5  A    between atoms: C_11  and  C_12 
REMARK    6  A    between atoms: C_12  and  N_13 
REMARK    7  A    between atoms: C_27  and  C_28 
REMARK    8  A    between atoms: C_28  and  O_29 
REMARK    9  A    between atoms: O_29  and  C_30 
ROOT
HETATM    1  C   UNL     1      43.049  -9.451   7.083  1.00  0.00     0.166 C 
HETATM    2  N   UNL     1      43.066 -10.851   6.557  1.00  0.00    -0.319 N 
HETATM    3  C   UNL     1      42.527 -11.458   5.541  1.00  0.00     0.011 C 
HETATM    4  C   UNL     1      43.942 -11.830   7.387  1.00  0.00     0.170 C 
HETATM    5  S   UNL     1      43.987 -13.420   6.703  1.00  0.00    -0.086 SA
HETATM    6  C   UNL     1      42.747 -12.958   5.481  1.00  0.00     0.135 C 
HETATM    7  N   UNL     1      44.571 -11.555   8.470  1.00  0.00    -0.229 NA
HETATM    8  C   UNL     1      44.453 -10.298   9.004  1.00  0.00     0.048 C 
HETATM    9  C   UNL     1      45.250 -10.115  10.279  1.00  0.00     0.071 C 
HETATM   10  C   UNL     1      43.726  -9.324   8.420  1.00  0.00     0.069 C 
ENDROOT
BRANCH   3  11
HETATM   11  C   UNL     1      41.606 -10.762   4.571  1.00  0.00     0.156 C 
BRANCH  11  12
HETATM   12  C   UNL     1      40.283 -11.461   4.328  1.00  0.00     0.223 C 
HETATM   13  N   UNL     1      40.093 -11.936   3.047  1.00  0.00    -0.359 N 
HETATM   14  H   UNL     1      40.905 -11.908   2.434  1.00  0.00     0.162 HD
HETATM   15  O   UNL     1      39.450 -11.600   5.214  1.00  0.00    -0.273 OA
BRANCH  13  16
HETATM   16  C   UNL     1      39.183 -13.056   2.773  1.00  0.00     0.150 C 
BRANCH  16  17
HETATM   17  C   UNL     1      39.721 -14.225   1.921  1.00  0.00     0.254 C 
BRANCH  17  18
HETATM   18  N   UNL     1      41.011 -14.799   2.484  1.00  0.00    -0.070 N 
HETATM   19  H   UNL     1      41.465 -14.026   2.987  1.00  0.00     0.279 HD
HETATM   20  C   UNL     1      40.779 -15.935   3.456  1.00  0.00     0.235 C 
HETATM   21  C   UNL     1      42.108 -16.395   4.037  1.00  0.00     0.028 C 
HETATM   22  C   UNL     1      43.093 -16.795   2.946  1.00  0.00     0.003 C 
HETATM   23  C   UNL     1      43.275 -15.669   1.937  1.00  0.00     0.028 C 
HETATM   24  C   UNL     1      41.945 -15.210   1.359  1.00  0.00     0.235 C 
ENDBRANCH  17  18
ENDBRANCH  16  17
ENDBRANCH  13  16
ENDBRANCH  11  12
ENDBRANCH   3  11
BRANCH   1  25
HETATM   25  C   UNL     1      41.631  -8.886   7.067  1.00  0.00    -0.030 A 
HETATM   26  C   UNL     1      41.364  -7.728   6.307  1.00  0.00     0.016 A 
HETATM   27  C   UNL     1      40.069  -7.206   6.208  1.00  0.00    -0.061 A 
HETATM   28  C   UNL     1      39.814  -5.961   5.406  1.00  0.00     0.048 C 
HETATM   29  C   UNL     1      39.040  -7.816   6.928  1.00  0.00     0.007 A 
HETATM   30  C   UNL     1      39.296  -8.936   7.720  1.00  0.00     0.001 A 
HETATM   31  C   UNL     1      40.582  -9.473   7.792  1.00  0.00     0.009 A 
ENDBRANCH   1  25
BRANCH  10  32
HETATM   32  C   UNL     1      43.577  -8.003   9.071  1.00  0.00     0.294 C 
HETATM   33  O   UNL     1      44.145  -7.006   8.668  1.00  0.00    -0.259 OA
BRANCH  32  34
HETATM   34  O   UNL     1      42.651  -8.112  10.049  1.00  0.00    -0.313 OA
BRANCH  34  35
HETATM   35  C   UNL     1      42.768  -7.223  11.180  1.00  0.00     0.124 C 
HETATM   36  C   UNL     1      41.413  -6.545  11.343  1.00  0.00     0.040 C 
HETATM   37  C   UNL     1      43.114  -8.035  12.422  1.00  0.00     0.040 C 
ENDBRANCH  34  35
ENDBRANCH  32  34
ENDBRANCH  10  32
TORSDOF 9
ENDMDL
MODEL 10
REMARK VINA RESULT:      -7.1      3.326      6.333
REMARK  9 active torsions:
REMARK  status: ('A' for Active; 'I' for Inactive)
REMARK    1  A    between atoms: C_4  and  C_5 
REMARK    2  A    between atoms: C_7  and  C_8 
REMARK    3  A    between atoms: C_8  and  C_9 
REMARK       I    between atoms: C_9  and  N_10 
REMARK    4  A    between atoms: N_10  and  C_11 
REMARK    5  A    between atoms: C_11  and  C_12 
REMARK    6  A    between atoms: C_12  and  N_13 
REMARK    7  A    between atoms: C_27  and  C_28 
REMARK    8  A    between atoms: C_28  and  O_29 
REMARK    9  A    between atoms: O_29  and  C_30 
ROOT
HETATM    1  C   UNL     1      40.520 -14.023   3.472  1.00  0.00     0.166 C 
HETATM    2  N   UNL     1      41.346 -13.639   4.659  1.00  0.00    -0.319 N 
HETATM    3  C   UNL     1      41.179 -12.849   5.678  1.00  0.00     0.011 C 
HETATM    4  C   UNL     1      42.727 -14.348   4.727  1.00  0.00     0.170 C 
HETATM    5  S   UNL     1      43.619 -13.926   6.150  1.00  0.00    -0.086 SA
HETATM    6  C   UNL     1      42.380 -12.694   6.591  1.00  0.00     0.135 C 
HETATM    7  N   UNL     1      43.212 -15.152   3.854  1.00  0.00    -0.229 NA
HETATM    8  C   UNL     1      42.493 -15.405   2.714  1.00  0.00     0.048 C 
HETATM    9  C   UNL     1      43.185 -16.372   1.776  1.00  0.00     0.071 C 
HETATM   10  C   UNL     1      41.278 -14.869   2.486  1.00  0.00     0.069 C 
ENDROOT
BRANCH   3  11
HETATM   11  C   UNL     1      39.939 -12.012   5.865  1.00  0.00     0.156 C 
BRANCH  11  12
HETATM   12  C   UNL     1      40.193 -10.570   6.261  1.00  0.00     0.223 C 
HETATM   13  N   UNL     1      39.792 -10.229   7.536  1.00  0.00    -0.359 N 
HETATM   14  H   UNL     1      39.507 -11.000   8.137  1.00  0.00     0.162 HD
HETATM   15  O   UNL     1      40.725  -9.772   5.501  1.00  0.00    -0.273 OA
BRANCH  13  16
HETATM   16  C   UNL     1      40.413  -9.112   8.260  1.00  0.00     0.150 C 
BRANCH  16  17
HETATM   17  C   UNL     1      40.830  -9.353   9.727  1.00  0.00     0.254 C 
BRANCH  17  18
HETATM   18  N   UNL     1      42.206  -9.988   9.837  1.00  0.00    -0.070 N 
HETATM   19  H   UNL     1      42.055 -11.001   9.752  1.00  0.00     0.279 HD
HETATM   20  C   UNL     1      43.149  -9.550   8.737  1.00  0.00     0.235 C 
HETATM   21  C   UNL     1      44.471 -10.293   8.867  1.00  0.00     0.028 C 
HETATM   22  C   UNL     1      45.097 -10.095  10.242  1.00  0.00     0.003 C 
HETATM   23  C   UNL     1      44.120 -10.480  11.345  1.00  0.00     0.028 C 
HETATM   24  C   UNL     1      42.799  -9.738  11.212  1.00  0.00     0.235 C 
ENDBRANCH  17  18
ENDBRANCH  16  17
ENDBRANCH  13  16
ENDBRANCH  11  12
ENDBRANCH   3  11
BRANCH   1  25
HETATM   25  C   UNL     1      39.874 -12.791   2.843  1.00  0.00    -0.030 A 
HETATM   26  C   UNL     1      40.685 -11.683   2.520  1.00  0.00     0.016 A 
HETATM   27  C   UNL     1      40.154 -10.554   1.885  1.00  0.00    -0.061 A 
HETATM   28  C   UNL     1      41.035  -9.380   1.567  1.00  0.00     0.048 C 
HETATM   29  C   UNL     1      38.782 -10.510   1.625  1.00  0.00     0.007 A 
HETATM   30  C   UNL     1      37.959 -11.580   1.978  1.00  0.00     0.001 A 
HETATM   31  C   UNL     1      38.497 -12.717   2.583  1.00  0.00     0.009 A 
ENDBRANCH   1  25
BRANCH  10  32
HETATM   32  C   UNL     1      40.571 -15.122   1.210  1.00  0.00     0.294 C 
HETATM   33  O   UNL     1      39.642 -15.902   1.120  1.00  0.00    -0.259 OA
BRANCH  32  34
HETATM   34  O   UNL     1      41.059 -14.275   0.277  1.00  0.00    -0.313 OA
BRANCH  34  35
HETATM   35  C   UNL     1      40.107 -13.579  -0.554  1.00  0.00     0.124 C 
HETATM   36  C   UNL     1      40.831 -12.365  -1.124  1.00  0.00     0.040 C 
HETATM   37  C   UNL     1      39.649 -14.504  -1.675  1.00  0.00     0.040 C 
ENDBRANCH  34  35
ENDBRANCH  32  34
ENDBRANCH  10  32
TORSDOF 9
ENDMDL
