MODEL 1
REMARK VINA RESULT:      -8.2      0.000      0.000
REMARK  7 active torsions:
REMARK  status: ('A' for Active; 'I' for Inactive)
REMARK    1  A    between atoms: C_2  and  N_3 
REMARK    2  A    between atoms: C_4  and  C_5 
REMARK       I    between atoms: C_5  and  N_6 
REMARK    3  A    between atoms: N_6  and  C_7 
REMARK    4  A    between atoms: C_7  and  C_8 
REMARK    5  A    between atoms: C_19  and  N_20 
REMARK       I    between atoms: N_20  and  C_21 
REMARK    6  A    between atoms: C_21  and  C_22 
REMARK    7  A    between atoms: C_25  and  O_26 
ROOT
HETATM    1  N   UNL     1      43.648 -10.436   7.184  1.00  0.00    -0.342 N 
HETATM    2  C   UNL     1      42.577  -9.682   7.642  1.00  0.00     0.104 A 
HETATM    3  C   UNL     1      41.620  -9.724   6.638  1.00  0.00     0.049 A 
HETATM    4  C   UNL     1      42.126 -10.472   5.549  1.00  0.00    -0.005 A 
HETATM    5  C   UNL     1      43.408 -10.889   5.894  1.00  0.00     0.045 A 
HETATM    6  C   UNL     1      41.594 -10.827   4.291  1.00  0.00     0.043 A 
HETATM    7  C   UNL     1      42.353 -11.583   3.394  1.00  0.00     0.035 A 
HETATM    8  C   UNL     1      43.649 -11.964   3.753  1.00  0.00     0.032 A 
HETATM    9  C   UNL     1      44.197 -11.633   5.002  1.00  0.00     0.033 A 
ENDROOT
BRANCH   7  10
HETATM   10  N   UNL     1      41.885 -11.979   2.121  1.00  0.00    -0.323 N 
HETATM   11  C   UNL     1      41.085 -13.072   1.838  1.00  0.00     0.256 C 
HETATM   12  O   UNL     1      40.699 -13.930   2.621  1.00  0.00    -0.267 OA
HETATM   13  H   UNL     1      42.250 -11.460   1.334  1.00  0.00     0.169 HD
BRANCH  11  14
HETATM   14  C   UNL     1      40.707 -13.220   0.408  1.00  0.00     0.032 A 
HETATM   15  C   UNL     1      40.013 -14.369   0.017  1.00  0.00     0.020 A 
HETATM   16  C   UNL     1      39.607 -14.521  -1.310  1.00  0.00     0.038 A 
HETATM   17  C   UNL     1      39.861 -13.517  -2.246  1.00  0.00     0.068 A 
HETATM   18  C   UNL     1      40.560 -12.371  -1.858  1.00  0.00     0.038 A 
HETATM   19  C   UNL     1      40.981 -12.218  -0.532  1.00  0.00     0.020 A 
BRANCH  17  20
HETATM   20  O   UNL     1      39.394 -13.774  -3.506  1.00  0.00    -0.356 OA
HETATM   21  C   UNL     1      38.223 -14.579  -3.587  1.00  0.00     0.210 C 
ENDBRANCH  17  20
ENDBRANCH  11  14
ENDBRANCH   7  10
BRANCH   2  22
HETATM   22  C   UNL     1      42.499  -9.014   8.932  1.00  0.00     0.268 C 
HETATM   23  N   UNL     1      41.909  -9.780   9.917  1.00  0.00    -0.353 N 
HETATM   24  H   UNL     1      41.452 -10.634   9.633  1.00  0.00     0.162 HD
HETATM   25  O   UNL     1      42.910  -7.878   9.139  1.00  0.00    -0.266 OA
BRANCH  23  26
HETATM   26  C   UNL     1      41.588  -9.236  11.224  1.00  0.00     0.160 C 
BRANCH  26  27
HETATM   27  C   UNL     1      42.670  -9.518  12.304  1.00  0.00     0.073 C 
HETATM   28  O   UNL     1      42.052  -9.768  13.581  1.00  0.00    -0.379 OA
HETATM   29  C   UNL     1      42.024  -8.547  14.335  1.00  0.00     0.169 C 
HETATM   30  C   UNL     1      42.715  -7.478  13.513  1.00  0.00     0.029 C 
HETATM   31  C   UNL     1      43.542  -8.284  12.540  1.00  0.00     0.041 C 
HETATM   32  C   UNL     1      43.515 -10.736  11.936  1.00  0.00     0.047 C 
ENDBRANCH  26  27
ENDBRANCH  23  26
ENDBRANCH   2  22
BRANCH   1  33
HETATM   33  C   UNL     1      44.870 -10.702   7.931  1.00  0.00     0.125 C 
HETATM   34  C   UNL     1      45.922  -9.626   7.730  1.00  0.00     0.027 C 
ENDBRANCH   1  33
TORSDOF 7
ENDMDL
MODEL 2
REMARK VINA RESULT:      -8.1      4.258      5.245
REMARK  7 active torsions:
REMARK  status: ('A' for Active; 'I' for Inactive)
REMARK    1  A    between atoms: C_2  and  N_3 
REMARK    2  A    between atoms: C_4  and  C_5 
REMARK       I    between atoms: C_5  and  N_6 
REMARK    3  A    between atoms: N_6  and  C_7 
REMARK    4  A    between atoms: C_7  and  C_8 
REMARK    5  A    between atoms: C_19  and  N_20 
REMARK       I    between atoms: N_20  and  C_21 
REMARK    6  A    between atoms: C_21  and  C_22 
REMARK    7  A    between atoms: C_25  and  O_26 
ROOT
HETATM    1  N   UNL     1      42.602  -9.553   7.037  1.00  0.00    -0.342 N 
HETATM    2  C   UNL     1      43.576  -9.444   8.019  1.00  0.00     0.104 A 
HETATM    3  C   UNL     1      44.237 -10.665   8.043  1.00  0.00     0.049 A 
HETATM    4  C   UNL     1      43.636 -11.532   7.099  1.00  0.00    -0.005 A 
HETATM    5  C   UNL     1      42.596 -10.831   6.496  1.00  0.00     0.045 A 
HETATM    6  C   UNL     1      43.895 -12.864   6.711  1.00  0.00     0.043 A 
HETATM    7  C   UNL     1      43.106 -13.479   5.736  1.00  0.00     0.035 A 
HETATM    8  C   UNL     1      42.049 -12.763   5.167  1.00  0.00     0.032 A 
HETATM    9  C   UNL     1      41.778 -11.434   5.528  1.00  0.00     0.033 A 
ENDROOT
BRANCH   7  10
HETATM   10  N   UNL     1      43.309 -14.805   5.293  1.00  0.00    -0.323 N 
HETATM   11  C   UNL     1      43.037 -15.963   6.001  1.00  0.00     0.256 C 
HETATM   12  O   UNL     1      42.642 -16.050   7.156  1.00  0.00    -0.267 OA
HETATM   13  H   UNL     1      43.786 -14.908   4.408  1.00  0.00     0.169 HD
BRANCH  11  14
HETATM   14  C   UNL     1      43.309 -17.226   5.265  1.00  0.00     0.032 A 
HETATM   15  C   UNL     1      43.268 -17.205   3.867  1.00  0.00     0.020 A 
HETATM   16  C   UNL     1      43.557 -18.363   3.144  1.00  0.00     0.038 A 
HETATM   17  C   UNL     1      43.919 -19.538   3.805  1.00  0.00     0.068 A 
HETATM   18  C   UNL     1      43.954 -19.562   5.202  1.00  0.00     0.038 A 
HETATM   19  C   UNL     1      43.653 -18.407   5.933  1.00  0.00     0.020 A 
BRANCH  17  20
HETATM   20  O   UNL     1      44.201 -20.596   2.985  1.00  0.00    -0.356 OA
HETATM   21  C   UNL     1      43.622 -20.552   1.686  1.00  0.00     0.210 C 
ENDBRANCH  17  20
ENDBRANCH  11  14
ENDBRANCH   7  10
BRANCH   2  22
HETATM   22  C   UNL     1      43.838  -8.264   8.828  1.00  0.00     0.268 C 
HETATM   23  N   UNL     1      43.022  -8.160   9.936  1.00  0.00    -0.353 N 
HETATM   24  H   UNL     1      42.238  -8.793   9.998  1.00  0.00     0.162 HD
HETATM   25  O   UNL     1      44.697  -7.430   8.562  1.00  0.00    -0.266 OA
BRANCH  23  26
HETATM   26  C   UNL     1      43.013  -6.975  10.775  1.00  0.00     0.160 C 
BRANCH  26  27
HETATM   27  C   UNL     1      42.270  -7.169  12.126  1.00  0.00     0.073 C 
HETATM   28  O   UNL     1      41.139  -8.046  11.957  1.00  0.00    -0.379 OA
HETATM   29  C   UNL     1      39.960  -7.254  11.747  1.00  0.00     0.169 C 
HETATM   30  C   UNL     1      40.357  -5.795  11.848  1.00  0.00     0.029 C 
HETATM   31  C   UNL     1      41.660  -5.852  12.609  1.00  0.00     0.041 C 
HETATM   32  C   UNL     1      43.191  -7.777  13.182  1.00  0.00     0.047 C 
ENDBRANCH  26  27
ENDBRANCH  23  26
ENDBRANCH   2  22
BRANCH   1  33
HETATM   33  C   UNL     1      41.689  -8.491   6.637  1.00  0.00     0.125 C 
HETATM   34  C   UNL     1      40.385  -8.518   7.415  1.00  0.00     0.027 C 
ENDBRANCH   1  33
TORSDOF 7
ENDMDL
MODEL 3
REMARK VINA RESULT:      -8.0      3.677      4.944
REMARK  7 active torsions:
REMARK  status: ('A' for Active; 'I' for Inactive)
REMARK    1  A    between atoms: C_2  and  N_3 
REMARK    2  A    between atoms: C_4  and  C_5 
REMARK       I    between atoms: C_5  and  N_6 
REMARK    3  A    between atoms: N_6  and  C_7 
REMARK    4  A    between atoms: C_7  and  C_8 
REMARK    5  A    between atoms: C_19  and  N_20 
REMARK       I    between atoms: N_20  and  C_21 
REMARK    6  A    between atoms: C_21  and  C_22 
REMARK    7  A    between atoms: C_25  and  O_26 
ROOT
HETATM    1  N   UNL     1      42.391  -9.513   7.012  1.00  0.00    -0.342 N 
HETATM    2  C   UNL     1      43.367  -9.457   7.997  1.00  0.00     0.104 A 
HETATM    3  C   UNL     1      44.004 -10.690   7.977  1.00  0.00     0.049 A 
HETATM    4  C   UNL     1      43.387 -11.512   7.004  1.00  0.00    -0.005 A 
HETATM    5  C   UNL     1      42.361 -10.770   6.427  1.00  0.00     0.045 A 
HETATM    6  C   UNL     1      43.620 -12.834   6.570  1.00  0.00     0.043 A 
HETATM    7  C   UNL     1      42.819 -13.398   5.573  1.00  0.00     0.035 A 
HETATM    8  C   UNL     1      41.776 -12.642   5.030  1.00  0.00     0.032 A 
HETATM    9  C   UNL     1      41.532 -11.322   5.438  1.00  0.00     0.033 A 
ENDROOT
BRANCH   7  10
HETATM   10  N   UNL     1      42.997 -14.712   5.084  1.00  0.00    -0.323 N 
HETATM   11  C   UNL     1      43.145 -15.089   3.761  1.00  0.00     0.256 C 
HETATM   12  O   UNL     1      43.077 -14.369   2.774  1.00  0.00    -0.267 OA
HETATM   13  H   UNL     1      42.916 -15.453   5.768  1.00  0.00     0.169 HD
BRANCH  11  14
HETATM   14  C   UNL     1      43.363 -16.544   3.544  1.00  0.00     0.032 A 
HETATM   15  C   UNL     1      43.959 -17.288   4.567  1.00  0.00     0.020 A 
HETATM   16  C   UNL     1      44.142 -18.663   4.412  1.00  0.00     0.038 A 
HETATM   17  C   UNL     1      43.706 -19.309   3.254  1.00  0.00     0.068 A 
HETATM   18  C   UNL     1      43.117 -18.565   2.228  1.00  0.00     0.038 A 
HETATM   19  C   UNL     1      42.941 -17.183   2.372  1.00  0.00     0.020 A 
BRANCH  17  20
HETATM   20  O   UNL     1      43.922 -20.659   3.232  1.00  0.00    -0.356 OA
HETATM   21  C   UNL     1      44.005 -21.300   4.500  1.00  0.00     0.210 C 
ENDBRANCH  17  20
ENDBRANCH  11  14
ENDBRANCH   7  10
BRANCH   2  22
HETATM   22  C   UNL     1      43.652  -8.312   8.847  1.00  0.00     0.268 C 
HETATM   23  N   UNL     1      42.888  -8.270   9.996  1.00  0.00    -0.353 N 
HETATM   24  H   UNL     1      42.116  -8.917  10.065  1.00  0.00     0.162 HD
HETATM   25  O   UNL     1      44.486  -7.453   8.580  1.00  0.00    -0.266 OA
BRANCH  23  26
HETATM   26  C   UNL     1      42.903  -7.126  10.889  1.00  0.00     0.160 C 
BRANCH  26  27
HETATM   27  C   UNL     1      42.228  -7.393  12.263  1.00  0.00     0.073 C 
HETATM   28  O   UNL     1      41.347  -8.530  12.178  1.00  0.00    -0.379 OA
HETATM   29  C   UNL     1      40.010  -8.070  11.930  1.00  0.00     0.169 C 
HETATM   30  C   UNL     1      40.037  -6.555  11.917  1.00  0.00     0.029 C 
HETATM   31  C   UNL     1      41.313  -6.234  12.657  1.00  0.00     0.041 C 
HETATM   32  C   UNL     1      43.269  -7.675  13.345  1.00  0.00     0.047 C 
ENDBRANCH  26  27
ENDBRANCH  23  26
ENDBRANCH   2  22
BRANCH   1  33
HETATM   33  C   UNL     1      41.499  -8.419   6.650  1.00  0.00     0.125 C 
HETATM   34  C   UNL     1      40.205  -8.435   7.444  1.00  0.00     0.027 C 
ENDBRANCH   1  33
TORSDOF 7
ENDMDL
MODEL 4
REMARK VINA RESULT:      -7.7      3.805      4.629
REMARK  7 active torsions:
REMARK  status: ('A' for Active; 'I' for Inactive)
REMARK    1  A    between atoms: C_2  and  N_3 
REMARK    2  A    between atoms: C_4  and  C_5 
REMARK       I    between atoms: C_5  and  N_6 
REMARK    3  A    between atoms: N_6  and  C_7 
REMARK    4  A    between atoms: C_7  and  C_8 
REMARK    5  A    between atoms: C_19  and  N_20 
REMARK       I    between atoms: N_20  and  C_21 
REMARK    6  A    between atoms: C_21  and  C_22 
REMARK    7  A    between atoms: C_25  and  O_26 
ROOT
HETATM    1  N   UNL     1      43.699  -9.247   8.246  1.00  0.00    -0.342 N 
HETATM    2  C   UNL     1      42.460  -8.675   7.993  1.00  0.00     0.104 A 
HETATM    3  C   UNL     1      41.799  -9.550   7.142  1.00  0.00     0.049 A 
HETATM    4  C   UNL     1      42.654 -10.638   6.844  1.00  0.00    -0.005 A 
HETATM    5  C   UNL     1      43.851 -10.421   7.522  1.00  0.00     0.045 A 
HETATM    6  C   UNL     1      42.505 -11.793   6.048  1.00  0.00     0.043 A 
HETATM    7  C   UNL     1      43.555 -12.707   5.931  1.00  0.00     0.035 A 
HETATM    8  C   UNL     1      44.756 -12.451   6.597  1.00  0.00     0.032 A 
HETATM    9  C   UNL     1      44.926 -11.315   7.404  1.00  0.00     0.033 A 
ENDROOT
BRANCH   7  10
HETATM   10  N   UNL     1      43.475 -13.887   5.157  1.00  0.00    -0.323 N 
HETATM   11  C   UNL     1      43.186 -15.159   5.617  1.00  0.00     0.256 C 
HETATM   12  O   UNL     1      43.019 -15.507   6.778  1.00  0.00    -0.267 OA
HETATM   13  H   UNL     1      43.748 -13.799   4.187  1.00  0.00     0.169 HD
BRANCH  11  14
HETATM   14  C   UNL     1      43.124 -16.208   4.564  1.00  0.00     0.032 A 
HETATM   15  C   UNL     1      43.872 -17.375   4.742  1.00  0.00     0.020 A 
HETATM   16  C   UNL     1      43.805 -18.397   3.793  1.00  0.00     0.038 A 
HETATM   17  C   UNL     1      42.971 -18.275   2.680  1.00  0.00     0.068 A 
HETATM   18  C   UNL     1      42.228 -17.106   2.498  1.00  0.00     0.038 A 
HETATM   19  C   UNL     1      42.300 -16.073   3.440  1.00  0.00     0.020 A 
BRANCH  17  20
HETATM   20  O   UNL     1      42.977 -19.352   1.837  1.00  0.00    -0.356 OA
HETATM   21  C   UNL     1      43.832 -20.429   2.202  1.00  0.00     0.210 C 
ENDBRANCH  17  20
ENDBRANCH  11  14
ENDBRANCH   7  10
BRANCH   2  22
HETATM   22  C   UNL     1      41.977  -7.419   8.544  1.00  0.00     0.268 C 
HETATM   23  N   UNL     1      41.108  -7.577   9.605  1.00  0.00    -0.353 N 
HETATM   24  H   UNL     1      40.767  -8.509   9.793  1.00  0.00     0.162 HD
HETATM   25  O   UNL     1      42.298  -6.316   8.116  1.00  0.00    -0.266 OA
BRANCH  23  26
HETATM   26  C   UNL     1      40.388  -6.457  10.184  1.00  0.00     0.160 C 
BRANCH  26  27
HETATM   27  C   UNL     1      40.680  -6.238  11.695  1.00  0.00     0.073 C 
HETATM   28  O   UNL     1      40.877  -7.502  12.357  1.00  0.00    -0.379 OA
HETATM   29  C   UNL     1      39.637  -7.920  12.948  1.00  0.00     0.169 C 
HETATM   30  C   UNL     1      38.613  -6.831  12.695  1.00  0.00     0.029 C 
HETATM   31  C   UNL     1      39.471  -5.624  12.401  1.00  0.00     0.041 C 
HETATM   32  C   UNL     1      41.935  -5.391  11.899  1.00  0.00     0.047 C 
ENDBRANCH  26  27
ENDBRANCH  23  26
ENDBRANCH   2  22
BRANCH   1  33
HETATM   33  C   UNL     1      44.718  -8.691   9.127  1.00  0.00     0.125 C 
HETATM   34  C   UNL     1      44.714  -9.334  10.502  1.00  0.00     0.027 C 
ENDBRANCH   1  33
TORSDOF 7
ENDMDL
MODEL 5
REMARK VINA RESULT:      -7.3     19.634     23.512
REMARK  7 active torsions:
REMARK  status: ('A' for Active; 'I' for Inactive)
REMARK    1  A    between atoms: C_2  and  N_3 
REMARK    2  A    between atoms: C_4  and  C_5 
REMARK       I    between atoms: C_5  and  N_6 
REMARK    3  A    between atoms: N_6  and  C_7 
REMARK    4  A    between atoms: C_7  and  C_8 
REMARK    5  A    between atoms: C_19  and  N_20 
REMARK       I    between atoms: N_20  and  C_21 
REMARK    6  A    between atoms: C_21  and  C_22 
REMARK    7  A    between atoms: C_25  and  O_26 
ROOT
HETATM    1  N   UNL     1      48.570 -29.587   0.660  1.00  0.00    -0.342 N 
HETATM    2  C   UNL     1      47.302 -29.268   1.125  1.00  0.00     0.104 A 
HETATM    3  C   UNL     1      47.370 -29.342   2.509  1.00  0.00     0.049 A 
HETATM    4  C   UNL     1      48.673 -29.745   2.886  1.00  0.00    -0.005 A 
HETATM    5  C   UNL     1      49.406 -29.921   1.715  1.00  0.00     0.045 A 
HETATM    6  C   UNL     1      49.289 -29.978   4.134  1.00  0.00     0.043 A 
HETATM    7  C   UNL     1      50.622 -30.392   4.195  1.00  0.00     0.035 A 
HETATM    8  C   UNL     1      51.327 -30.590   3.004  1.00  0.00     0.032 A 
HETATM    9  C   UNL     1      50.741 -30.355   1.751  1.00  0.00     0.033 A 
ENDROOT
BRANCH   7  10
HETATM   10  N   UNL     1      51.305 -30.638   5.407  1.00  0.00    -0.323 N 
HETATM   11  C   UNL     1      51.747 -31.864   5.872  1.00  0.00     0.256 C 
HETATM   12  O   UNL     1      51.566 -32.960   5.360  1.00  0.00    -0.267 OA
HETATM   13  H   UNL     1      51.394 -29.849   6.033  1.00  0.00     0.169 HD
BRANCH  11  14
HETATM   14  C   UNL     1      52.480 -31.817   7.165  1.00  0.00     0.032 A 
HETATM   15  C   UNL     1      52.086 -32.687   8.186  1.00  0.00     0.020 A 
HETATM   16  C   UNL     1      52.779 -32.697   9.399  1.00  0.00     0.038 A 
HETATM   17  C   UNL     1      53.884 -31.865   9.589  1.00  0.00     0.068 A 
HETATM   18  C   UNL     1      54.274 -30.991   8.572  1.00  0.00     0.038 A 
HETATM   19  C   UNL     1      53.576 -30.967   7.358  1.00  0.00     0.020 A 
BRANCH  17  20
HETATM   20  O   UNL     1      54.490 -31.985  10.810  1.00  0.00    -0.356 OA
HETATM   21  C   UNL     1      53.898 -32.910  11.715  1.00  0.00     0.210 C 
ENDBRANCH  17  20
ENDBRANCH  11  14
ENDBRANCH   7  10
BRANCH   2  22
HETATM   22  C   UNL     1      46.159 -28.913   0.298  1.00  0.00     0.268 C 
HETATM   23  N   UNL     1      45.301 -29.966   0.056  1.00  0.00    -0.353 N 
HETATM   24  H   UNL     1      45.611 -30.890   0.322  1.00  0.00     0.162 HD
HETATM   25  O   UNL     1      45.964 -27.789  -0.152  1.00  0.00    -0.266 OA
BRANCH  23  26
HETATM   26  C   UNL     1      44.195 -29.859  -0.878  1.00  0.00     0.160 C 
BRANCH  26  27
HETATM   27  C   UNL     1      44.487 -30.485  -2.270  1.00  0.00     0.073 C 
HETATM   28  O   UNL     1      45.896 -30.416  -2.567  1.00  0.00    -0.379 OA
HETATM   29  C   UNL     1      46.151 -29.245  -3.357  1.00  0.00     0.169 C 
HETATM   30  C   UNL     1      44.822 -28.567  -3.624  1.00  0.00     0.029 C 
HETATM   31  C   UNL     1      43.824 -29.675  -3.384  1.00  0.00     0.041 C 
HETATM   32  C   UNL     1      44.061 -31.952  -2.317  1.00  0.00     0.047 C 
ENDBRANCH  26  27
ENDBRANCH  23  26
ENDBRANCH   2  22
BRANCH   1  33
HETATM   33  C   UNL     1      48.974 -29.597  -0.740  1.00  0.00     0.125 C 
HETATM   34  C   UNL     1      49.041 -30.999  -1.317  1.00  0.00     0.027 C 
ENDBRANCH   1  33
TORSDOF 7
ENDMDL
MODEL 6
REMARK VINA RESULT:      -7.2      5.619      7.591
REMARK  7 active torsions:
REMARK  status: ('A' for Active; 'I' for Inactive)
REMARK    1  A    between atoms: C_2  and  N_3 
REMARK    2  A    between atoms: C_4  and  C_5 
REMARK       I    between atoms: C_5  and  N_6 
REMARK    3  A    between atoms: N_6  and  C_7 
REMARK    4  A    between atoms: C_7  and  C_8 
REMARK    5  A    between atoms: C_19  and  N_20 
REMARK       I    between atoms: N_20  and  C_21 
REMARK    6  A    between atoms: C_21  and  C_22 
REMARK    7  A    between atoms: C_25  and  O_26 
ROOT
HETATM    1  N   UNL     1      39.581  -8.872   5.048  1.00  0.00    -0.342 N 
HETATM    2  C   UNL     1      38.576  -8.810   4.093  1.00  0.00     0.104 A 
HETATM    3  C   UNL     1      38.573 -10.044   3.457  1.00  0.00     0.049 A 
HETATM    4  C   UNL     1      39.606 -10.845   4.000  1.00  0.00    -0.005 A 
HETATM    5  C   UNL     1      40.246 -10.087   4.977  1.00  0.00     0.045 A 
HETATM    6  C   UNL     1      40.051 -12.158   3.735  1.00  0.00     0.043 A 
HETATM    7  C   UNL     1      41.132 -12.690   4.442  1.00  0.00     0.035 A 
HETATM    8  C   UNL     1      41.776 -11.899   5.397  1.00  0.00     0.032 A 
HETATM    9  C   UNL     1      41.347 -10.594   5.686  1.00  0.00     0.033 A 
ENDROOT
BRANCH   7  10
HETATM   10  N   UNL     1      41.628 -13.997   4.234  1.00  0.00    -0.323 N 
HETATM   11  C   UNL     1      42.675 -14.362   3.407  1.00  0.00     0.256 C 
HETATM   12  O   UNL     1      43.311 -13.638   2.653  1.00  0.00    -0.267 OA
HETATM   13  H   UNL     1      41.101 -14.744   4.667  1.00  0.00     0.169 HD
BRANCH  11  14
HETATM   14  C   UNL     1      43.010 -15.811   3.421  1.00  0.00     0.032 A 
HETATM   15  C   UNL     1      42.842 -16.545   2.244  1.00  0.00     0.020 A 
HETATM   16  C   UNL     1      43.185 -17.898   2.211  1.00  0.00     0.038 A 
HETATM   17  C   UNL     1      43.726 -18.518   3.339  1.00  0.00     0.068 A 
HETATM   18  C   UNL     1      43.887 -17.787   4.518  1.00  0.00     0.038 A 
HETATM   19  C   UNL     1      43.534 -16.433   4.561  1.00  0.00     0.020 A 
BRANCH  17  20
HETATM   20  O   UNL     1      44.042 -19.839   3.174  1.00  0.00    -0.356 OA
HETATM   21  C   UNL     1      43.602 -20.441   1.962  1.00  0.00     0.210 C 
ENDBRANCH  17  20
ENDBRANCH  11  14
ENDBRANCH   7  10
BRANCH   2  22
HETATM   22  C   UNL     1      37.705  -7.672   3.849  1.00  0.00     0.268 C 
HETATM   23  N   UNL     1      36.462  -7.788   4.439  1.00  0.00    -0.353 N 
HETATM   24  H   UNL     1      36.215  -8.685   4.832  1.00  0.00     0.162 HD
HETATM   25  O   UNL     1      38.027  -6.695   3.182  1.00  0.00    -0.266 OA
BRANCH  23  26
HETATM   26  C   UNL     1      35.395  -6.839   4.179  1.00  0.00     0.160 C 
BRANCH  26  27
HETATM   27  C   UNL     1      34.564  -6.468   5.438  1.00  0.00     0.073 C 
HETATM   28  O   UNL     1      34.244  -7.651   6.195  1.00  0.00    -0.379 OA
HETATM   29  C   UNL     1      32.937  -8.110   5.817  1.00  0.00     0.169 C 
HETATM   30  C   UNL     1      32.376  -7.129   4.807  1.00  0.00     0.029 C 
HETATM   31  C   UNL     1      33.204  -5.889   5.045  1.00  0.00     0.041 C 
HETATM   32  C   UNL     1      35.334  -5.513   6.348  1.00  0.00     0.047 C 
ENDBRANCH  26  27
ENDBRANCH  23  26
ENDBRANCH   2  22
BRANCH   1  33
HETATM   33  C   UNL     1      39.917  -7.807   5.984  1.00  0.00     0.125 C 
HETATM   34  C   UNL     1      39.100  -7.874   7.262  1.00  0.00     0.027 C 
ENDBRANCH   1  33
TORSDOF 7
ENDMDL
MODEL 7
REMARK VINA RESULT:      -7.2      1.529      2.012
REMARK  7 active torsions:
REMARK  status: ('A' for Active; 'I' for Inactive)
REMARK    1  A    between atoms: C_2  and  N_3 
REMARK    2  A    between atoms: C_4  and  C_5 
REMARK       I    between atoms: C_5  and  N_6 
REMARK    3  A    between atoms: N_6  and  C_7 
REMARK    4  A    between atoms: C_7  and  C_8 
REMARK    5  A    between atoms: C_19  and  N_20 
REMARK       I    between atoms: N_20  and  C_21 
REMARK    6  A    between atoms: C_21  and  C_22 
REMARK    7  A    between atoms: C_25  and  O_26 
ROOT
HETATM    1  N   UNL     1      43.930  -9.719   7.900  1.00  0.00    -0.342 N 
HETATM    2  C   UNL     1      43.006  -8.722   8.178  1.00  0.00     0.104 A 
HETATM    3  C   UNL     1      41.984  -8.877   7.251  1.00  0.00     0.049 A 
HETATM    4  C   UNL     1      42.307  -9.946   6.382  1.00  0.00    -0.005 A 
HETATM    5  C   UNL     1      43.542 -10.447   6.784  1.00  0.00     0.045 A 
HETATM    6  C   UNL     1      41.645 -10.528   5.280  1.00  0.00     0.043 A 
HETATM    7  C   UNL     1      42.230 -11.593   4.590  1.00  0.00     0.035 A 
HETATM    8  C   UNL     1      43.485 -12.057   4.995  1.00  0.00     0.032 A 
HETATM    9  C   UNL     1      44.158 -11.503   6.094  1.00  0.00     0.033 A 
ENDROOT
BRANCH   7  10
HETATM   10  N   UNL     1      41.624 -12.228   3.482  1.00  0.00    -0.323 N 
HETATM   11  C   UNL     1      41.716 -11.842   2.157  1.00  0.00     0.256 C 
HETATM   12  O   UNL     1      42.274 -10.848   1.711  1.00  0.00    -0.267 OA
HETATM   13  H   UNL     1      40.989 -12.984   3.699  1.00  0.00     0.169 HD
BRANCH  11  14
HETATM   14  C   UNL     1      41.010 -12.729   1.195  1.00  0.00     0.032 A 
HETATM   15  C   UNL     1      40.593 -12.190  -0.026  1.00  0.00     0.020 A 
HETATM   16  C   UNL     1      39.962 -13.005  -0.968  1.00  0.00     0.038 A 
HETATM   17  C   UNL     1      39.773 -14.364  -0.714  1.00  0.00     0.068 A 
HETATM   18  C   UNL     1      40.183 -14.902   0.509  1.00  0.00     0.038 A 
HETATM   19  C   UNL     1      40.805 -14.088   1.463  1.00  0.00     0.020 A 
BRANCH  17  20
HETATM   20  O   UNL     1      39.165 -15.059  -1.723  1.00  0.00    -0.356 OA
HETATM   21  C   UNL     1      38.805 -14.304  -2.874  1.00  0.00     0.210 C 
ENDBRANCH  17  20
ENDBRANCH  11  14
ENDBRANCH   7  10
BRANCH   2  22
HETATM   22  C   UNL     1      43.109  -7.743   9.247  1.00  0.00     0.268 C 
HETATM   23  N   UNL     1      42.535  -8.154  10.433  1.00  0.00    -0.353 N 
HETATM   24  H   UNL     1      41.971  -8.991  10.411  1.00  0.00     0.162 HD
HETATM   25  O   UNL     1      43.650  -6.649   9.122  1.00  0.00    -0.266 OA
BRANCH  23  26
HETATM   26  C   UNL     1      42.387  -7.259  11.566  1.00  0.00     0.160 C 
BRANCH  26  27
HETATM   27  C   UNL     1      41.164  -7.586  12.468  1.00  0.00     0.073 C 
HETATM   28  O   UNL     1      41.163  -6.746  13.639  1.00  0.00    -0.379 OA
HETATM   29  C   UNL     1      41.790  -7.450  14.721  1.00  0.00     0.169 C 
HETATM   30  C   UNL     1      42.154  -8.835  14.224  1.00  0.00     0.029 C 
HETATM   31  C   UNL     1      41.257  -9.008  13.022  1.00  0.00     0.041 C 
HETATM   32  C   UNL     1      39.850  -7.363  11.721  1.00  0.00     0.047 C 
ENDBRANCH  26  27
ENDBRANCH  23  26
ENDBRANCH   2  22
BRANCH   1  33
HETATM   33  C   UNL     1      45.155  -9.964   8.651  1.00  0.00     0.125 C 
HETATM   34  C   UNL     1      46.346  -9.212   8.085  1.00  0.00     0.027 C 
ENDBRANCH   1  33
TORSDOF 7
ENDMDL
MODEL 8
REMARK VINA RESULT:      -7.2      7.192     12.285
REMARK  7 active torsions:
REMARK  status: ('A' for Active; 'I' for Inactive)
REMARK    1  A    between atoms: C_2  and  N_3 
REMARK    2  A    between atoms: C_4  and  C_5 
REMARK       I    between atoms: C_5  and  N_6 
REMARK    3  A    between atoms: N_6  and  C_7 
REMARK    4  A    between atoms: C_7  and  C_8 
REMARK    5  A    between atoms: C_19  and  N_20 
REMARK       I    between atoms: N_20  and  C_21 
REMARK    6  A    between atoms: C_21  and  C_22 
REMARK    7  A    between atoms: C_25  and  O_26 
ROOT
HETATM    1  N   UNL     1      37.579 -10.440  -0.443  1.00  0.00    -0.342 N 
HETATM    2  C   UNL     1      37.711 -10.803  -1.775  1.00  0.00     0.104 A 
HETATM    3  C   UNL     1      38.521 -11.930  -1.788  1.00  0.00     0.049 A 
HETATM    4  C   UNL     1      38.916 -12.229  -0.462  1.00  0.00    -0.005 A 
HETATM    5  C   UNL     1      38.340 -11.271   0.367  1.00  0.00     0.045 A 
HETATM    6  C   UNL     1      39.722 -13.242   0.100  1.00  0.00     0.043 A 
HETATM    7  C   UNL     1      39.950 -13.276   1.478  1.00  0.00     0.035 A 
HETATM    8  C   UNL     1      39.384 -12.285   2.285  1.00  0.00     0.032 A 
HETATM    9  C   UNL     1      38.570 -11.274   1.751  1.00  0.00     0.033 A 
ENDROOT
BRANCH   7  10
HETATM   10  N   UNL     1      40.740 -14.262   2.111  1.00  0.00    -0.323 N 
HETATM   11  C   UNL     1      40.592 -15.633   2.004  1.00  0.00     0.256 C 
HETATM   12  O   UNL     1      39.714 -16.240   1.407  1.00  0.00    -0.267 OA
HETATM   13  H   UNL     1      41.421 -13.922   2.777  1.00  0.00     0.169 HD
BRANCH  11  14
HETATM   14  C   UNL     1      41.602 -16.432   2.748  1.00  0.00     0.032 A 
HETATM   15  C   UNL     1      42.411 -17.319   2.030  1.00  0.00     0.020 A 
HETATM   16  C   UNL     1      43.396 -18.055   2.691  1.00  0.00     0.038 A 
HETATM   17  C   UNL     1      43.602 -17.889   4.062  1.00  0.00     0.068 A 
HETATM   18  C   UNL     1      42.790 -17.009   4.781  1.00  0.00     0.038 A 
HETATM   19  C   UNL     1      41.792 -16.277   4.127  1.00  0.00     0.020 A 
BRANCH  17  20
HETATM   20  O   UNL     1      44.611 -18.649   4.587  1.00  0.00    -0.356 OA
HETATM   21  C   UNL     1      44.270 -19.985   4.940  1.00  0.00     0.210 C 
ENDBRANCH  17  20
ENDBRANCH  11  14
ENDBRANCH   7  10
BRANCH   2  22
HETATM   22  C   UNL     1      37.092 -10.128  -2.905  1.00  0.00     0.268 C 
HETATM   23  N   UNL     1      35.905 -10.703  -3.312  1.00  0.00    -0.353 N 
HETATM   24  H   UNL     1      35.663 -11.600  -2.917  1.00  0.00     0.162 HD
HETATM   25  O   UNL     1      37.569  -9.143  -3.458  1.00  0.00    -0.266 OA
BRANCH  23  26
HETATM   26  C   UNL     1      35.220 -10.281  -4.520  1.00  0.00     0.160 C 
BRANCH  26  27
HETATM   27  C   UNL     1      33.899 -11.052  -4.795  1.00  0.00     0.073 C 
HETATM   28  O   UNL     1      34.182 -12.409  -5.189  1.00  0.00    -0.379 OA
HETATM   29  C   UNL     1      34.193 -12.487  -6.622  1.00  0.00     0.169 C 
HETATM   30  C   UNL     1      33.840 -11.117  -7.165  1.00  0.00     0.029 C 
HETATM   31  C   UNL     1      33.157 -10.456  -5.991  1.00  0.00     0.041 C 
HETATM   32  C   UNL     1      33.013 -11.091  -3.551  1.00  0.00     0.047 C 
ENDBRANCH  26  27
ENDBRANCH  23  26
ENDBRANCH   2  22
BRANCH   1  33
HETATM   33  C   UNL     1      36.777  -9.327   0.050  1.00  0.00     0.125 C 
HETATM   34  C   UNL     1      35.353  -9.737   0.382  1.00  0.00     0.027 C 
ENDBRANCH   1  33
TORSDOF 7
ENDMDL
MODEL 9
REMARK VINA RESULT:      -7.1      4.197     13.329
REMARK  7 active torsions:
REMARK  status: ('A' for Active; 'I' for Inactive)
REMARK    1  A    between atoms: C_2  and  N_3 
REMARK    2  A    between atoms: C_4  and  C_5 
REMARK       I    between atoms: C_5  and  N_6 
REMARK    3  A    between atoms: N_6  and  C_7 
REMARK    4  A    between atoms: C_7  and  C_8 
REMARK    5  A    between atoms: C_19  and  N_20 
REMARK       I    between atoms: N_20  and  C_21 
REMARK    6  A    between atoms: C_21  and  C_22 
REMARK    7  A    between atoms: C_25  and  O_26 
ROOT
HETATM    1  N   UNL     1      43.246  -7.445   9.793  1.00  0.00    -0.342 N 
HETATM    2  C   UNL     1      44.110  -8.527   9.700  1.00  0.00     0.104 A 
HETATM    3  C   UNL     1      44.255  -9.016  10.991  1.00  0.00     0.049 A 
HETATM    4  C   UNL     1      43.509  -8.203  11.878  1.00  0.00    -0.005 A 
HETATM    5  C   UNL     1      42.904  -7.207  11.117  1.00  0.00     0.045 A 
HETATM    6  C   UNL     1      43.302  -8.236  13.273  1.00  0.00     0.043 A 
HETATM    7  C   UNL     1      42.503  -7.268  13.888  1.00  0.00     0.035 A 
HETATM    8  C   UNL     1      41.931  -6.261  13.106  1.00  0.00     0.032 A 
HETATM    9  C   UNL     1      42.114  -6.213  11.715  1.00  0.00     0.033 A 
ENDROOT
BRANCH   7  10
HETATM   10  N   UNL     1      42.246  -7.241  15.278  1.00  0.00    -0.323 N 
HETATM   11  C   UNL     1      41.005  -7.247  15.889  1.00  0.00     0.256 C 
HETATM   12  O   UNL     1      39.911  -7.205  15.344  1.00  0.00    -0.267 OA
HETATM   13  H   UNL     1      43.053  -7.112  15.874  1.00  0.00     0.169 HD
BRANCH  11  14
HETATM   14  C   UNL     1      41.039  -7.261  17.376  1.00  0.00     0.032 A 
HETATM   15  C   UNL     1      39.914  -7.727  18.063  1.00  0.00     0.020 A 
HETATM   16  C   UNL     1      39.926  -7.791  19.457  1.00  0.00     0.038 A 
HETATM   17  C   UNL     1      41.067  -7.422  20.172  1.00  0.00     0.068 A 
HETATM   18  C   UNL     1      42.189  -6.950  19.487  1.00  0.00     0.038 A 
HETATM   19  C   UNL     1      42.179  -6.872  18.089  1.00  0.00     0.020 A 
BRANCH  17  20
HETATM   20  O   UNL     1      40.962  -7.551  21.530  1.00  0.00    -0.356 OA
HETATM   21  C   UNL     1      42.109  -7.176  22.285  1.00  0.00     0.210 C 
ENDBRANCH  17  20
ENDBRANCH  11  14
ENDBRANCH   7  10
BRANCH   2  22
HETATM   22  C   UNL     1      44.707  -9.033   8.474  1.00  0.00     0.268 C 
HETATM   23  N   UNL     1      44.070 -10.148   7.966  1.00  0.00    -0.353 N 
HETATM   24  H   UNL     1      43.379 -10.596   8.551  1.00  0.00     0.162 HD
HETATM   25  O   UNL     1      45.687  -8.531   7.933  1.00  0.00    -0.266 OA
BRANCH  23  26
HETATM   26  C   UNL     1      44.610 -10.899   6.848  1.00  0.00     0.160 C 
BRANCH  26  27
HETATM   27  C   UNL     1      43.583 -11.856   6.180  1.00  0.00     0.073 C 
HETATM   28  O   UNL     1      43.873 -12.006   4.777  1.00  0.00    -0.379 OA
HETATM   29  C   UNL     1      43.068 -11.081   4.031  1.00  0.00     0.169 C 
HETATM   30  C   UNL     1      42.176 -10.346   5.012  1.00  0.00     0.029 C 
HETATM   31  C   UNL     1      42.176 -11.258   6.215  1.00  0.00     0.041 C 
HETATM   32  C   UNL     1      43.617 -13.240   6.826  1.00  0.00     0.047 C 
ENDBRANCH  26  27
ENDBRANCH  23  26
ENDBRANCH   2  22
BRANCH   1  33
HETATM   33  C   UNL     1      42.776  -6.645   8.669  1.00  0.00     0.125 C 
HETATM   34  C   UNL     1      41.537  -7.229   8.015  1.00  0.00     0.027 C 
ENDBRANCH   1  33
TORSDOF 7
ENDMDL
MODEL 10
REMARK VINA RESULT:      -7.1      3.842     13.469
REMARK  7 active torsions:
REMARK  status: ('A' for Active; 'I' for Inactive)
REMARK    1  A    between atoms: C_2  and  N_3 
REMARK    2  A    between atoms: C_4  and  C_5 
REMARK       I    between atoms: C_5  and  N_6 
REMARK    3  A    between atoms: N_6  and  C_7 
REMARK    4  A    between atoms: C_7  and  C_8 
REMARK    5  A    between atoms: C_19  and  N_20 
REMARK       I    between atoms: N_20  and  C_21 
REMARK    6  A    between atoms: C_21  and  C_22 
REMARK    7  A    between atoms: C_25  and  O_26 
ROOT
HETATM    1  N   UNL     1      41.452  -8.815  10.047  1.00  0.00    -0.342 N 
HETATM    2  C   UNL     1      40.126  -9.094   9.747  1.00  0.00     0.104 A 
HETATM    3  C   UNL     1      39.455  -9.121  10.962  1.00  0.00     0.049 A 
HETATM    4  C   UNL     1      40.383  -8.897  12.007  1.00  0.00    -0.005 A 
HETATM    5  C   UNL     1      41.635  -8.734  11.420  1.00  0.00     0.045 A 
HETATM    6  C   UNL     1      40.256  -8.823  13.410  1.00  0.00     0.043 A 
HETATM    7  C   UNL     1      41.382  -8.597  14.207  1.00  0.00     0.035 A 
HETATM    8  C   UNL     1      42.632  -8.467  13.595  1.00  0.00     0.032 A 
HETATM    9  C   UNL     1      42.782  -8.527  12.202  1.00  0.00     0.033 A 
ENDROOT
BRANCH   7  10
HETATM   10  N   UNL     1      41.331  -8.505  15.616  1.00  0.00    -0.323 N 
HETATM   11  C   UNL     1      41.342  -7.344  16.369  1.00  0.00     0.256 C 
HETATM   12  O   UNL     1      41.471  -6.198  15.961  1.00  0.00    -0.267 OA
HETATM   13  H   UNL     1      41.383  -9.381  16.119  1.00  0.00     0.169 HD
BRANCH  11  14
HETATM   14  C   UNL     1      41.231  -7.549  17.838  1.00  0.00     0.032 A 
HETATM   15  C   UNL     1      40.026  -8.036  18.353  1.00  0.00     0.020 A 
HETATM   16  C   UNL     1      39.900  -8.278  19.722  1.00  0.00     0.038 A 
HETATM   17  C   UNL     1      40.981  -8.066  20.580  1.00  0.00     0.068 A 
HETATM   18  C   UNL     1      42.183  -7.572  20.067  1.00  0.00     0.038 A 
HETATM   19  C   UNL     1      42.312  -7.316  18.696  1.00  0.00     0.020 A 
BRANCH  17  20
HETATM   20  O   UNL     1      40.739  -8.361  21.893  1.00  0.00    -0.356 OA
HETATM   21  C   UNL     1      39.431  -8.066  22.371  1.00  0.00     0.210 C 
ENDBRANCH  17  20
ENDBRANCH  11  14
ENDBRANCH   7  10
BRANCH   2  22
HETATM   22  C   UNL     1      39.581  -9.291   8.414  1.00  0.00     0.268 C 
HETATM   23  N   UNL     1      39.866 -10.530   7.876  1.00  0.00    -0.353 N 
HETATM   24  H   UNL     1      40.538 -11.106   8.363  1.00  0.00     0.162 HD
HETATM   25  O   UNL     1      38.931  -8.445   7.809  1.00  0.00    -0.266 OA
BRANCH  23  26
HETATM   26  C   UNL     1      39.555 -10.860   6.497  1.00  0.00     0.160 C 
BRANCH  26  27
HETATM   27  C   UNL     1      40.803 -11.208   5.638  1.00  0.00     0.073 C 
HETATM   28  O   UNL     1      40.406 -11.603   4.311  1.00  0.00    -0.379 OA
HETATM   29  C   UNL     1      40.321 -13.035   4.255  1.00  0.00     0.169 C 
HETATM   30  C   UNL     1      40.745 -13.578   5.604  1.00  0.00     0.029 C 
HETATM   31  C   UNL     1      41.528 -12.432   6.198  1.00  0.00     0.041 C 
HETATM   32  C   UNL     1      41.743 -10.009   5.518  1.00  0.00     0.047 C 
ENDBRANCH  26  27
ENDBRANCH  23  26
ENDBRANCH   2  22
BRANCH   1  33
HETATM   33  C   UNL     1      42.519  -8.653   9.068  1.00  0.00     0.125 C 
HETATM   34  C   UNL     1      43.339  -9.918   8.884  1.00  0.00     0.027 C 
ENDBRANCH   1  33
TORSDOF 7
ENDMDL
