MODEL 1
REMARK VINA RESULT:      -9.2      0.000      0.000
REMARK  3 active torsions:
REMARK  status: ('A' for Active; 'I' for Inactive)
REMARK    1  A    between atoms: C_4  and  C_5 
REMARK    2  A    between atoms: C_11  and  C_12 
REMARK    3  A    between atoms: C_21  and  N_22 
ROOT
HETATM    1  C   UNL     1      43.426 -17.358   6.087  1.00  0.00     0.071 A 
HETATM    2  N   UNL     1      43.528 -17.328   7.462  1.00  0.00    -0.274 N 
HETATM    3  H   UNL     1      43.730 -18.107   8.081  1.00  0.00     0.189 HD
HETATM    4  N   UNL     1      43.379 -16.105   8.003  1.00  0.00    -0.148 NA
HETATM    5  C   UNL     1      43.179 -15.350   6.933  1.00  0.00     0.199 A 
HETATM    6  C   UNL     1      43.145 -16.051   5.719  1.00  0.00     0.036 A 
HETATM    7  C   UNL     1      42.904 -15.338   4.423  1.00  0.00     0.079 A 
HETATM    8  C   UNL     1      42.904 -13.815   4.680  1.00  0.00     0.063 A 
HETATM    9  C   UNL     1      42.740 -12.926   3.458  1.00  0.00     0.020 C 
HETATM   10  N   UNL     1      42.603 -12.189   2.444  1.00  0.00    -0.096 N 
HETATM   11  C   UNL     1      42.968 -13.248   5.912  1.00  0.00     0.139 A 
HETATM   12  O   UNL     1      43.062 -14.018   7.074  1.00  0.00    -0.277 OA
ENDROOT
BRANCH   7  13
HETATM   13  C   UNL     1      41.603 -15.770   3.657  1.00  0.00     0.022 C 
HETATM   14  C   UNL     1      40.477 -14.766   3.759  1.00  0.00    -0.025 C 
HETATM   15  C   UNL     1      39.828 -14.260   2.700  1.00  0.00    -0.030 C 
HETATM   16  C   UNL     1      40.182 -14.583   1.283  1.00  0.00     0.027 C 
HETATM   17  C   UNL     1      41.572 -15.203   1.146  1.00  0.00     0.004 C 
HETATM   18  C   UNL     1      41.830 -16.269   2.209  1.00  0.00     0.010 C 
ENDBRANCH   7  13
BRANCH  11  19
HETATM   19  N   UNL     1      42.930 -11.896   6.169  1.00  0.00    -0.282 NA
HETATM   20  H   UNL     1      42.171 -11.573   6.764  1.00  0.00     0.126 HD
HETATM   21  H   UNL     1      43.840 -11.539   6.452  1.00  0.00     0.126 HD
ENDBRANCH  11  19
BRANCH   1  22
HETATM   22  C   UNL     1      43.632 -18.588   5.337  1.00  0.00    -0.007 A 
HETATM   23  C   UNL     1      43.845 -18.547   3.953  1.00  0.00     0.014 A 
HETATM   24  C   UNL     1      44.032 -19.727   3.229  1.00  0.00     0.001 A 
HETATM   25  C   UNL     1      44.002 -20.957   3.885  1.00  0.00     0.000 A 
HETATM   26  C   UNL     1      43.783 -21.008   5.260  1.00  0.00     0.001 A 
HETATM   27  C   UNL     1      43.598 -19.829   5.984  1.00  0.00     0.014 A 
ENDBRANCH   1  22
TORSDOF 3
ENDMDL
MODEL 2
REMARK VINA RESULT:      -8.9      7.472     10.047
REMARK  3 active torsions:
REMARK  status: ('A' for Active; 'I' for Inactive)
REMARK    1  A    between atoms: C_4  and  C_5 
REMARK    2  A    between atoms: C_11  and  C_12 
REMARK    3  A    between atoms: C_21  and  N_22 
ROOT
HETATM    1  C   UNL     1      43.747 -10.176  11.003  1.00  0.00     0.071 A 
HETATM    2  N   UNL     1      43.506 -11.329  11.720  1.00  0.00    -0.274 N 
HETATM    3  H   UNL     1      43.781 -12.275  11.475  1.00  0.00     0.189 HD
HETATM    4  N   UNL     1      42.870 -11.132  12.889  1.00  0.00    -0.148 NA
HETATM    5  C   UNL     1      42.711  -9.816  12.901  1.00  0.00     0.199 A 
HETATM    6  C   UNL     1      43.181  -9.159  11.755  1.00  0.00     0.036 A 
HETATM    7  C   UNL     1      43.050  -7.673  11.612  1.00  0.00     0.079 A 
HETATM    8  C   UNL     1      42.529  -7.083  12.941  1.00  0.00     0.063 A 
HETATM    9  C   UNL     1      42.399  -5.570  13.000  1.00  0.00     0.020 C 
HETATM   10  N   UNL     1      42.291  -4.314  13.050  1.00  0.00    -0.096 N 
HETATM   11  C   UNL     1      42.125  -7.828  14.000  1.00  0.00     0.139 A 
HETATM   12  O   UNL     1      42.168  -9.225  13.979  1.00  0.00    -0.277 OA
ENDROOT
BRANCH   7  13
HETATM   13  C   UNL     1      42.161  -7.196  10.408  1.00  0.00     0.022 C 
HETATM   14  C   UNL     1      42.939  -6.975   9.130  1.00  0.00    -0.025 C 
HETATM   15  C   UNL     1      42.618  -7.531   7.953  1.00  0.00    -0.030 C 
HETATM   16  C   UNL     1      41.483  -8.490   7.776  1.00  0.00     0.027 C 
HETATM   17  C   UNL     1      40.992  -9.079   9.097  1.00  0.00     0.004 C 
HETATM   18  C   UNL     1      40.866  -8.014  10.185  1.00  0.00     0.010 C 
ENDBRANCH   7  13
BRANCH  11  19
HETATM   19  N   UNL     1      41.619  -7.328  15.180  1.00  0.00    -0.282 NA
HETATM   20  H   UNL     1      40.792  -7.792  15.547  1.00  0.00     0.126 HD
HETATM   21  H   UNL     1      42.348  -7.196  15.877  1.00  0.00     0.126 HD
ENDBRANCH  11  19
BRANCH   1  22
HETATM   22  C   UNL     1      44.487 -10.202   9.750  1.00  0.00    -0.007 A 
HETATM   23  C   UNL     1      45.584  -9.352   9.556  1.00  0.00     0.014 A 
HETATM   24  C   UNL     1      46.289  -9.368   8.350  1.00  0.00     0.001 A 
HETATM   25  C   UNL     1      45.898 -10.230   7.327  1.00  0.00     0.000 A 
HETATM   26  C   UNL     1      44.805 -11.075   7.508  1.00  0.00     0.001 A 
HETATM   27  C   UNL     1      44.100 -11.061   8.714  1.00  0.00     0.014 A 
ENDBRANCH   1  22
TORSDOF 3
ENDMDL
MODEL 3
REMARK VINA RESULT:      -8.8      2.726      4.080
REMARK  3 active torsions:
REMARK  status: ('A' for Active; 'I' for Inactive)
REMARK    1  A    between atoms: C_4  and  C_5 
REMARK    2  A    between atoms: C_11  and  C_12 
REMARK    3  A    between atoms: C_21  and  N_22 
ROOT
HETATM    1  C   UNL     1      41.079 -14.088   5.551  1.00  0.00     0.071 A 
HETATM    2  N   UNL     1      40.032 -13.987   6.442  1.00  0.00    -0.274 N 
HETATM    3  H   UNL     1      39.885 -14.536   7.283  1.00  0.00     0.189 HD
HETATM    4  N   UNL     1      39.152 -13.011   6.155  1.00  0.00    -0.148 NA
HETATM    5  C   UNL     1      39.666 -12.488   5.051  1.00  0.00     0.199 A 
HETATM    6  C   UNL     1      40.826 -13.125   4.587  1.00  0.00     0.036 A 
HETATM    7  C   UNL     1      41.510 -12.662   3.336  1.00  0.00     0.079 A 
HETATM    8  C   UNL     1      40.841 -11.357   2.850  1.00  0.00     0.063 A 
HETATM    9  C   UNL     1      41.455 -10.703   1.622  1.00  0.00     0.020 C 
HETATM   10  N   UNL     1      41.963 -10.161   0.604  1.00  0.00    -0.096 N 
HETATM   11  C   UNL     1      39.725 -10.819   3.404  1.00  0.00     0.139 A 
HETATM   12  O   UNL     1      39.086 -11.409   4.498  1.00  0.00    -0.277 OA
ENDROOT
BRANCH   7  13
HETATM   13  C   UNL     1      41.565 -13.720   2.177  1.00  0.00     0.022 C 
HETATM   14  C   UNL     1      42.801 -14.590   2.208  1.00  0.00    -0.025 C 
HETATM   15  C   UNL     1      42.774 -15.930   2.191  1.00  0.00    -0.030 C 
HETATM   16  C   UNL     1      41.509 -16.730   2.202  1.00  0.00     0.027 C 
HETATM   17  C   UNL     1      40.294 -15.912   2.635  1.00  0.00     0.004 C 
HETATM   18  C   UNL     1      40.265 -14.537   1.973  1.00  0.00     0.010 C 
ENDBRANCH   7  13
BRANCH  11  19
HETATM   19  N   UNL     1      39.088  -9.679   2.965  1.00  0.00    -0.282 NA
HETATM   20  H   UNL     1      39.688  -8.894   2.725  1.00  0.00     0.126 HD
HETATM   21  H   UNL     1      38.394  -9.886   2.250  1.00  0.00     0.126 HD
ENDBRANCH  11  19
BRANCH   1  22
HETATM   22  C   UNL     1      42.158 -15.044   5.752  1.00  0.00    -0.007 A 
HETATM   23  C   UNL     1      41.888 -16.419   5.793  1.00  0.00     0.014 A 
HETATM   24  C   UNL     1      42.920 -17.338   5.996  1.00  0.00     0.001 A 
HETATM   25  C   UNL     1      44.229 -16.888   6.166  1.00  0.00     0.000 A 
HETATM   26  C   UNL     1      44.506 -15.523   6.133  1.00  0.00     0.001 A 
HETATM   27  C   UNL     1      43.474 -14.604   5.928  1.00  0.00     0.014 A 
ENDBRANCH   1  22
TORSDOF 3
ENDMDL
MODEL 4
REMARK VINA RESULT:      -8.8      6.724      9.903
REMARK  3 active torsions:
REMARK  status: ('A' for Active; 'I' for Inactive)
REMARK    1  A    between atoms: C_4  and  C_5 
REMARK    2  A    between atoms: C_11  and  C_12 
REMARK    3  A    between atoms: C_21  and  N_22 
ROOT
HETATM    1  C   UNL     1      43.569  -9.676  10.643  1.00  0.00     0.071 A 
HETATM    2  N   UNL     1      44.863 -10.152  10.605  1.00  0.00    -0.274 N 
HETATM    3  H   UNL     1      45.504 -10.255  11.385  1.00  0.00     0.189 HD
HETATM    4  N   UNL     1      45.270 -10.555   9.387  1.00  0.00    -0.148 NA
HETATM    5  C   UNL     1      44.197 -10.323   8.645  1.00  0.00     0.199 A 
HETATM    6  C   UNL     1      43.124  -9.738   9.332  1.00  0.00     0.036 A 
HETATM    7  C   UNL     1      41.850  -9.395   8.621  1.00  0.00     0.079 A 
HETATM    8  C   UNL     1      41.911  -9.952   7.182  1.00  0.00     0.063 A 
HETATM    9  C   UNL     1      40.667  -9.754   6.331  1.00  0.00     0.020 C 
HETATM   10  N   UNL     1      39.635  -9.590   5.624  1.00  0.00    -0.096 N 
HETATM   11  C   UNL     1      43.010 -10.527   6.631  1.00  0.00     0.139 A 
HETATM   12  O   UNL     1      44.199 -10.682   7.349  1.00  0.00    -0.277 OA
ENDROOT
BRANCH   7  13
HETATM   13  C   UNL     1      41.486  -7.867   8.609  1.00  0.00     0.022 C 
HETATM   14  C   UNL     1      40.680  -7.426   9.809  1.00  0.00    -0.025 C 
HETATM   15  C   UNL     1      41.018  -6.398  10.601  1.00  0.00    -0.030 C 
HETATM   16  C   UNL     1      42.272  -5.600  10.427  1.00  0.00     0.027 C 
HETATM   17  C   UNL     1      43.303  -6.301   9.544  1.00  0.00     0.004 C 
HETATM   18  C   UNL     1      42.666  -6.915   8.298  1.00  0.00     0.010 C 
ENDBRANCH   7  13
BRANCH  11  19
HETATM   19  N   UNL     1      43.102 -10.995   5.339  1.00  0.00    -0.282 NA
HETATM   20  H   UNL     1      43.780 -11.734   5.176  1.00  0.00     0.126 HD
HETATM   21  H   UNL     1      42.186 -11.197   4.945  1.00  0.00     0.126 HD
ENDBRANCH  11  19
BRANCH   1  22
HETATM   22  C   UNL     1      42.948  -9.265  11.893  1.00  0.00    -0.007 A 
HETATM   23  C   UNL     1      41.784  -9.899  12.349  1.00  0.00     0.014 A 
HETATM   24  C   UNL     1      41.181  -9.500  13.543  1.00  0.00     0.001 A 
HETATM   25  C   UNL     1      41.733  -8.458  14.288  1.00  0.00     0.000 A 
HETATM   26  C   UNL     1      42.886  -7.817  13.839  1.00  0.00     0.001 A 
HETATM   27  C   UNL     1      43.491  -8.218  12.646  1.00  0.00     0.014 A 
ENDBRANCH   1  22
TORSDOF 3
ENDMDL
MODEL 5
REMARK VINA RESULT:      -8.7     13.858     15.940
REMARK  3 active torsions:
REMARK  status: ('A' for Active; 'I' for Inactive)
REMARK    1  A    between atoms: C_4  and  C_5 
REMARK    2  A    between atoms: C_11  and  C_12 
REMARK    3  A    between atoms: C_21  and  N_22 
ROOT
HETATM    1  C   UNL     1      43.960 -29.496  -0.113  1.00  0.00     0.071 A 
HETATM    2  N   UNL     1      42.919 -28.805   0.470  1.00  0.00    -0.274 N 
HETATM    3  H   UNL     1      42.314 -28.120   0.031  1.00  0.00     0.189 HD
HETATM    4  N   UNL     1      42.683 -29.136   1.753  1.00  0.00    -0.148 NA
HETATM    5  C   UNL     1      43.605 -30.062   1.976  1.00  0.00     0.199 A 
HETATM    6  C   UNL     1      44.462 -30.307   0.894  1.00  0.00     0.036 A 
HETATM    7  C   UNL     1      45.570 -31.310   1.002  1.00  0.00     0.079 A 
HETATM    8  C   UNL     1      45.439 -32.063   2.344  1.00  0.00     0.063 A 
HETATM    9  C   UNL     1      46.447 -33.173   2.594  1.00  0.00     0.020 C 
HETATM   10  N   UNL     1      47.283 -34.094   2.802  1.00  0.00    -0.096 N 
HETATM   11  C   UNL     1      44.542 -31.746   3.312  1.00  0.00     0.139 A 
HETATM   12  O   UNL     1      43.631 -30.699   3.159  1.00  0.00    -0.277 OA
ENDROOT
BRANCH   7  13
HETATM   13  C   UNL     1      47.018 -30.723   0.836  1.00  0.00     0.022 C 
HETATM   14  C   UNL     1      47.487 -30.661  -0.600  1.00  0.00    -0.025 C 
HETATM   15  C   UNL     1      47.964 -29.553  -1.185  1.00  0.00    -0.030 C 
HETATM   16  C   UNL     1      48.030 -28.223  -0.502  1.00  0.00     0.027 C 
HETATM   17  C   UNL     1      47.153 -28.153   0.746  1.00  0.00     0.004 C 
HETATM   18  C   UNL     1      47.283 -29.407   1.608  1.00  0.00     0.010 C 
ENDBRANCH   7  13
BRANCH  11  19
HETATM   19  N   UNL     1      44.432 -32.377   4.532  1.00  0.00    -0.282 NA
HETATM   20  H   UNL     1      45.242 -32.911   4.837  1.00  0.00     0.126 HD
HETATM   21  H   UNL     1      44.071 -31.751   5.249  1.00  0.00     0.126 HD
ENDBRANCH  11  19
BRANCH   1  22
HETATM   22  C   UNL     1      44.304 -29.311  -1.515  1.00  0.00    -0.007 A 
HETATM   23  C   UNL     1      44.194 -30.376  -2.419  1.00  0.00     0.014 A 
HETATM   24  C   UNL     1      44.533 -30.204  -3.762  1.00  0.00     0.001 A 
HETATM   25  C   UNL     1      44.992 -28.965  -4.210  1.00  0.00     0.000 A 
HETATM   26  C   UNL     1      45.112 -27.903  -3.318  1.00  0.00     0.001 A 
HETATM   27  C   UNL     1      44.770 -28.074  -1.974  1.00  0.00     0.014 A 
ENDBRANCH   1  22
TORSDOF 3
ENDMDL
MODEL 6
REMARK VINA RESULT:      -8.6      3.573      5.173
REMARK  3 active torsions:
REMARK  status: ('A' for Active; 'I' for Inactive)
REMARK    1  A    between atoms: C_4  and  C_5 
REMARK    2  A    between atoms: C_11  and  C_12 
REMARK    3  A    between atoms: C_21  and  N_22 
ROOT
HETATM    1  C   UNL     1      42.134 -15.352   3.409  1.00  0.00     0.071 A 
HETATM    2  N   UNL     1      42.736 -16.192   2.496  1.00  0.00    -0.274 N 
HETATM    3  H   UNL     1      43.390 -16.943   2.689  1.00  0.00     0.189 HD
HETATM    4  N   UNL     1      42.354 -15.990   1.222  1.00  0.00    -0.148 NA
HETATM    5  C   UNL     1      41.489 -14.994   1.345  1.00  0.00     0.199 A 
HETATM    6  C   UNL     1      41.332 -14.512   2.652  1.00  0.00     0.036 A 
HETATM    7  C   UNL     1      40.405 -13.372   2.947  1.00  0.00     0.079 A 
HETATM    8  C   UNL     1      39.609 -13.028   1.669  1.00  0.00     0.063 A 
HETATM    9  C   UNL     1      38.564 -11.932   1.803  1.00  0.00     0.020 C 
HETATM   10  N   UNL     1      37.697 -11.022   1.913  1.00  0.00    -0.096 N 
HETATM   11  C   UNL     1      39.836 -13.587   0.454  1.00  0.00     0.139 A 
HETATM   12  O   UNL     1      40.823 -14.557   0.261  1.00  0.00    -0.277 OA
ENDROOT
BRANCH   7  13
HETATM   13  C   UNL     1      41.095 -12.088   3.532  1.00  0.00     0.022 C 
HETATM   14  C   UNL     1      41.267 -12.122   5.034  1.00  0.00    -0.025 C 
HETATM   15  C   UNL     1      42.434 -11.915   5.659  1.00  0.00    -0.030 C 
HETATM   16  C   UNL     1      43.726 -11.685   4.938  1.00  0.00     0.027 C 
HETATM   17  C   UNL     1      43.669 -12.103   3.470  1.00  0.00     0.004 C 
HETATM   18  C   UNL     1      42.380 -11.640   2.794  1.00  0.00     0.010 C 
ENDBRANCH   7  13
BRANCH  11  19
HETATM   19  N   UNL     1      39.167 -13.269  -0.707  1.00  0.00    -0.282 NA
HETATM   20  H   UNL     1      39.716 -13.291  -1.563  1.00  0.00     0.126 HD
HETATM   21  H   UNL     1      38.284 -13.769  -0.784  1.00  0.00     0.126 HD
ENDBRANCH  11  19
BRANCH   1  22
HETATM   22  C   UNL     1      42.381 -15.483   4.838  1.00  0.00    -0.007 A 
HETATM   23  C   UNL     1      43.685 -15.394   5.343  1.00  0.00     0.014 A 
HETATM   24  C   UNL     1      43.925 -15.529   6.712  1.00  0.00     0.001 A 
HETATM   25  C   UNL     1      42.863 -15.760   7.585  1.00  0.00     0.000 A 
HETATM   26  C   UNL     1      41.564 -15.857   7.091  1.00  0.00     0.001 A 
HETATM   27  C   UNL     1      41.323 -15.720   5.722  1.00  0.00     0.014 A 
ENDBRANCH   1  22
TORSDOF 3
ENDMDL
MODEL 7
REMARK VINA RESULT:      -8.5      8.149     12.006
REMARK  3 active torsions:
REMARK  status: ('A' for Active; 'I' for Inactive)
REMARK    1  A    between atoms: C_4  and  C_5 
REMARK    2  A    between atoms: C_11  and  C_12 
REMARK    3  A    between atoms: C_21  and  N_22 
ROOT
HETATM    1  C   UNL     1      39.663  -7.695  11.024  1.00  0.00     0.071 A 
HETATM    2  N   UNL     1      38.510  -8.241  10.499  1.00  0.00    -0.274 N 
HETATM    3  H   UNL     1      37.558  -8.084  10.812  1.00  0.00     0.189 HD
HETATM    4  N   UNL     1      38.708  -9.030   9.428  1.00  0.00    -0.148 NA
HETATM    5  C   UNL     1      40.024  -8.975   9.280  1.00  0.00     0.199 A 
HETATM    6  C   UNL     1      40.690  -8.213  10.250  1.00  0.00     0.036 A 
HETATM    7  C   UNL     1      42.183  -8.075  10.230  1.00  0.00     0.079 A 
HETATM    8  C   UNL     1      42.730  -8.718   8.937  1.00  0.00     0.063 A 
HETATM    9  C   UNL     1      44.230  -8.610   8.714  1.00  0.00     0.020 C 
HETATM   10  N   UNL     1      45.474  -8.521   8.529  1.00  0.00    -0.096 N 
HETATM   11  C   UNL     1      41.973  -9.416   8.052  1.00  0.00     0.139 A 
HETATM   12  O   UNL     1      40.600  -9.595   8.236  1.00  0.00    -0.277 OA
ENDROOT
BRANCH   7  13
HETATM   13  C   UNL     1      42.922  -8.651  11.490  1.00  0.00     0.022 C 
HETATM   14  C   UNL     1      43.174  -7.622  12.569  1.00  0.00    -0.025 C 
HETATM   15  C   UNL     1      42.812  -7.777  13.851  1.00  0.00    -0.030 C 
HETATM   16  C   UNL     1      42.056  -8.966  14.356  1.00  0.00     0.027 C 
HETATM   17  C   UNL     1      41.396  -9.769  13.237  1.00  0.00     0.004 C 
HETATM   18  C   UNL     1      42.334  -9.970  12.048  1.00  0.00     0.010 C 
ENDBRANCH   7  13
BRANCH  11  19
HETATM   19  N   UNL     1      42.444 -10.031   6.913  1.00  0.00    -0.282 NA
HETATM   20  H   UNL     1      43.249  -9.597   6.468  1.00  0.00     0.126 HD
HETATM   21  H   UNL     1      42.551 -11.035   7.043  1.00  0.00     0.126 HD
ENDBRANCH  11  19
BRANCH   1  22
HETATM   22  C   UNL     1      39.621  -6.762  12.140  1.00  0.00    -0.007 A 
HETATM   23  C   UNL     1      38.920  -7.086  13.309  1.00  0.00     0.014 A 
HETATM   24  C   UNL     1      38.870  -6.188  14.377  1.00  0.00     0.001 A 
HETATM   25  C   UNL     1      39.516  -4.957  14.282  1.00  0.00     0.000 A 
HETATM   26  C   UNL     1      40.211  -4.623  13.121  1.00  0.00     0.001 A 
HETATM   27  C   UNL     1      40.263  -5.521  12.053  1.00  0.00     0.014 A 
ENDBRANCH   1  22
TORSDOF 3
ENDMDL
MODEL 8
REMARK VINA RESULT:      -8.4      9.278     13.220
REMARK  3 active torsions:
REMARK  status: ('A' for Active; 'I' for Inactive)
REMARK    1  A    between atoms: C_4  and  C_5 
REMARK    2  A    between atoms: C_11  and  C_12 
REMARK    3  A    between atoms: C_21  and  N_22 
ROOT
HETATM    1  C   UNL     1      40.486  -6.197  11.813  1.00  0.00     0.071 A 
HETATM    2  N   UNL     1      39.249  -6.332  11.217  1.00  0.00    -0.274 N 
HETATM    3  H   UNL     1      38.427  -5.757  11.368  1.00  0.00     0.189 HD
HETATM    4  N   UNL     1      39.178  -7.321  10.307  1.00  0.00    -0.148 NA
HETATM    5  C   UNL     1      40.407  -7.817  10.337  1.00  0.00     0.199 A 
HETATM    6  C   UNL     1      41.259  -7.212  11.272  1.00  0.00     0.036 A 
HETATM    7  C   UNL     1      42.673  -7.679  11.439  1.00  0.00     0.079 A 
HETATM    8  C   UNL     1      42.995  -8.715  10.340  1.00  0.00     0.063 A 
HETATM    9  C   UNL     1      44.417  -9.250  10.315  1.00  0.00     0.020 C 
HETATM   10  N   UNL     1      45.597  -9.695  10.294  1.00  0.00    -0.096 N 
HETATM   11  C   UNL     1      42.081  -9.211   9.467  1.00  0.00     0.139 A 
HETATM   12  O   UNL     1      40.747  -8.797   9.483  1.00  0.00    -0.277 OA
ENDROOT
BRANCH   7  13
HETATM   13  C   UNL     1      43.021  -8.253  12.859  1.00  0.00     0.022 C 
HETATM   14  C   UNL     1      43.351  -7.188  13.881  1.00  0.00    -0.025 C 
HETATM   15  C   UNL     1      42.756  -7.089  15.078  1.00  0.00    -0.030 C 
HETATM   16  C   UNL     1      41.646  -7.988  15.524  1.00  0.00     0.027 C 
HETATM   17  C   UNL     1      40.993  -8.743  14.368  1.00  0.00     0.004 C 
HETATM   18  C   UNL     1      42.027  -9.311  13.400  1.00  0.00     0.010 C 
ENDBRANCH   7  13
BRANCH  11  19
HETATM   19  N   UNL     1      42.334 -10.163   8.505  1.00  0.00    -0.282 NA
HETATM   20  H   UNL     1      41.871 -10.030   7.609  1.00  0.00     0.126 HD
HETATM   21  H   UNL     1      43.329 -10.358   8.418  1.00  0.00     0.126 HD
ENDBRANCH  11  19
BRANCH   1  22
HETATM   22  C   UNL     1      40.755  -5.132  12.768  1.00  0.00    -0.007 A 
HETATM   23  C   UNL     1      41.797  -4.222  12.540  1.00  0.00     0.014 A 
HETATM   24  C   UNL     1      42.064  -3.206  13.460  1.00  0.00     0.001 A 
HETATM   25  C   UNL     1      41.296  -3.096  14.618  1.00  0.00     0.000 A 
HETATM   26  C   UNL     1      40.263  -4.001  14.856  1.00  0.00     0.001 A 
HETATM   27  C   UNL     1      39.994  -5.016  13.936  1.00  0.00     0.014 A 
ENDBRANCH   1  22
TORSDOF 3
ENDMDL
MODEL 9
REMARK VINA RESULT:      -8.3      3.206      4.252
REMARK  3 active torsions:
REMARK  status: ('A' for Active; 'I' for Inactive)
REMARK    1  A    between atoms: C_4  and  C_5 
REMARK    2  A    between atoms: C_11  and  C_12 
REMARK    3  A    between atoms: C_21  and  N_22 
ROOT
HETATM    1  C   UNL     1      40.952 -14.444   4.598  1.00  0.00     0.071 A 
HETATM    2  N   UNL     1      40.398 -15.130   5.658  1.00  0.00    -0.274 N 
HETATM    3  H   UNL     1      40.456 -16.126   5.844  1.00  0.00     0.189 HD
HETATM    4  N   UNL     1      39.754 -14.351   6.546  1.00  0.00    -0.148 NA
HETATM    5  C   UNL     1      39.911 -13.144   6.023  1.00  0.00     0.199 A 
HETATM    6  C   UNL     1      40.596 -13.120   4.800  1.00  0.00     0.036 A 
HETATM    7  C   UNL     1      40.831 -11.830   4.074  1.00  0.00     0.079 A 
HETATM    8  C   UNL     1      40.381 -10.657   4.972  1.00  0.00     0.063 A 
HETATM    9  C   UNL     1      40.611  -9.260   4.420  1.00  0.00     0.020 C 
HETATM   10  N   UNL     1      40.801  -8.100   3.962  1.00  0.00    -0.096 N 
HETATM   11  C   UNL     1      39.744 -10.808   6.161  1.00  0.00     0.139 A 
HETATM   12  O   UNL     1      39.455 -12.068   6.689  1.00  0.00    -0.277 OA
ENDROOT
BRANCH   7  13
HETATM   13  C   UNL     1      40.160 -11.732   2.657  1.00  0.00     0.022 C 
HETATM   14  C   UNL     1      41.153 -11.679   1.518  1.00  0.00    -0.025 C 
HETATM   15  C   UNL     1      41.124 -12.502   0.460  1.00  0.00    -0.030 C 
HETATM   16  C   UNL     1      40.137 -13.617   0.310  1.00  0.00     0.027 C 
HETATM   17  C   UNL     1      39.449 -13.981   1.624  1.00  0.00     0.004 C 
HETATM   18  C   UNL     1      39.014 -12.741   2.403  1.00  0.00     0.010 C 
ENDBRANCH   7  13
BRANCH  11  19
HETATM   19  N   UNL     1      39.297  -9.779   6.961  1.00  0.00    -0.282 NA
HETATM   20  H   UNL     1      39.906  -8.968   7.031  1.00  0.00     0.126 HD
HETATM   21  H   UNL     1      38.329  -9.537   6.760  1.00  0.00     0.126 HD
ENDBRANCH  11  19
BRANCH   1  22
HETATM   22  C   UNL     1      41.743 -15.126   3.584  1.00  0.00    -0.007 A 
HETATM   23  C   UNL     1      41.461 -16.454   3.238  1.00  0.00     0.014 A 
HETATM   24  C   UNL     1      42.226 -17.113   2.273  1.00  0.00     0.001 A 
HETATM   25  C   UNL     1      43.282 -16.450   1.650  1.00  0.00     0.000 A 
HETATM   26  C   UNL     1      43.574 -15.131   1.992  1.00  0.00     0.001 A 
HETATM   27  C   UNL     1      42.809 -14.471   2.956  1.00  0.00     0.014 A 
ENDBRANCH   1  22
TORSDOF 3
ENDMDL
MODEL 10
REMARK VINA RESULT:      -8.3     14.138     17.145
REMARK  3 active torsions:
REMARK  status: ('A' for Active; 'I' for Inactive)
REMARK    1  A    between atoms: C_4  and  C_5 
REMARK    2  A    between atoms: C_11  and  C_12 
REMARK    3  A    between atoms: C_21  and  N_22 
ROOT
HETATM    1  C   UNL     1      49.697 -30.210  -0.134  1.00  0.00     0.071 A 
HETATM    2  N   UNL     1      49.699 -29.778   1.176  1.00  0.00    -0.274 N 
HETATM    3  H   UNL     1      50.441 -29.888   1.859  1.00  0.00     0.189 HD
HETATM    4  N   UNL     1      48.594 -29.100   1.538  1.00  0.00    -0.148 NA
HETATM    5  C   UNL     1      47.882 -29.111   0.420  1.00  0.00     0.199 A 
HETATM    6  C   UNL     1      48.469 -29.814  -0.641  1.00  0.00     0.036 A 
HETATM    7  C   UNL     1      47.773 -29.935  -1.963  1.00  0.00     0.079 A 
HETATM    8  C   UNL     1      46.512 -29.044  -1.951  1.00  0.00     0.063 A 
HETATM    9  C   UNL     1      45.714 -28.989  -3.244  1.00  0.00     0.020 C 
HETATM   10  N   UNL     1      45.051 -28.944  -4.316  1.00  0.00    -0.096 N 
HETATM   11  C   UNL     1      46.053 -28.384  -0.857  1.00  0.00     0.139 A 
HETATM   12  O   UNL     1      46.715 -28.446   0.372  1.00  0.00    -0.277 OA
ENDROOT
BRANCH   7  13
HETATM   13  C   UNL     1      47.411 -31.401  -2.394  1.00  0.00     0.022 C 
HETATM   14  C   UNL     1      48.496 -32.084  -3.195  1.00  0.00    -0.025 C 
HETATM   15  C   UNL     1      49.013 -33.282  -2.886  1.00  0.00    -0.030 C 
HETATM   16  C   UNL     1      48.619 -34.062  -1.672  1.00  0.00     0.027 C 
HETATM   17  C   UNL     1      47.897 -33.212  -0.628  1.00  0.00     0.004 C 
HETATM   18  C   UNL     1      46.851 -32.297  -1.262  1.00  0.00     0.010 C 
ENDBRANCH   7  13
BRANCH  11  19
HETATM   19  N   UNL     1      44.911 -27.617  -0.810  1.00  0.00    -0.282 NA
HETATM   20  H   UNL     1      44.687 -27.093  -1.652  1.00  0.00     0.126 HD
HETATM   21  H   UNL     1      44.119 -28.139  -0.441  1.00  0.00     0.126 HD
ENDBRANCH  11  19
BRANCH   1  22
HETATM   22  C   UNL     1      50.844 -30.896  -0.709  1.00  0.00    -0.007 A 
HETATM   23  C   UNL     1      51.342 -30.518  -1.963  1.00  0.00     0.014 A 
HETATM   24  C   UNL     1      52.436 -31.182  -2.521  1.00  0.00     0.001 A 
HETATM   25  C   UNL     1      53.037 -32.234  -1.832  1.00  0.00     0.000 A 
HETATM   26  C   UNL     1      52.545 -32.622  -0.587  1.00  0.00     0.001 A 
HETATM   27  C   UNL     1      51.452 -31.957  -0.027  1.00  0.00     0.014 A 
ENDBRANCH   1  22
TORSDOF 3
ENDMDL
