MODEL 1
REMARK VINA RESULT:      -9.0      0.000      0.000
REMARK  3 active torsions:
REMARK  status: ('A' for Active; 'I' for Inactive)
REMARK    1  A    between atoms: C_5  and  N_6 
REMARK    2  A    between atoms: C_10  and  C_11 
REMARK    3  A    between atoms: C_21  and  O_22 
ROOT
HETATM    1  N   UNL     1      43.307 -15.357   4.470  1.00  0.00    -0.231 N 
HETATM    2  N   UNL     1      42.335 -14.489   3.994  1.00  0.00    -0.257 N 
HETATM    3  C   UNL     1      42.271 -13.413   4.862  1.00  0.00     0.275 C 
HETATM    4  O   UNL     1      41.712 -12.347   4.672  1.00  0.00    -0.266 OA
HETATM    5  C   UNL     1      43.074 -13.767   6.071  1.00  0.00     0.087 C 
HETATM    6  C   UNL     1      43.675 -14.922   5.729  1.00  0.00     0.178 C 
HETATM    7  H   UNL     1      42.169 -14.365   3.007  1.00  0.00     0.191 HD
ENDROOT
BRANCH   5   8
HETATM    8  C   UNL     1      43.231 -12.927   7.223  1.00  0.00     0.035 C 
HETATM    9  C   UNL     1      44.178 -11.998   7.396  1.00  0.00    -0.005 A 
HETATM   10  C   UNL     1      44.328 -11.058   8.499  1.00  0.00     0.004 A 
HETATM   11  C   UNL     1      45.320 -11.672   6.497  1.00  0.00     0.129 A 
HETATM   12  C   UNL     1      45.455 -10.293   8.153  1.00  0.00     0.067 A 
HETATM   13  C   UNL     1      43.608 -10.812   9.654  1.00  0.00     0.014 A 
HETATM   14  C   UNL     1      45.884  -9.262   8.967  1.00  0.00     0.032 A 
HETATM   15  N   UNL     1      46.050 -10.682   6.929  1.00  0.00    -0.259 NA
HETATM   16  C   UNL     1      45.167  -8.999  10.138  1.00  0.00     0.002 A 
HETATM   17  C   UNL     1      44.039  -9.767  10.478  1.00  0.00     0.001 A 
ENDBRANCH   5   8
BRANCH   6  18
HETATM   18  O   UNL     1      44.620 -15.578   6.474  1.00  0.00    -0.344 OA
HETATM   19  H   UNL     1      45.040 -16.257   5.920  1.00  0.00     0.219 HD
ENDBRANCH   6  18
BRANCH   1  20
HETATM   20  C   UNL     1      43.358 -16.655   3.903  1.00  0.00     0.059 A 
HETATM   21  C   UNL     1      42.698 -16.944   2.696  1.00  0.00     0.032 A 
HETATM   22  C   UNL     1      42.780 -18.209   2.097  1.00  0.00     0.009 A 
HETATM   23  C   UNL     1      43.521 -19.229   2.696  1.00  0.00    -0.062 A 
HETATM   24  C   UNL     1      43.656 -20.574   2.048  1.00  0.00     0.048 C 
HETATM   25  C   UNL     1      44.181 -18.961   3.897  1.00  0.00     0.009 A 
HETATM   26  C   UNL     1      44.098 -17.694   4.488  1.00  0.00     0.032 A 
ENDBRANCH   1  20
TORSDOF 3
ENDMDL
MODEL 2
REMARK VINA RESULT:      -8.8      5.177      8.539
REMARK  3 active torsions:
REMARK  status: ('A' for Active; 'I' for Inactive)
REMARK    1  A    between atoms: C_5  and  N_6 
REMARK    2  A    between atoms: C_10  and  C_11 
REMARK    3  A    between atoms: C_21  and  O_22 
ROOT
HETATM    1  N   UNL     1      40.586 -13.346   0.901  1.00  0.00    -0.231 N 
HETATM    2  N   UNL     1      41.730 -12.842   1.504  1.00  0.00    -0.257 N 
HETATM    3  C   UNL     1      42.581 -13.906   1.745  1.00  0.00     0.275 C 
HETATM    4  O   UNL     1      43.759 -13.850   2.049  1.00  0.00    -0.266 OA
HETATM    5  C   UNL     1      41.807 -15.160   1.503  1.00  0.00     0.087 C 
HETATM    6  C   UNL     1      40.648 -14.725   0.974  1.00  0.00     0.178 C 
HETATM    7  H   UNL     1      42.095 -11.931   1.273  1.00  0.00     0.191 HD
ENDROOT
BRANCH   5   8
HETATM    8  C   UNL     1      42.325 -16.487   1.678  1.00  0.00     0.035 C 
HETATM    9  C   UNL     1      42.806 -17.001   2.815  1.00  0.00    -0.005 A 
HETATM   10  C   UNL     1      43.256 -18.363   3.070  1.00  0.00     0.004 A 
HETATM   11  C   UNL     1      42.992 -16.317   4.125  1.00  0.00     0.129 A 
HETATM   12  C   UNL     1      43.614 -18.363   4.429  1.00  0.00     0.067 A 
HETATM   13  C   UNL     1      43.336 -19.507   2.296  1.00  0.00     0.014 A 
HETATM   14  C   UNL     1      44.064 -19.518   5.039  1.00  0.00     0.032 A 
HETATM   15  N   UNL     1      43.449 -17.105   5.057  1.00  0.00    -0.259 NA
HETATM   16  C   UNL     1      44.150 -20.683   4.272  1.00  0.00     0.002 A 
HETATM   17  C   UNL     1      43.789 -20.677   2.913  1.00  0.00     0.001 A 
ENDBRANCH   5   8
BRANCH   6  18
HETATM   18  O   UNL     1      39.655 -15.523   0.469  1.00  0.00    -0.344 OA
HETATM   19  H   UNL     1      39.971 -15.935  -0.352  1.00  0.00     0.219 HD
ENDBRANCH   6  18
BRANCH   1  20
HETATM   20  C   UNL     1      39.461 -12.489   0.813  1.00  0.00     0.059 A 
HETATM   21  C   UNL     1      38.832 -12.246  -0.420  1.00  0.00     0.032 A 
HETATM   22  C   UNL     1      37.689 -11.440  -0.517  1.00  0.00     0.009 A 
HETATM   23  C   UNL     1      37.145 -10.843   0.622  1.00  0.00    -0.062 A 
HETATM   24  C   UNL     1      35.899 -10.014   0.544  1.00  0.00     0.048 C 
HETATM   25  C   UNL     1      37.759 -11.070   1.855  1.00  0.00     0.009 A 
HETATM   26  C   UNL     1      38.898 -11.880   1.945  1.00  0.00     0.032 A 
ENDBRANCH   1  20
TORSDOF 3
ENDMDL
MODEL 3
REMARK VINA RESULT:      -8.7      1.769      2.264
REMARK  3 active torsions:
REMARK  status: ('A' for Active; 'I' for Inactive)
REMARK    1  A    between atoms: C_5  and  N_6 
REMARK    2  A    between atoms: C_10  and  C_11 
REMARK    3  A    between atoms: C_21  and  O_22 
ROOT
HETATM    1  N   UNL     1      41.677 -14.714   4.411  1.00  0.00    -0.231 N 
HETATM    2  N   UNL     1      40.513 -14.839   5.157  1.00  0.00    -0.257 N 
HETATM    3  C   UNL     1      40.307 -13.639   5.816  1.00  0.00     0.275 C 
HETATM    4  O   UNL     1      39.290 -13.277   6.381  1.00  0.00    -0.266 OA
HETATM    5  C   UNL     1      41.549 -12.825   5.659  1.00  0.00     0.087 C 
HETATM    6  C   UNL     1      42.287 -13.531   4.783  1.00  0.00     0.178 C 
HETATM    7  H   UNL     1      39.733 -15.393   4.837  1.00  0.00     0.191 HD
ENDROOT
BRANCH   5   8
HETATM    8  C   UNL     1      41.750 -11.523   6.229  1.00  0.00     0.035 C 
HETATM    9  C   UNL     1      42.782 -11.149   6.994  1.00  0.00    -0.005 A 
HETATM   10  C   UNL     1      43.082  -9.824   7.518  1.00  0.00     0.004 A 
HETATM   11  C   UNL     1      43.904 -11.990   7.496  1.00  0.00     0.129 A 
HETATM   12  C   UNL     1      44.293  -9.990   8.211  1.00  0.00     0.067 A 
HETATM   13  C   UNL     1      42.463  -8.590   7.418  1.00  0.00     0.014 A 
HETATM   14  C   UNL     1      44.908  -8.914   8.823  1.00  0.00     0.032 A 
HETATM   15  N   UNL     1      44.780 -11.319   8.189  1.00  0.00    -0.259 NA
HETATM   16  C   UNL     1      44.297  -7.661   8.731  1.00  0.00     0.002 A 
HETATM   17  C   UNL     1      43.085  -7.501   8.035  1.00  0.00     0.001 A 
ENDBRANCH   5   8
BRANCH   6  18
HETATM   18  O   UNL     1      43.472 -13.122   4.228  1.00  0.00    -0.344 OA
HETATM   19  H   UNL     1      43.986 -12.648   4.902  1.00  0.00     0.219 HD
ENDBRANCH   6  18
BRANCH   1  20
HETATM   20  C   UNL     1      42.238 -15.899   3.872  1.00  0.00     0.059 A 
HETATM   21  C   UNL     1      43.199 -16.635   4.587  1.00  0.00     0.032 A 
HETATM   22  C   UNL     1      43.726 -17.835   4.089  1.00  0.00     0.009 A 
HETATM   23  C   UNL     1      43.312 -18.330   2.852  1.00  0.00    -0.062 A 
HETATM   24  C   UNL     1      43.833 -19.634   2.325  1.00  0.00     0.048 C 
HETATM   25  C   UNL     1      42.362 -17.611   2.126  1.00  0.00     0.009 A 
HETATM   26  C   UNL     1      41.835 -16.415   2.631  1.00  0.00     0.032 A 
ENDBRANCH   1  20
TORSDOF 3
ENDMDL
MODEL 4
REMARK VINA RESULT:      -8.5      2.125      8.759
REMARK  3 active torsions:
REMARK  status: ('A' for Active; 'I' for Inactive)
REMARK    1  A    between atoms: C_5  and  N_6 
REMARK    2  A    between atoms: C_10  and  C_11 
REMARK    3  A    between atoms: C_21  and  O_22 
ROOT
HETATM    1  N   UNL     1      43.985 -10.132   8.277  1.00  0.00    -0.231 N 
HETATM    2  N   UNL     1      45.307 -10.487   8.045  1.00  0.00    -0.257 N 
HETATM    3  C   UNL     1      45.346 -11.211   6.866  1.00  0.00     0.275 C 
HETATM    4  O   UNL     1      46.334 -11.501   6.215  1.00  0.00    -0.266 OA
HETATM    5  C   UNL     1      43.936 -11.528   6.491  1.00  0.00     0.087 C 
HETATM    6  C   UNL     1      43.203 -10.817   7.367  1.00  0.00     0.178 C 
HETATM    7  H   UNL     1      46.073  -9.886   8.307  1.00  0.00     0.191 HD
ENDROOT
BRANCH   5   8
HETATM    8  C   UNL     1      43.549 -12.298   5.343  1.00  0.00     0.035 C 
HETATM    9  C   UNL     1      43.378 -13.624   5.306  1.00  0.00    -0.005 A 
HETATM   10  C   UNL     1      42.899 -14.441   4.199  1.00  0.00     0.004 A 
HETATM   11  C   UNL     1      43.618 -14.612   6.395  1.00  0.00     0.129 A 
HETATM   12  C   UNL     1      42.874 -15.747   4.716  1.00  0.00     0.067 A 
HETATM   13  C   UNL     1      42.485 -14.160   2.908  1.00  0.00     0.014 A 
HETATM   14  C   UNL     1      42.433 -16.804   3.941  1.00  0.00     0.032 A 
HETATM   15  N   UNL     1      43.318 -15.834   6.057  1.00  0.00    -0.259 NA
HETATM   16  C   UNL     1      42.010 -16.537   2.636  1.00  0.00     0.002 A 
HETATM   17  C   UNL     1      42.036 -15.227   2.124  1.00  0.00     0.001 A 
ENDBRANCH   5   8
BRANCH   6  18
HETATM   18  O   UNL     1      41.838 -10.686   7.342  1.00  0.00    -0.344 OA
HETATM   19  H   UNL     1      41.457 -11.470   6.913  1.00  0.00     0.219 HD
ENDBRANCH   6  18
BRANCH   1  20
HETATM   20  C   UNL     1      43.660  -9.627   9.560  1.00  0.00     0.059 A 
HETATM   21  C   UNL     1      43.608 -10.475  10.680  1.00  0.00     0.032 A 
HETATM   22  C   UNL     1      43.336  -9.982  11.964  1.00  0.00     0.009 A 
HETATM   23  C   UNL     1      43.099  -8.621  12.165  1.00  0.00    -0.062 A 
HETATM   24  C   UNL     1      42.851  -8.070  13.537  1.00  0.00     0.048 C 
HETATM   25  C   UNL     1      43.143  -7.764  11.064  1.00  0.00     0.009 A 
HETATM   26  C   UNL     1      43.420  -8.262   9.784  1.00  0.00     0.032 A 
ENDBRANCH   1  20
TORSDOF 3
ENDMDL
MODEL 5
REMARK VINA RESULT:      -8.3      4.709      7.883
REMARK  3 active torsions:
REMARK  status: ('A' for Active; 'I' for Inactive)
REMARK    1  A    between atoms: C_5  and  N_6 
REMARK    2  A    between atoms: C_10  and  C_11 
REMARK    3  A    between atoms: C_21  and  O_22 
ROOT
HETATM    1  N   UNL     1      42.350 -15.063   3.424  1.00  0.00    -0.231 N 
HETATM    2  N   UNL     1      43.223 -13.988   3.338  1.00  0.00    -0.257 N 
HETATM    3  C   UNL     1      42.555 -12.955   2.703  1.00  0.00     0.275 C 
HETATM    4  O   UNL     1      42.897 -11.787   2.642  1.00  0.00    -0.266 OA
HETATM    5  C   UNL     1      41.288 -13.518   2.148  1.00  0.00     0.087 C 
HETATM    6  C   UNL     1      41.240 -14.763   2.657  1.00  0.00     0.178 C 
HETATM    7  H   UNL     1      43.905 -13.797   4.056  1.00  0.00     0.191 HD
ENDROOT
BRANCH   5   8
HETATM    8  C   UNL     1      40.327 -12.773   1.386  1.00  0.00     0.035 C 
HETATM    9  C   UNL     1      39.827 -13.120   0.195  1.00  0.00    -0.005 A 
HETATM   10  C   UNL     1      38.787 -12.451  -0.575  1.00  0.00     0.004 A 
HETATM   11  C   UNL     1      40.194 -14.290  -0.649  1.00  0.00     0.129 A 
HETATM   12  C   UNL     1      38.626 -13.257  -1.715  1.00  0.00     0.067 A 
HETATM   13  C   UNL     1      38.013 -11.323  -0.365  1.00  0.00     0.014 A 
HETATM   14  C   UNL     1      37.681 -12.942  -2.674  1.00  0.00     0.032 A 
HETATM   15  N   UNL     1      39.495 -14.375  -1.745  1.00  0.00    -0.259 NA
HETATM   16  C   UNL     1      36.890 -11.807  -2.476  1.00  0.00     0.002 A 
HETATM   17  C   UNL     1      37.055 -11.005  -1.333  1.00  0.00     0.001 A 
ENDBRANCH   5   8
BRANCH   6  18
HETATM   18  O   UNL     1      40.190 -15.636   2.530  1.00  0.00    -0.344 OA
HETATM   19  H   UNL     1      40.269 -16.097   1.679  1.00  0.00     0.219 HD
ENDBRANCH   6  18
BRANCH   1  20
HETATM   20  C   UNL     1      42.896 -16.320   3.785  1.00  0.00     0.059 A 
HETATM   21  C   UNL     1      43.038 -16.687   5.135  1.00  0.00     0.032 A 
HETATM   22  C   UNL     1      43.529 -17.946   5.507  1.00  0.00     0.009 A 
HETATM   23  C   UNL     1      43.903 -18.876   4.536  1.00  0.00    -0.062 A 
HETATM   24  C   UNL     1      44.389 -20.242   4.916  1.00  0.00     0.048 C 
HETATM   25  C   UNL     1      43.772 -18.528   3.190  1.00  0.00     0.009 A 
HETATM   26  C   UNL     1      43.276 -17.270   2.824  1.00  0.00     0.032 A 
ENDBRANCH   1  20
TORSDOF 3
ENDMDL
MODEL 6
REMARK VINA RESULT:      -8.2      5.545      7.534
REMARK  3 active torsions:
REMARK  status: ('A' for Active; 'I' for Inactive)
REMARK    1  A    between atoms: C_5  and  N_6 
REMARK    2  A    between atoms: C_10  and  C_11 
REMARK    3  A    between atoms: C_21  and  O_22 
ROOT
HETATM    1  N   UNL     1      41.876 -16.250   2.696  1.00  0.00    -0.231 N 
HETATM    2  N   UNL     1      40.905 -15.639   3.476  1.00  0.00    -0.257 N 
HETATM    3  C   UNL     1      40.564 -14.446   2.863  1.00  0.00     0.275 C 
HETATM    4  O   UNL     1      39.603 -13.740   3.111  1.00  0.00    -0.266 OA
HETATM    5  C   UNL     1      41.565 -14.198   1.782  1.00  0.00     0.087 C 
HETATM    6  C   UNL     1      42.279 -15.338   1.739  1.00  0.00     0.178 C 
HETATM    7  H   UNL     1      40.216 -16.173   3.984  1.00  0.00     0.191 HD
ENDROOT
BRANCH   5   8
HETATM    8  C   UNL     1      41.581 -13.042   0.932  1.00  0.00     0.035 C 
HETATM    9  C   UNL     1      40.852 -12.870  -0.177  1.00  0.00    -0.005 A 
HETATM   10  C   UNL     1      40.761 -11.687  -1.021  1.00  0.00     0.004 A 
HETATM   11  C   UNL     1      39.931 -13.842  -0.829  1.00  0.00     0.129 A 
HETATM   12  C   UNL     1      39.829 -12.039  -2.013  1.00  0.00     0.067 A 
HETATM   13  C   UNL     1      41.340 -10.431  -0.979  1.00  0.00     0.014 A 
HETATM   14  C   UNL     1      39.462 -11.131  -2.988  1.00  0.00     0.032 A 
HETATM   15  N   UNL     1      39.334 -13.358  -1.882  1.00  0.00    -0.259 NA
HETATM   16  C   UNL     1      40.037  -9.857  -2.959  1.00  0.00     0.002 A 
HETATM   17  C   UNL     1      40.968  -9.511  -1.963  1.00  0.00     0.001 A 
ENDBRANCH   5   8
BRANCH   6  18
HETATM   18  O   UNL     1      43.242 -15.639   0.811  1.00  0.00    -0.344 OA
HETATM   19  H   UNL     1      43.404 -16.597   0.828  1.00  0.00     0.219 HD
ENDBRANCH   6  18
BRANCH   1  20
HETATM   20  C   UNL     1      42.575 -17.345   3.262  1.00  0.00     0.059 A 
HETATM   21  C   UNL     1      42.893 -18.477   2.491  1.00  0.00     0.032 A 
HETATM   22  C   UNL     1      43.627 -19.547   3.023  1.00  0.00     0.009 A 
HETATM   23  C   UNL     1      44.058 -19.519   4.350  1.00  0.00    -0.062 A 
HETATM   24  C   UNL     1      44.881 -20.634   4.922  1.00  0.00     0.048 C 
HETATM   25  C   UNL     1      43.749 -18.405   5.132  1.00  0.00     0.009 A 
HETATM   26  C   UNL     1      43.019 -17.337   4.593  1.00  0.00     0.032 A 
ENDBRANCH   1  20
TORSDOF 3
ENDMDL
MODEL 7
REMARK VINA RESULT:      -8.0      2.593      9.057
REMARK  3 active torsions:
REMARK  status: ('A' for Active; 'I' for Inactive)
REMARK    1  A    between atoms: C_5  and  N_6 
REMARK    2  A    between atoms: C_10  and  C_11 
REMARK    3  A    between atoms: C_21  and  O_22 
ROOT
HETATM    1  N   UNL     1      43.871  -9.383   8.501  1.00  0.00    -0.231 N 
HETATM    2  N   UNL     1      45.214  -9.704   8.362  1.00  0.00    -0.257 N 
HETATM    3  C   UNL     1      45.300 -10.787   7.504  1.00  0.00     0.275 C 
HETATM    4  O   UNL     1      46.303 -11.216   6.961  1.00  0.00    -0.266 OA
HETATM    5  C   UNL     1      43.916 -11.311   7.308  1.00  0.00     0.087 C 
HETATM    6  C   UNL     1      43.137 -10.393   7.909  1.00  0.00     0.178 C 
HETATM    7  H   UNL     1      45.934  -8.998   8.375  1.00  0.00     0.191 HD
ENDROOT
BRANCH   5   8
HETATM    8  C   UNL     1      43.581 -12.456   6.510  1.00  0.00     0.035 C 
HETATM    9  C   UNL     1      43.439 -12.473   5.179  1.00  0.00    -0.005 A 
HETATM   10  C   UNL     1      43.193 -13.619   4.314  1.00  0.00     0.004 A 
HETATM   11  C   UNL     1      43.513 -11.326   4.233  1.00  0.00     0.129 A 
HETATM   12  C   UNL     1      43.176 -13.078   3.017  1.00  0.00     0.067 A 
HETATM   13  C   UNL     1      43.035 -14.975   4.540  1.00  0.00     0.014 A 
HETATM   14  C   UNL     1      42.997 -13.893   1.916  1.00  0.00     0.032 A 
HETATM   15  N   UNL     1      43.371 -11.676   2.986  1.00  0.00    -0.259 NA
HETATM   16  C   UNL     1      42.836 -15.265   2.126  1.00  0.00     0.002 A 
HETATM   17  C   UNL     1      42.855 -15.801   3.426  1.00  0.00     0.001 A 
ENDBRANCH   5   8
BRANCH   6  18
HETATM   18  O   UNL     1      41.766 -10.374   7.886  1.00  0.00    -0.344 OA
HETATM   19  H   UNL     1      41.455 -11.027   7.237  1.00  0.00     0.219 HD
ENDBRANCH   6  18
BRANCH   1  20
HETATM   20  C   UNL     1      43.517  -8.488   9.541  1.00  0.00     0.059 A 
HETATM   21  C   UNL     1      43.076  -7.184   9.255  1.00  0.00     0.032 A 
HETATM   22  C   UNL     1      42.675  -6.304  10.270  1.00  0.00     0.009 A 
HETATM   23  C   UNL     1      42.713  -6.701  11.607  1.00  0.00    -0.062 A 
HETATM   24  C   UNL     1      42.247  -5.789  12.702  1.00  0.00     0.048 C 
HETATM   25  C   UNL     1      43.152  -7.991  11.911  1.00  0.00     0.009 A 
HETATM   26  C   UNL     1      43.547  -8.867  10.892  1.00  0.00     0.032 A 
ENDBRANCH   1  20
TORSDOF 3
ENDMDL
MODEL 8
REMARK VINA RESULT:      -8.0      4.969      7.360
REMARK  3 active torsions:
REMARK  status: ('A' for Active; 'I' for Inactive)
REMARK    1  A    between atoms: C_5  and  N_6 
REMARK    2  A    between atoms: C_10  and  C_11 
REMARK    3  A    between atoms: C_21  and  O_22 
ROOT
HETATM    1  N   UNL     1      42.416 -15.638   3.073  1.00  0.00    -0.231 N 
HETATM    2  N   UNL     1      43.199 -14.494   3.143  1.00  0.00    -0.257 N 
HETATM    3  C   UNL     1      42.588 -13.520   2.372  1.00  0.00     0.275 C 
HETATM    4  O   UNL     1      42.840 -12.328   2.361  1.00  0.00    -0.266 OA
HETATM    5  C   UNL     1      41.506 -14.185   1.587  1.00  0.00     0.087 C 
HETATM    6  C   UNL     1      41.459 -15.430   2.097  1.00  0.00     0.178 C 
HETATM    7  H   UNL     1      43.707 -14.247   3.979  1.00  0.00     0.191 HD
ENDROOT
BRANCH   5   8
HETATM    8  C   UNL     1      40.658 -13.521   0.639  1.00  0.00     0.035 C 
HETATM    9  C   UNL     1      39.601 -12.754   0.930  1.00  0.00    -0.005 A 
HETATM   10  C   UNL     1      38.766 -11.986   0.017  1.00  0.00     0.004 A 
HETATM   11  C   UNL     1      39.012 -12.473   2.269  1.00  0.00     0.129 A 
HETATM   12  C   UNL     1      37.840 -11.340   0.853  1.00  0.00     0.067 A 
HETATM   13  C   UNL     1      38.770 -11.791  -1.353  1.00  0.00     0.014 A 
HETATM   14  C   UNL     1      36.892 -10.483   0.325  1.00  0.00     0.032 A 
HETATM   15  N   UNL     1      38.002 -11.650   2.224  1.00  0.00    -0.259 NA
HETATM   16  C   UNL     1      36.884 -10.274  -1.057  1.00  0.00     0.002 A 
HETATM   17  C   UNL     1      37.814 -10.923  -1.888  1.00  0.00     0.001 A 
ENDBRANCH   5   8
BRANCH   6  18
HETATM   18  O   UNL     1      40.529 -16.386   1.779  1.00  0.00    -0.344 OA
HETATM   19  H   UNL     1      40.271 -16.853   2.591  1.00  0.00     0.219 HD
ENDBRANCH   6  18
BRANCH   1  20
HETATM   20  C   UNL     1      42.979 -16.845   3.554  1.00  0.00     0.059 A 
HETATM   21  C   UNL     1      43.116 -17.080   4.934  1.00  0.00     0.032 A 
HETATM   22  C   UNL     1      43.625 -18.290   5.427  1.00  0.00     0.009 A 
HETATM   23  C   UNL     1      44.022 -19.301   4.550  1.00  0.00    -0.062 A 
HETATM   24  C   UNL     1      44.527 -20.617   5.061  1.00  0.00     0.048 C 
HETATM   25  C   UNL     1      43.896 -19.085   3.177  1.00  0.00     0.009 A 
HETATM   26  C   UNL     1      43.382 -17.875   2.690  1.00  0.00     0.032 A 
ENDBRANCH   1  20
TORSDOF 3
ENDMDL
MODEL 9
REMARK VINA RESULT:      -8.0      2.728      4.643
REMARK  3 active torsions:
REMARK  status: ('A' for Active; 'I' for Inactive)
REMARK    1  A    between atoms: C_5  and  N_6 
REMARK    2  A    between atoms: C_10  and  C_11 
REMARK    3  A    between atoms: C_21  and  O_22 
ROOT
HETATM    1  N   UNL     1      43.723 -12.177   6.314  1.00  0.00    -0.231 N 
HETATM    2  N   UNL     1      45.053 -11.904   6.606  1.00  0.00    -0.257 N 
HETATM    3  C   UNL     1      45.076 -10.919   7.578  1.00  0.00     0.275 C 
HETATM    4  O   UNL     1      46.031 -10.574   8.251  1.00  0.00    -0.266 OA
HETATM    5  C   UNL     1      43.687 -10.385   7.704  1.00  0.00     0.087 C 
HETATM    6  C   UNL     1      42.953 -11.216   6.942  1.00  0.00     0.178 C 
HETATM    7  H   UNL     1      45.761 -12.622   6.582  1.00  0.00     0.191 HD
ENDROOT
BRANCH   5   8
HETATM    8  C   UNL     1      43.297  -9.322   8.587  1.00  0.00     0.035 C 
HETATM    9  C   UNL     1      43.235  -9.390   9.921  1.00  0.00    -0.005 A 
HETATM   10  C   UNL     1      42.937  -8.322  10.865  1.00  0.00     0.004 A 
HETATM   11  C   UNL     1      43.470 -10.576  10.792  1.00  0.00     0.129 A 
HETATM   12  C   UNL     1      43.048  -8.932  12.127  1.00  0.00     0.067 A 
HETATM   13  C   UNL     1      42.642  -6.977  10.730  1.00  0.00     0.014 A 
HETATM   14  C   UNL     1      42.861  -8.198  13.283  1.00  0.00     0.032 A 
HETATM   15  N   UNL     1      43.372 -10.308  12.063  1.00  0.00    -0.259 NA
HETATM   16  C   UNL     1      42.563  -6.838  13.164  1.00  0.00     0.002 A 
HETATM   17  C   UNL     1      42.455  -6.233  11.899  1.00  0.00     0.001 A 
ENDBRANCH   5   8
BRANCH   6  18
HETATM   18  O   UNL     1      41.586 -11.205   6.840  1.00  0.00    -0.344 OA
HETATM   19  H   UNL     1      41.256 -12.110   6.962  1.00  0.00     0.219 HD
ENDBRANCH   6  18
BRANCH   1  20
HETATM   20  C   UNL     1      43.453 -12.949   5.158  1.00  0.00     0.059 A 
HETATM   21  C   UNL     1      43.151 -14.318   5.256  1.00  0.00     0.032 A 
HETATM   22  C   UNL     1      42.832 -15.085   4.126  1.00  0.00     0.009 A 
HETATM   23  C   UNL     1      42.816 -14.503   2.858  1.00  0.00    -0.062 A 
HETATM   24  C   UNL     1      42.436 -15.297   1.645  1.00  0.00     0.048 C 
HETATM   25  C   UNL     1      43.118 -13.145   2.739  1.00  0.00     0.009 A 
HETATM   26  C   UNL     1      43.430 -12.384   3.873  1.00  0.00     0.032 A 
ENDBRANCH   1  20
TORSDOF 3
ENDMDL
MODEL 10
REMARK VINA RESULT:      -7.9      2.400      8.955
REMARK  3 active torsions:
REMARK  status: ('A' for Active; 'I' for Inactive)
REMARK    1  A    between atoms: C_5  and  N_6 
REMARK    2  A    between atoms: C_10  and  C_11 
REMARK    3  A    between atoms: C_21  and  O_22 
ROOT
HETATM    1  N   UNL     1      43.725  -9.655   7.783  1.00  0.00    -0.231 N 
HETATM    2  N   UNL     1      45.082  -9.927   7.673  1.00  0.00    -0.257 N 
HETATM    3  C   UNL     1      45.217 -11.101   6.953  1.00  0.00     0.275 C 
HETATM    4  O   UNL     1      46.237 -11.545   6.457  1.00  0.00    -0.266 OA
HETATM    5  C   UNL     1      43.858 -11.710   6.833  1.00  0.00     0.087 C 
HETATM    6  C   UNL     1      43.038 -10.763   7.325  1.00  0.00     0.178 C 
HETATM    7  H   UNL     1      45.768  -9.192   7.595  1.00  0.00     0.191 HD
ENDROOT
BRANCH   5   8
HETATM    8  C   UNL     1      43.576 -12.957   6.182  1.00  0.00     0.035 C 
HETATM    9  C   UNL     1      43.343 -13.128   4.876  1.00  0.00    -0.005 A 
HETATM   10  C   UNL     1      43.144 -14.376   4.152  1.00  0.00     0.004 A 
HETATM   11  C   UNL     1      43.241 -12.086   3.817  1.00  0.00     0.129 A 
HETATM   12  C   UNL     1      42.985 -13.980   2.813  1.00  0.00     0.067 A 
HETATM   13  C   UNL     1      43.130 -15.709   4.523  1.00  0.00     0.014 A 
HETATM   14  C   UNL     1      42.804 -14.920   1.816  1.00  0.00     0.032 A 
HETATM   15  N   UNL     1      43.044 -12.578   2.627  1.00  0.00    -0.259 NA
HETATM   16  C   UNL     1      42.788 -16.271   2.174  1.00  0.00     0.002 A 
HETATM   17  C   UNL     1      42.950 -16.662   3.515  1.00  0.00     0.001 A 
ENDBRANCH   5   8
BRANCH   6  18
HETATM   18  O   UNL     1      41.668 -10.810   7.310  1.00  0.00    -0.344 OA
HETATM   19  H   UNL     1      41.335 -10.065   6.783  1.00  0.00     0.219 HD
ENDBRANCH   6  18
BRANCH   1  20
HETATM   20  C   UNL     1      43.332  -8.658   8.709  1.00  0.00     0.059 A 
HETATM   21  C   UNL     1      43.422  -8.881  10.095  1.00  0.00     0.032 A 
HETATM   22  C   UNL     1      43.084  -7.886  11.023  1.00  0.00     0.009 A 
HETATM   23  C   UNL     1      42.634  -6.638  10.592  1.00  0.00    -0.062 A 
HETATM   24  C   UNL     1      42.310  -5.549  11.570  1.00  0.00     0.048 C 
HETATM   25  C   UNL     1      42.535  -6.399   9.220  1.00  0.00     0.009 A 
HETATM   26  C   UNL     1      42.879  -7.395   8.297  1.00  0.00     0.032 A 
ENDBRANCH   1  20
TORSDOF 3
ENDMDL
