MODEL 1
REMARK VINA RESULT:      -9.3      0.000      0.000
REMARK  4 active torsions:
REMARK  status: ('A' for Active; 'I' for Inactive)
REMARK    1  A    between atoms: C_3  and  C_4 
REMARK    2  A    between atoms: C_9  and  N_10 
REMARK       I    between atoms: N_10  and  C_11 
REMARK    3  A    between atoms: C_11  and  C_12 
REMARK    4  A    between atoms: C_12  and  C_13 
ROOT
HETATM    1  N   UNL     1      43.008 -13.683   6.821  1.00  0.00    -0.327 N 
HETATM    2  C   UNL     1      42.820 -14.858   7.509  1.00  0.00     0.227 C 
HETATM    3  O   UNL     1      43.392 -15.166   8.555  1.00  0.00    -0.273 OA
HETATM    4  H   UNL     1      42.485 -13.596   5.950  1.00  0.00     0.169 HD
ENDROOT
BRANCH   2   5
HETATM    5  C   UNL     1      41.836 -15.850   6.915  1.00  0.00     0.165 C 
BRANCH   5   6
HETATM    6  C   UNL     1      41.518 -15.872   5.431  1.00  0.00     0.074 A 
HETATM    7  N   UNL     1      40.567 -15.114   4.968  1.00  0.00    -0.175 NA
HETATM    8  N   UNL     1      40.291 -15.152   3.637  1.00  0.00    -0.243 N 
HETATM    9  C   UNL     1      40.924 -15.931   2.700  1.00  0.00     0.272 A 
HETATM   10  H   UNL     1      39.542 -14.554   3.300  1.00  0.00     0.192 HD
HETATM   11  O   UNL     1      40.606 -15.917   1.516  1.00  0.00    -0.266 OA
HETATM   12  C   UNL     1      42.016 -16.782   3.196  1.00  0.00     0.046 A 
HETATM   13  C   UNL     1      42.332 -16.756   4.552  1.00  0.00     0.006 A 
HETATM   14  C   UNL     1      42.731 -17.595   2.309  1.00  0.00     0.018 A 
HETATM   15  C   UNL     1      43.389 -17.546   5.023  1.00  0.00     0.014 A 
HETATM   16  C   UNL     1      44.105 -18.359   4.139  1.00  0.00     0.001 A 
HETATM   17  C   UNL     1      43.775 -18.386   2.785  1.00  0.00     0.001 A 
ENDBRANCH   5   6
ENDBRANCH   2   5
BRANCH   1  18
HETATM   18  C   UNL     1      43.834 -12.594   7.157  1.00  0.00     0.035 A 
HETATM   19  C   UNL     1      43.657 -11.790   8.283  1.00  0.00     0.046 A 
HETATM   20  C   UNL     1      44.522 -10.708   8.557  1.00  0.00     0.056 A 
HETATM   21  C   UNL     1      45.599 -10.448   7.683  1.00  0.00    -0.047 A 
HETATM   22  C   UNL     1      46.553  -9.307   7.919  1.00  0.00     0.049 C 
HETATM   23  C   UNL     1      45.763 -11.249   6.546  1.00  0.00     0.010 A 
HETATM   24  C   UNL     1      44.892 -12.310   6.288  1.00  0.00     0.030 A 
BRANCH  20  25
HETATM   25  C   UNL     1      44.284  -9.869   9.795  1.00  0.00     0.418 C 
HETATM   26  F   UNL     1      43.234 -10.313  10.543  1.00  0.00    -0.166 F 
HETATM   27  F   UNL     1      45.344  -9.830  10.649  1.00  0.00    -0.166 F 
HETATM   28  F   UNL     1      44.004  -8.569   9.496  1.00  0.00    -0.166 F 
ENDBRANCH  20  25
ENDBRANCH   1  18
TORSDOF 4
ENDMDL
MODEL 2
REMARK VINA RESULT:      -9.1      6.720      8.631
REMARK  4 active torsions:
REMARK  status: ('A' for Active; 'I' for Inactive)
REMARK    1  A    between atoms: C_3  and  C_4 
REMARK    2  A    between atoms: C_9  and  N_10 
REMARK       I    between atoms: N_10  and  C_11 
REMARK    3  A    between atoms: C_11  and  C_12 
REMARK    4  A    between atoms: C_12  and  C_13 
ROOT
HETATM    1  N   UNL     1      41.868 -14.416   0.938  1.00  0.00    -0.327 N 
HETATM    2  C   UNL     1      41.857 -15.604   1.628  1.00  0.00     0.227 C 
HETATM    3  O   UNL     1      40.852 -16.280   1.858  1.00  0.00    -0.273 OA
HETATM    4  H   UNL     1      42.778 -13.960   0.864  1.00  0.00     0.169 HD
ENDROOT
BRANCH   2   5
HETATM    5  C   UNL     1      43.190 -16.106   2.151  1.00  0.00     0.165 C 
BRANCH   5   6
HETATM    6  C   UNL     1      43.351 -16.626   3.568  1.00  0.00     0.074 A 
HETATM    7  N   UNL     1      43.287 -15.795   4.567  1.00  0.00    -0.175 NA
HETATM    8  N   UNL     1      43.440 -16.277   5.829  1.00  0.00    -0.243 N 
HETATM    9  C   UNL     1      43.665 -17.587   6.174  1.00  0.00     0.272 A 
HETATM   10  H   UNL     1      43.391 -15.608   6.592  1.00  0.00     0.192 HD
HETATM   11  O   UNL     1      43.806 -17.941   7.340  1.00  0.00    -0.266 OA
HETATM   12  C   UNL     1      43.720 -18.549   5.064  1.00  0.00     0.046 A 
HETATM   13  C   UNL     1      43.555 -18.089   3.760  1.00  0.00     0.006 A 
HETATM   14  C   UNL     1      43.925 -19.910   5.322  1.00  0.00     0.018 A 
HETATM   15  C   UNL     1      43.580 -19.007   2.701  1.00  0.00     0.014 A 
HETATM   16  C   UNL     1      43.785 -20.366   2.958  1.00  0.00     0.001 A 
HETATM   17  C   UNL     1      43.961 -20.817   4.265  1.00  0.00     0.001 A 
ENDBRANCH   5   6
ENDBRANCH   2   5
BRANCH   1  18
HETATM   18  C   UNL     1      40.790 -13.743   0.332  1.00  0.00     0.035 A 
HETATM   19  C   UNL     1      40.123 -14.193  -0.807  1.00  0.00     0.046 A 
HETATM   20  C   UNL     1      39.051 -13.464  -1.367  1.00  0.00     0.056 A 
HETATM   21  C   UNL     1      38.633 -12.266  -0.748  1.00  0.00    -0.047 A 
HETATM   22  C   UNL     1      37.500 -11.443  -1.298  1.00  0.00     0.049 C 
HETATM   23  C   UNL     1      39.316 -11.813   0.388  1.00  0.00     0.010 A 
HETATM   24  C   UNL     1      40.380 -12.544   0.922  1.00  0.00     0.030 A 
BRANCH  20  25
HETATM   25  C   UNL     1      38.362 -13.999  -2.605  1.00  0.00     0.418 C 
HETATM   26  F   UNL     1      38.602 -15.325  -2.814  1.00  0.00    -0.166 F 
HETATM   27  F   UNL     1      37.005 -13.878  -2.579  1.00  0.00    -0.166 F 
HETATM   28  F   UNL     1      38.767 -13.364  -3.740  1.00  0.00    -0.166 F 
ENDBRANCH  20  25
ENDBRANCH   1  18
TORSDOF 4
ENDMDL
MODEL 3
REMARK VINA RESULT:      -9.1      6.413      8.750
REMARK  4 active torsions:
REMARK  status: ('A' for Active; 'I' for Inactive)
REMARK    1  A    between atoms: C_3  and  C_4 
REMARK    2  A    between atoms: C_9  and  N_10 
REMARK       I    between atoms: N_10  and  C_11 
REMARK    3  A    between atoms: C_11  and  C_12 
REMARK    4  A    between atoms: C_12  and  C_13 
ROOT
HETATM    1  N   UNL     1      42.308 -15.442   2.050  1.00  0.00    -0.327 N 
HETATM    2  C   UNL     1      41.038 -14.925   2.130  1.00  0.00     0.227 C 
HETATM    3  O   UNL     1      40.129 -15.385   2.823  1.00  0.00    -0.273 OA
HETATM    4  H   UNL     1      42.935 -14.965   1.401  1.00  0.00     0.169 HD
ENDROOT
BRANCH   2   5
HETATM    5  C   UNL     1      40.741 -13.699   1.287  1.00  0.00     0.165 C 
BRANCH   5   6
HETATM    6  C   UNL     1      40.198 -13.809  -0.126  1.00  0.00     0.074 A 
HETATM    7  N   UNL     1      39.535 -14.873  -0.476  1.00  0.00    -0.175 NA
HETATM    8  N   UNL     1      39.062 -14.958  -1.748  1.00  0.00    -0.243 N 
HETATM    9  C   UNL     1      39.215 -14.015  -2.735  1.00  0.00     0.272 A 
HETATM   10  H   UNL     1      38.551 -15.800  -2.000  1.00  0.00     0.192 HD
HETATM   11  O   UNL     1      38.768 -14.174  -3.865  1.00  0.00    -0.266 OA
HETATM   12  C   UNL     1      39.943 -12.795  -2.357  1.00  0.00     0.046 A 
HETATM   13  C   UNL     1      40.430 -12.671  -1.058  1.00  0.00     0.006 A 
HETATM   14  C   UNL     1      40.130 -11.771  -3.292  1.00  0.00     0.018 A 
HETATM   15  C   UNL     1      41.101 -11.499  -0.687  1.00  0.00     0.014 A 
HETATM   16  C   UNL     1      41.289 -10.474  -1.620  1.00  0.00     0.001 A 
HETATM   17  C   UNL     1      40.808 -10.610  -2.921  1.00  0.00     0.001 A 
ENDBRANCH   5   6
ENDBRANCH   2   5
BRANCH   1  18
HETATM   18  C   UNL     1      42.852 -16.545   2.734  1.00  0.00     0.035 A 
HETATM   19  C   UNL     1      42.885 -17.845   2.229  1.00  0.00     0.046 A 
HETATM   20  C   UNL     1      43.441 -18.909   2.974  1.00  0.00     0.056 A 
HETATM   21  C   UNL     1      43.993 -18.646   4.246  1.00  0.00    -0.047 A 
HETATM   22  C   UNL     1      44.597 -19.737   5.088  1.00  0.00     0.049 C 
HETATM   23  C   UNL     1      43.944 -17.341   4.753  1.00  0.00     0.010 A 
HETATM   24  C   UNL     1      43.381 -16.304   4.005  1.00  0.00     0.030 A 
BRANCH  20  25
HETATM   25  C   UNL     1      43.451 -20.300   2.377  1.00  0.00     0.418 C 
HETATM   26  F   UNL     1      44.488 -20.499   1.514  1.00  0.00    -0.166 F 
HETATM   27  F   UNL     1      43.553 -21.298   3.300  1.00  0.00    -0.166 F 
HETATM   28  F   UNL     1      42.320 -20.570   1.667  1.00  0.00    -0.166 F 
ENDBRANCH  20  25
ENDBRANCH   1  18
TORSDOF 4
ENDMDL
MODEL 4
REMARK VINA RESULT:      -8.8      6.414      8.652
REMARK  4 active torsions:
REMARK  status: ('A' for Active; 'I' for Inactive)
REMARK    1  A    between atoms: C_3  and  C_4 
REMARK    2  A    between atoms: C_9  and  N_10 
REMARK       I    between atoms: N_10  and  C_11 
REMARK    3  A    between atoms: C_11  and  C_12 
REMARK    4  A    between atoms: C_12  and  C_13 
ROOT
HETATM    1  N   UNL     1      42.843 -15.309   1.991  1.00  0.00    -0.327 N 
HETATM    2  C   UNL     1      41.607 -14.832   1.626  1.00  0.00     0.227 C 
HETATM    3  O   UNL     1      40.534 -15.381   1.879  1.00  0.00    -0.273 OA
HETATM    4  H   UNL     1      43.639 -14.755   1.673  1.00  0.00     0.169 HD
ENDROOT
BRANCH   2   5
HETATM    5  C   UNL     1      41.578 -13.532   0.844  1.00  0.00     0.165 C 
BRANCH   5   6
HETATM    6  C   UNL     1      40.279 -12.806   0.545  1.00  0.00     0.074 A 
HETATM    7  N   UNL     1      39.872 -11.865   1.347  1.00  0.00    -0.175 NA
HETATM    8  N   UNL     1      38.704 -11.229   1.068  1.00  0.00    -0.243 N 
HETATM    9  C   UNL     1      37.878 -11.482  -0.000  1.00  0.00     0.272 A 
HETATM   10  H   UNL     1      38.404 -10.501   1.711  1.00  0.00     0.192 HD
HETATM   11  O   UNL     1      36.830 -10.871  -0.175  1.00  0.00    -0.266 OA
HETATM   12  C   UNL     1      38.327 -12.527  -0.932  1.00  0.00     0.046 A 
HETATM   13  C   UNL     1      39.527 -13.189  -0.681  1.00  0.00     0.006 A 
HETATM   14  C   UNL     1      37.560 -12.839  -2.060  1.00  0.00     0.018 A 
HETATM   15  C   UNL     1      39.970 -14.166  -1.582  1.00  0.00     0.014 A 
HETATM   16  C   UNL     1      39.205 -14.479  -2.709  1.00  0.00     0.001 A 
HETATM   17  C   UNL     1      38.000 -13.820  -2.947  1.00  0.00     0.001 A 
ENDBRANCH   5   6
ENDBRANCH   2   5
BRANCH   1  18
HETATM   18  C   UNL     1      43.153 -16.465   2.732  1.00  0.00     0.035 A 
HETATM   19  C   UNL     1      43.144 -17.759   2.211  1.00  0.00     0.046 A 
HETATM   20  C   UNL     1      43.461 -18.877   3.014  1.00  0.00     0.056 A 
HETATM   21  C   UNL     1      43.814 -18.677   4.366  1.00  0.00    -0.047 A 
HETATM   22  C   UNL     1      44.158 -19.827   5.273  1.00  0.00     0.049 C 
HETATM   23  C   UNL     1      43.807 -17.376   4.887  1.00  0.00     0.010 A 
HETATM   24  C   UNL     1      43.482 -16.285   4.078  1.00  0.00     0.030 A 
BRANCH  20  25
HETATM   25  C   UNL     1      43.436 -20.259   2.397  1.00  0.00     0.418 C 
HETATM   26  F   UNL     1      42.275 -20.522   1.732  1.00  0.00    -0.166 F 
HETATM   27  F   UNL     1      44.429 -20.478   1.490  1.00  0.00    -0.166 F 
HETATM   28  F   UNL     1      43.563 -21.247   3.327  1.00  0.00    -0.166 F 
ENDBRANCH  20  25
ENDBRANCH   1  18
TORSDOF 4
ENDMDL
MODEL 5
REMARK VINA RESULT:      -8.7      5.422      8.034
REMARK  4 active torsions:
REMARK  status: ('A' for Active; 'I' for Inactive)
REMARK    1  A    between atoms: C_3  and  C_4 
REMARK    2  A    between atoms: C_9  and  N_10 
REMARK       I    between atoms: N_10  and  C_11 
REMARK    3  A    between atoms: C_11  and  C_12 
REMARK    4  A    between atoms: C_12  and  C_13 
ROOT
HETATM    1  N   UNL     1      41.443 -14.443   0.238  1.00  0.00    -0.327 N 
HETATM    2  C   UNL     1      41.452 -15.409   1.215  1.00  0.00     0.227 C 
HETATM    3  O   UNL     1      40.457 -15.818   1.815  1.00  0.00    -0.273 OA
HETATM    4  H   UNL     1      42.358 -14.189  -0.137  1.00  0.00     0.169 HD
ENDROOT
BRANCH   2   5
HETATM    5  C   UNL     1      42.800 -16.002   1.581  1.00  0.00     0.165 C 
BRANCH   5   6
HETATM    6  C   UNL     1      43.138 -16.404   3.005  1.00  0.00     0.074 A 
HETATM    7  N   UNL     1      43.157 -15.499   3.940  1.00  0.00    -0.175 NA
HETATM    8  N   UNL     1      43.469 -15.876   5.208  1.00  0.00    -0.243 N 
HETATM    9  C   UNL     1      43.780 -17.148   5.622  1.00  0.00     0.272 A 
HETATM   10  H   UNL     1      43.481 -15.151   5.920  1.00  0.00     0.192 HD
HETATM   11  O   UNL     1      44.064 -17.405   6.786  1.00  0.00    -0.266 OA
HETATM   12  C   UNL     1      43.746 -18.193   4.588  1.00  0.00     0.046 A 
HETATM   13  C   UNL     1      43.417 -17.841   3.280  1.00  0.00     0.006 A 
HETATM   14  C   UNL     1      44.029 -19.522   4.922  1.00  0.00     0.018 A 
HETATM   15  C   UNL     1      43.358 -18.838   2.298  1.00  0.00     0.014 A 
HETATM   16  C   UNL     1      43.641 -20.167   2.630  1.00  0.00     0.001 A 
HETATM   17  C   UNL     1      43.979 -20.508   3.938  1.00  0.00     0.001 A 
ENDBRANCH   5   6
ENDBRANCH   2   5
BRANCH   1  18
HETATM   18  C   UNL     1      40.342 -13.753  -0.304  1.00  0.00     0.035 A 
HETATM   19  C   UNL     1      39.676 -12.708   0.337  1.00  0.00     0.046 A 
HETATM   20  C   UNL     1      38.572 -12.063  -0.262  1.00  0.00     0.056 A 
HETATM   21  C   UNL     1      38.149 -12.470  -1.545  1.00  0.00    -0.047 A 
HETATM   22  C   UNL     1      36.978 -11.823  -2.235  1.00  0.00     0.049 C 
HETATM   23  C   UNL     1      38.813 -13.529  -2.178  1.00  0.00     0.010 A 
HETATM   24  C   UNL     1      39.897 -14.161  -1.564  1.00  0.00     0.030 A 
BRANCH  20  25
HETATM   25  C   UNL     1      37.887 -10.934   0.479  1.00  0.00     0.418 C 
HETATM   26  F   UNL     1      38.524 -10.594   1.635  1.00  0.00    -0.166 F 
HETATM   27  F   UNL     1      37.797  -9.777  -0.236  1.00  0.00    -0.166 F 
HETATM   28  F   UNL     1      36.610 -11.246   0.836  1.00  0.00    -0.166 F 
ENDBRANCH  20  25
ENDBRANCH   1  18
TORSDOF 4
ENDMDL
MODEL 6
REMARK VINA RESULT:      -8.7      4.115      8.772
REMARK  4 active torsions:
REMARK  status: ('A' for Active; 'I' for Inactive)
REMARK    1  A    between atoms: C_3  and  C_4 
REMARK    2  A    between atoms: C_9  and  N_10 
REMARK       I    between atoms: N_10  and  C_11 
REMARK    3  A    between atoms: C_11  and  C_12 
REMARK    4  A    between atoms: C_12  and  C_13 
ROOT
HETATM    1  N   UNL     1      43.792 -12.269   7.541  1.00  0.00    -0.327 N 
HETATM    2  C   UNL     1      44.824 -11.393   7.302  1.00  0.00     0.227 C 
HETATM    3  O   UNL     1      45.452 -11.311   6.245  1.00  0.00    -0.273 OA
HETATM    4  H   UNL     1      43.399 -12.237   8.482  1.00  0.00     0.169 HD
ENDROOT
BRANCH   2   5
HETATM    5  C   UNL     1      45.216 -10.469   8.440  1.00  0.00     0.165 C 
BRANCH   5   6
HETATM    6  C   UNL     1      44.309 -10.238   9.634  1.00  0.00     0.074 A 
HETATM    7  N   UNL     1      44.061 -11.222  10.450  1.00  0.00    -0.175 NA
HETATM    8  N   UNL     1      43.241 -10.998  11.511  1.00  0.00    -0.243 N 
HETATM    9  C   UNL     1      42.623  -9.812  11.824  1.00  0.00     0.272 A 
HETATM   10  H   UNL     1      43.059 -11.782  12.132  1.00  0.00     0.192 HD
HETATM   11  O   UNL     1      41.885  -9.696  12.795  1.00  0.00    -0.266 OA
HETATM   12  C   UNL     1      42.904  -8.681  10.928  1.00  0.00     0.046 A 
HETATM   13  C   UNL     1      43.751  -8.873   9.838  1.00  0.00     0.006 A 
HETATM   14  C   UNL     1      42.334  -7.427  11.179  1.00  0.00     0.018 A 
HETATM   15  C   UNL     1      44.041  -7.790   8.998  1.00  0.00     0.014 A 
HETATM   16  C   UNL     1      43.473  -6.537   9.248  1.00  0.00     0.001 A 
HETATM   17  C   UNL     1      42.619  -6.356  10.334  1.00  0.00     0.001 A 
ENDBRANCH   5   6
ENDBRANCH   2   5
BRANCH   1  18
HETATM   18  C   UNL     1      43.218 -13.208   6.663  1.00  0.00     0.035 A 
HETATM   19  C   UNL     1      43.744 -14.476   6.414  1.00  0.00     0.046 A 
HETATM   20  C   UNL     1      43.119 -15.367   5.515  1.00  0.00     0.056 A 
HETATM   21  C   UNL     1      41.925 -14.974   4.873  1.00  0.00    -0.047 A 
HETATM   22  C   UNL     1      41.213 -15.878   3.902  1.00  0.00     0.049 C 
HETATM   23  C   UNL     1      41.409 -13.695   5.116  1.00  0.00     0.010 A 
HETATM   24  C   UNL     1      42.048 -12.824   6.002  1.00  0.00     0.030 A 
BRANCH  20  25
HETATM   25  C   UNL     1      43.733 -16.731   5.283  1.00  0.00     0.418 C 
HETATM   26  F   UNL     1      44.937 -16.884   5.904  1.00  0.00    -0.166 F 
HETATM   27  F   UNL     1      42.965 -17.767   5.725  1.00  0.00    -0.166 F 
HETATM   28  F   UNL     1      43.961 -16.981   3.963  1.00  0.00    -0.166 F 
ENDBRANCH  20  25
ENDBRANCH   1  18
TORSDOF 4
ENDMDL
MODEL 7
REMARK VINA RESULT:      -8.5      4.153      7.890
REMARK  4 active torsions:
REMARK  status: ('A' for Active; 'I' for Inactive)
REMARK    1  A    between atoms: C_3  and  C_4 
REMARK    2  A    between atoms: C_9  and  N_10 
REMARK       I    between atoms: N_10  and  C_11 
REMARK    3  A    between atoms: C_11  and  C_12 
REMARK    4  A    between atoms: C_12  and  C_13 
ROOT
HETATM    1  N   UNL     1      42.903 -13.744   3.649  1.00  0.00    -0.327 N 
HETATM    2  C   UNL     1      41.886 -13.089   4.300  1.00  0.00     0.227 C 
HETATM    3  O   UNL     1      40.865 -13.624   4.735  1.00  0.00    -0.273 OA
HETATM    4  H   UNL     1      43.665 -13.151   3.317  1.00  0.00     0.169 HD
ENDROOT
BRANCH   2   5
HETATM    5  C   UNL     1      42.039 -11.591   4.480  1.00  0.00     0.165 C 
BRANCH   5   6
HETATM    6  C   UNL     1      42.193 -10.960   5.851  1.00  0.00     0.074 A 
HETATM    7  N   UNL     1      41.140 -10.514   6.474  1.00  0.00    -0.175 NA
HETATM    8  N   UNL     1      41.297  -9.946   7.699  1.00  0.00    -0.243 N 
HETATM    9  C   UNL     1      42.484  -9.783   8.371  1.00  0.00     0.272 A 
HETATM   10  H   UNL     1      40.462  -9.602   8.163  1.00  0.00     0.192 HD
HETATM   11  O   UNL     1      42.543  -9.247   9.471  1.00  0.00    -0.266 OA
HETATM   12  C   UNL     1      43.685 -10.297   7.697  1.00  0.00     0.046 A 
HETATM   13  C   UNL     1      43.557 -10.896   6.446  1.00  0.00     0.006 A 
HETATM   14  C   UNL     1      44.937 -10.193   8.316  1.00  0.00     0.018 A 
HETATM   15  C   UNL     1      44.696 -11.411   5.813  1.00  0.00     0.014 A 
HETATM   16  C   UNL     1      45.947 -11.308   6.430  1.00  0.00     0.001 A 
HETATM   17  C   UNL     1      46.068 -10.697   7.677  1.00  0.00     0.001 A 
ENDBRANCH   5   6
ENDBRANCH   2   5
BRANCH   1  18
HETATM   18  C   UNL     1      43.026 -15.119   3.372  1.00  0.00     0.035 A 
HETATM   19  C   UNL     1      43.460 -16.071   4.294  1.00  0.00     0.046 A 
HETATM   20  C   UNL     1      43.565 -17.435   3.947  1.00  0.00     0.056 A 
HETATM   21  C   UNL     1      43.205 -17.846   2.646  1.00  0.00    -0.047 A 
HETATM   22  C   UNL     1      43.298 -19.285   2.215  1.00  0.00     0.049 C 
HETATM   23  C   UNL     1      42.784 -16.883   1.720  1.00  0.00     0.010 A 
HETATM   24  C   UNL     1      42.695 -15.536   2.080  1.00  0.00     0.030 A 
BRANCH  20  25
HETATM   25  C   UNL     1      44.041 -18.427   4.989  1.00  0.00     0.418 C 
HETATM   26  F   UNL     1      44.301 -17.845   6.194  1.00  0.00    -0.166 F 
HETATM   27  F   UNL     1      43.148 -19.422   5.254  1.00  0.00    -0.166 F 
HETATM   28  F   UNL     1      45.193 -19.054   4.622  1.00  0.00    -0.166 F 
ENDBRANCH  20  25
ENDBRANCH   1  18
TORSDOF 4
ENDMDL
MODEL 8
REMARK VINA RESULT:      -8.4      2.238      3.212
REMARK  4 active torsions:
REMARK  status: ('A' for Active; 'I' for Inactive)
REMARK    1  A    between atoms: C_3  and  C_4 
REMARK    2  A    between atoms: C_9  and  N_10 
REMARK       I    between atoms: N_10  and  C_11 
REMARK    3  A    between atoms: C_11  and  C_12 
REMARK    4  A    between atoms: C_12  and  C_13 
ROOT
HETATM    1  N   UNL     1      42.107 -12.238   6.402  1.00  0.00    -0.327 N 
HETATM    2  C   UNL     1      42.029 -12.562   5.069  1.00  0.00     0.227 C 
HETATM    3  O   UNL     1      42.383 -11.832   4.141  1.00  0.00    -0.273 OA
HETATM    4  H   UNL     1      41.738 -12.939   7.046  1.00  0.00     0.169 HD
ENDROOT
BRANCH   2   5
HETATM    5  C   UNL     1      41.451 -13.922   4.726  1.00  0.00     0.165 C 
BRANCH   5   6
HETATM    6  C   UNL     1      41.994 -15.201   5.337  1.00  0.00     0.074 A 
HETATM    7  N   UNL     1      41.898 -15.389   6.621  1.00  0.00    -0.175 NA
HETATM    8  N   UNL     1      42.395 -16.538   7.152  1.00  0.00    -0.243 N 
HETATM    9  C   UNL     1      43.011 -17.551   6.459  1.00  0.00     0.272 A 
HETATM   10  H   UNL     1      42.312 -16.660   8.157  1.00  0.00     0.192 HD
HETATM   11  O   UNL     1      43.447 -18.552   7.016  1.00  0.00    -0.266 OA
HETATM   12  C   UNL     1      43.114 -17.370   5.003  1.00  0.00     0.046 A 
HETATM   13  C   UNL     1      42.603 -16.210   4.426  1.00  0.00     0.006 A 
HETATM   14  C   UNL     1      43.709 -18.361   4.213  1.00  0.00     0.018 A 
HETATM   15  C   UNL     1      42.675 -16.048   3.037  1.00  0.00     0.014 A 
HETATM   16  C   UNL     1      43.269 -17.036   2.246  1.00  0.00     0.001 A 
HETATM   17  C   UNL     1      43.789 -18.189   2.832  1.00  0.00     0.001 A 
ENDBRANCH   5   6
ENDBRANCH   2   5
BRANCH   1  18
HETATM   18  C   UNL     1      42.617 -11.066   6.991  1.00  0.00     0.035 A 
HETATM   19  C   UNL     1      43.939 -10.905   7.406  1.00  0.00     0.046 A 
HETATM   20  C   UNL     1      44.383  -9.702   7.997  1.00  0.00     0.056 A 
HETATM   21  C   UNL     1      43.474  -8.633   8.151  1.00  0.00    -0.047 A 
HETATM   22  C   UNL     1      43.886  -7.327   8.775  1.00  0.00     0.049 C 
HETATM   23  C   UNL     1      42.144  -8.805   7.745  1.00  0.00     0.010 A 
HETATM   24  C   UNL     1      41.723 -10.007   7.171  1.00  0.00     0.030 A 
BRANCH  20  25
HETATM   25  C   UNL     1      45.829  -9.582   8.428  1.00  0.00     0.418 C 
HETATM   26  F   UNL     1      46.540 -10.728   8.225  1.00  0.00    -0.166 F 
HETATM   27  F   UNL     1      46.523  -8.608   7.774  1.00  0.00    -0.166 F 
HETATM   28  F   UNL     1      45.955  -9.296   9.754  1.00  0.00    -0.166 F 
ENDBRANCH  20  25
ENDBRANCH   1  18
TORSDOF 4
ENDMDL
MODEL 9
REMARK VINA RESULT:      -8.3      4.900      7.712
REMARK  4 active torsions:
REMARK  status: ('A' for Active; 'I' for Inactive)
REMARK    1  A    between atoms: C_3  and  C_4 
REMARK    2  A    between atoms: C_9  and  N_10 
REMARK       I    between atoms: N_10  and  C_11 
REMARK    3  A    between atoms: C_11  and  C_12 
REMARK    4  A    between atoms: C_12  and  C_13 
ROOT
HETATM    1  N   UNL     1      41.956 -14.863   1.882  1.00  0.00    -0.327 N 
HETATM    2  C   UNL     1      40.753 -14.224   2.062  1.00  0.00     0.227 C 
HETATM    3  O   UNL     1      39.958 -14.454   2.975  1.00  0.00    -0.273 OA
HETATM    4  H   UNL     1      42.483 -14.581   1.055  1.00  0.00     0.169 HD
ENDROOT
BRANCH   2   5
HETATM    5  C   UNL     1      40.382 -13.161   1.045  1.00  0.00     0.165 C 
BRANCH   5   6
HETATM    6  C   UNL     1      39.648 -13.501  -0.239  1.00  0.00     0.074 A 
HETATM    7  N   UNL     1      39.824 -14.668  -0.788  1.00  0.00    -0.175 NA
HETATM    8  N   UNL     1      39.163 -14.953  -1.941  1.00  0.00    -0.243 N 
HETATM    9  C   UNL     1      38.305 -14.117  -2.613  1.00  0.00     0.272 A 
HETATM   10  H   UNL     1      39.320 -15.869  -2.354  1.00  0.00     0.192 HD
HETATM   11  O   UNL     1      37.757 -14.446  -3.658  1.00  0.00    -0.266 OA
HETATM   12  C   UNL     1      38.074 -12.800  -2.001  1.00  0.00     0.046 A 
HETATM   13  C   UNL     1      38.726 -12.481  -0.812  1.00  0.00     0.006 A 
HETATM   14  C   UNL     1      37.199 -11.889  -2.604  1.00  0.00     0.018 A 
HETATM   15  C   UNL     1      38.487 -11.238  -0.213  1.00  0.00     0.014 A 
HETATM   16  C   UNL     1      37.613 -10.327  -0.814  1.00  0.00     0.001 A 
HETATM   17  C   UNL     1      36.973 -10.649  -2.009  1.00  0.00     0.001 A 
ENDBRANCH   5   6
ENDBRANCH   2   5
BRANCH   1  18
HETATM   18  C   UNL     1      42.548 -15.859   2.681  1.00  0.00     0.035 A 
HETATM   19  C   UNL     1      43.014 -15.652   3.979  1.00  0.00     0.046 A 
HETATM   20  C   UNL     1      43.604 -16.697   4.724  1.00  0.00     0.056 A 
HETATM   21  C   UNL     1      43.705 -17.982   4.149  1.00  0.00    -0.047 A 
HETATM   22  C   UNL     1      44.326 -19.135   4.890  1.00  0.00     0.049 C 
HETATM   23  C   UNL     1      43.248 -18.180   2.839  1.00  0.00     0.010 A 
HETATM   24  C   UNL     1      42.675 -17.131   2.116  1.00  0.00     0.030 A 
BRANCH  20  25
HETATM   25  C   UNL     1      44.091 -16.416   6.129  1.00  0.00     0.418 C 
HETATM   26  F   UNL     1      43.720 -15.186   6.584  1.00  0.00    -0.166 F 
HETATM   27  F   UNL     1      43.632 -17.298   7.061  1.00  0.00    -0.166 F 
HETATM   28  F   UNL     1      45.450 -16.454   6.226  1.00  0.00    -0.166 F 
ENDBRANCH  20  25
ENDBRANCH   1  18
TORSDOF 4
ENDMDL
MODEL 10
REMARK VINA RESULT:      -8.1      4.486      8.219
REMARK  4 active torsions:
REMARK  status: ('A' for Active; 'I' for Inactive)
REMARK    1  A    between atoms: C_3  and  C_4 
REMARK    2  A    between atoms: C_9  and  N_10 
REMARK       I    between atoms: N_10  and  C_11 
REMARK    3  A    between atoms: C_11  and  C_12 
REMARK    4  A    between atoms: C_12  and  C_13 
ROOT
HETATM    1  N   UNL     1      42.695 -12.561   5.710  1.00  0.00    -0.327 N 
HETATM    2  C   UNL     1      43.291 -11.404   5.268  1.00  0.00     0.227 C 
HETATM    3  O   UNL     1      44.268 -11.352   4.519  1.00  0.00    -0.273 OA
HETATM    4  H   UNL     1      41.915 -12.434   6.356  1.00  0.00     0.169 HD
ENDROOT
BRANCH   2   5
HETATM    5  C   UNL     1      42.696 -10.096   5.756  1.00  0.00     0.165 C 
BRANCH   5   6
HETATM    6  C   UNL     1      42.313  -9.883   7.209  1.00  0.00     0.074 A 
HETATM    7  N   UNL     1      41.056  -9.792   7.534  1.00  0.00    -0.175 NA
HETATM    8  N   UNL     1      40.732  -9.594   8.840  1.00  0.00    -0.243 N 
HETATM    9  C   UNL     1      41.614  -9.472   9.885  1.00  0.00     0.272 A 
HETATM   10  H   UNL     1      39.745  -9.522   9.069  1.00  0.00     0.192 HD
HETATM   11  O   UNL     1      41.241  -9.281  11.036  1.00  0.00    -0.266 OA
HETATM   12  C   UNL     1      43.040  -9.592   9.546  1.00  0.00     0.046 A 
HETATM   13  C   UNL     1      43.405  -9.808   8.219  1.00  0.00     0.006 A 
HETATM   14  C   UNL     1      44.011  -9.501  10.549  1.00  0.00     0.018 A 
HETATM   15  C   UNL     1      44.761  -9.948   7.896  1.00  0.00     0.014 A 
HETATM   16  C   UNL     1      45.733  -9.858   8.898  1.00  0.00     0.001 A 
HETATM   17  C   UNL     1      45.360  -9.631  10.222  1.00  0.00     0.001 A 
ENDBRANCH   5   6
ENDBRANCH   2   5
BRANCH   1  18
HETATM   18  C   UNL     1      43.026 -13.893   5.397  1.00  0.00     0.035 A 
HETATM   19  C   UNL     1      42.741 -14.508   4.177  1.00  0.00     0.046 A 
HETATM   20  C   UNL     1      43.097 -15.852   3.932  1.00  0.00     0.056 A 
HETATM   21  C   UNL     1      43.773 -16.581   4.933  1.00  0.00    -0.047 A 
HETATM   22  C   UNL     1      44.176 -18.017   4.733  1.00  0.00     0.049 C 
HETATM   23  C   UNL     1      44.044 -15.962   6.161  1.00  0.00     0.010 A 
HETATM   24  C   UNL     1      43.675 -14.633   6.387  1.00  0.00     0.030 A 
BRANCH  20  25
HETATM   25  C   UNL     1      42.764 -16.469   2.590  1.00  0.00     0.418 C 
HETATM   26  F   UNL     1      42.323 -15.555   1.680  1.00  0.00    -0.166 F 
HETATM   27  F   UNL     1      43.818 -17.094   1.991  1.00  0.00    -0.166 F 
HETATM   28  F   UNL     1      41.782 -17.409   2.679  1.00  0.00    -0.166 F 
ENDBRANCH  20  25
ENDBRANCH   1  18
TORSDOF 4
ENDMDL
