MODEL 1
REMARK VINA RESULT:      -9.1      0.000      0.000
REMARK  7 active torsions:
REMARK  status: ('A' for Active; 'I' for Inactive)
REMARK       I    between atoms: C_2  and  N_3 
REMARK    1  A    between atoms: N_3  and  C_4 
REMARK    2  A    between atoms: C_7  and  N_8 
REMARK       I    between atoms: N_8  and  C_9 
REMARK    3  A    between atoms: C_9  and  C_10 
REMARK    4  A    between atoms: C_11  and  C_12 
REMARK    5  A    between atoms: C_13  and  O_14 
REMARK    6  A    between atoms: N_20  and  C_21 
REMARK    7  A    between atoms: C_24  and  O_25 
ROOT
HETATM    1  C   UNL     1      44.000 -12.950   5.692  1.00  0.00     0.106 C 
HETATM    2  C   UNL     1      42.952 -13.639   4.796  1.00  0.00     0.142 C 
HETATM    3  N   UNL     1      42.760 -15.039   5.265  1.00  0.00    -0.308 N 
HETATM    4  C   UNL     1      42.522 -15.309   6.616  1.00  0.00     0.225 C 
HETATM    5  O   UNL     1      41.953 -16.307   7.060  1.00  0.00    -0.273 OA
HETATM    6  C   UNL     1      43.230 -14.391   7.607  1.00  0.00     0.104 C 
HETATM    7  C   UNL     1      43.588 -12.988   7.155  1.00  0.00     0.026 C 
ENDROOT
BRANCH   1   8
HETATM    8  C   UNL     1      44.336 -11.524   5.301  1.00  0.00     0.228 C 
HETATM    9  N   UNL     1      44.399 -10.499   6.196  1.00  0.00    -0.327 N 
HETATM   10  H   UNL     1      44.668  -9.658   5.693  1.00  0.00     0.169 HD
HETATM   11  O   UNL     1      44.506 -11.201   4.121  1.00  0.00    -0.273 OA
BRANCH   9  12
HETATM   12  C   UNL     1      44.291 -10.349   7.589  1.00  0.00     0.034 A 
HETATM   13  C   UNL     1      45.302 -10.514   8.528  1.00  0.00     0.032 A 
HETATM   14  C   UNL     1      45.081 -10.228   9.887  1.00  0.00     0.032 A 
HETATM   15  C   UNL     1      43.832  -9.803  10.337  1.00  0.00     0.034 A 
HETATM   16  C   UNL     1      42.791  -9.719   9.413  1.00  0.00     0.032 A 
HETATM   17  C   UNL     1      43.019  -9.988   8.059  1.00  0.00     0.032 A 
BRANCH  15  18
HETATM   18  N   UNL     1      43.548  -9.440  11.668  1.00  0.00    -0.328 N 
HETATM   19  C   UNL     1      43.106  -8.212  12.126  1.00  0.00     0.218 C 
HETATM   20  C   UNL     1      42.826  -8.210  13.610  1.00  0.00     0.117 C 
HETATM   21  O   UNL     1      42.901  -7.207  11.454  1.00  0.00    -0.274 OA
HETATM   22  H   UNL     1      43.615 -10.183  12.352  1.00  0.00     0.169 HD
ENDBRANCH  15  18
ENDBRANCH   9  12
ENDBRANCH   1   8
BRANCH   2  23
HETATM   23  C   UNL     1      41.600 -12.937   4.579  1.00  0.00    -0.001 A 
HETATM   24  C   UNL     1      41.196 -12.546   3.278  1.00  0.00     0.076 A 
HETATM   25  C   UNL     1      39.993 -11.849   3.092  1.00  0.00     0.037 A 
HETATM   26  C   UNL     1      39.167 -11.553   4.175  1.00  0.00     0.003 A 
HETATM   27  C   UNL     1      39.530 -11.961   5.451  1.00  0.00     0.001 A 
HETATM   28  C   UNL     1      40.728 -12.651   5.649  1.00  0.00     0.012 A 
BRANCH  24  29
HETATM   29  O   UNL     1      42.048 -12.866   2.248  1.00  0.00    -0.355 OA
HETATM   30  C   UNL     1      41.464 -13.320   1.034  1.00  0.00     0.210 C 
ENDBRANCH  24  29
ENDBRANCH   2  23
BRANCH   3  31
HETATM   31  C   UNL     1      42.925 -16.121   4.339  1.00  0.00     0.038 A 
HETATM   32  C   UNL     1      42.067 -16.295   3.249  1.00  0.00     0.032 A 
HETATM   33  C   UNL     1      42.148 -17.436   2.442  1.00  0.00     0.039 A 
HETATM   34  C   UNL     1      43.069 -18.442   2.725  1.00  0.00     0.068 A 
HETATM   35  C   UNL     1      43.955 -18.269   3.784  1.00  0.00     0.039 A 
HETATM   36  C   UNL     1      43.887 -17.115   4.578  1.00  0.00     0.032 A 
BRANCH  34  37
HETATM   37  O   UNL     1      43.018 -19.535   1.906  1.00  0.00    -0.356 OA
HETATM   38  C   UNL     1      43.818 -20.645   2.304  1.00  0.00     0.210 C 
ENDBRANCH  34  37
ENDBRANCH   3  31
TORSDOF 7
ENDMDL
MODEL 2
REMARK VINA RESULT:      -8.7      3.979      7.359
REMARK  7 active torsions:
REMARK  status: ('A' for Active; 'I' for Inactive)
REMARK       I    between atoms: C_2  and  N_3 
REMARK    1  A    between atoms: N_3  and  C_4 
REMARK    2  A    between atoms: C_7  and  N_8 
REMARK       I    between atoms: N_8  and  C_9 
REMARK    3  A    between atoms: C_9  and  C_10 
REMARK    4  A    between atoms: C_11  and  C_12 
REMARK    5  A    between atoms: C_13  and  O_14 
REMARK    6  A    between atoms: N_20  and  C_21 
REMARK    7  A    between atoms: C_24  and  O_25 
ROOT
HETATM    1  C   UNL     1      42.557  -9.101  10.003  1.00  0.00     0.106 C 
HETATM    2  C   UNL     1      42.764  -9.487   8.525  1.00  0.00     0.142 C 
HETATM    3  N   UNL     1      42.155  -8.439   7.660  1.00  0.00    -0.308 N 
HETATM    4  C   UNL     1      42.443  -7.088   7.872  1.00  0.00     0.225 C 
HETATM    5  O   UNL     1      42.362  -6.195   7.027  1.00  0.00    -0.273 OA
HETATM    6  C   UNL     1      42.655  -6.678   9.325  1.00  0.00     0.104 C 
HETATM    7  C   UNL     1      43.143  -7.730  10.303  1.00  0.00     0.026 C 
ENDROOT
BRANCH   1   8
HETATM    8  C   UNL     1      43.088 -10.106  11.006  1.00  0.00     0.228 C 
HETATM    9  N   UNL     1      43.025  -9.920  12.354  1.00  0.00    -0.327 N 
HETATM   10  H   UNL     1      43.419 -10.742  12.803  1.00  0.00     0.169 HD
HETATM   11  O   UNL     1      43.675 -11.130  10.644  1.00  0.00    -0.273 OA
BRANCH   9  12
HETATM   12  C   UNL     1      42.482  -8.966  13.231  1.00  0.00     0.034 A 
HETATM   13  C   UNL     1      41.232  -9.005  13.839  1.00  0.00     0.032 A 
HETATM   14  C   UNL     1      40.857  -8.033  14.782  1.00  0.00     0.032 A 
HETATM   15  C   UNL     1      41.712  -6.983  15.110  1.00  0.00     0.034 A 
HETATM   16  C   UNL     1      42.931  -6.890  14.440  1.00  0.00     0.032 A 
HETATM   17  C   UNL     1      43.309  -7.869  13.514  1.00  0.00     0.032 A 
BRANCH  15  18
HETATM   18  N   UNL     1      41.434  -6.006  16.086  1.00  0.00    -0.328 N 
HETATM   19  C   UNL     1      41.775  -6.038  17.426  1.00  0.00     0.218 C 
HETATM   20  C   UNL     1      41.384  -4.776  18.157  1.00  0.00     0.117 C 
HETATM   21  O   UNL     1      42.366  -6.938  18.013  1.00  0.00    -0.274 OA
HETATM   22  H   UNL     1      40.992  -5.159  15.750  1.00  0.00     0.169 HD
ENDBRANCH  15  18
ENDBRANCH   9  12
ENDBRANCH   1   8
BRANCH   2  23
HETATM   23  C   UNL     1      44.187  -9.837   8.052  1.00  0.00    -0.001 A 
HETATM   24  C   UNL     1      44.423 -11.011   7.295  1.00  0.00     0.076 A 
HETATM   25  C   UNL     1      45.729 -11.359   6.922  1.00  0.00     0.037 A 
HETATM   26  C   UNL     1      46.808 -10.548   7.266  1.00  0.00     0.003 A 
HETATM   27  C   UNL     1      46.590  -9.375   7.976  1.00  0.00     0.001 A 
HETATM   28  C   UNL     1      45.295  -9.020   8.357  1.00  0.00     0.012 A 
BRANCH  24  29
HETATM   29  O   UNL     1      43.322 -11.771   6.982  1.00  0.00    -0.355 OA
HETATM   30  C   UNL     1      43.524 -13.165   6.789  1.00  0.00     0.210 C 
ENDBRANCH  24  29
ENDBRANCH   2  23
BRANCH   3  31
HETATM   31  C   UNL     1      41.185  -8.817   6.674  1.00  0.00     0.038 A 
HETATM   32  C   UNL     1      39.834  -8.982   6.996  1.00  0.00     0.032 A 
HETATM   33  C   UNL     1      38.927  -9.495   6.060  1.00  0.00     0.039 A 
HETATM   34  C   UNL     1      39.358  -9.884   4.793  1.00  0.00     0.068 A 
HETATM   35  C   UNL     1      40.691  -9.692   4.444  1.00  0.00     0.039 A 
HETATM   36  C   UNL     1      41.593  -9.157   5.375  1.00  0.00     0.032 A 
BRANCH  34  37
HETATM   37  O   UNL     1      38.397 -10.425   3.986  1.00  0.00    -0.356 OA
HETATM   38  C   UNL     1      38.369  -9.940   2.646  1.00  0.00     0.210 C 
ENDBRANCH  34  37
ENDBRANCH   3  31
TORSDOF 7
ENDMDL
MODEL 3
REMARK VINA RESULT:      -8.6      5.890     11.537
REMARK  7 active torsions:
REMARK  status: ('A' for Active; 'I' for Inactive)
REMARK       I    between atoms: C_2  and  N_3 
REMARK    1  A    between atoms: N_3  and  C_4 
REMARK    2  A    between atoms: C_7  and  N_8 
REMARK       I    between atoms: N_8  and  C_9 
REMARK    3  A    between atoms: C_9  and  C_10 
REMARK    4  A    between atoms: C_11  and  C_12 
REMARK    5  A    between atoms: C_13  and  O_14 
REMARK    6  A    between atoms: N_20  and  C_21 
REMARK    7  A    between atoms: C_24  and  O_25 
ROOT
HETATM    1  C   UNL     1      40.124  -6.121  15.079  1.00  0.00     0.106 C 
HETATM    2  C   UNL     1      40.329  -5.461  13.702  1.00  0.00     0.142 C 
HETATM    3  N   UNL     1      38.999  -5.212  13.080  1.00  0.00    -0.308 N 
HETATM    4  C   UNL     1      37.988  -4.570  13.800  1.00  0.00     0.225 C 
HETATM    5  O   UNL     1      37.042  -3.950  13.312  1.00  0.00    -0.273 OA
HETATM    6  C   UNL     1      37.953  -4.864  15.295  1.00  0.00     0.104 C 
HETATM    7  C   UNL     1      39.247  -5.263  15.979  1.00  0.00     0.026 C 
ENDROOT
BRANCH   1   8
HETATM    8  C   UNL     1      41.401  -6.478  15.814  1.00  0.00     0.228 C 
HETATM    9  N   UNL     1      42.300  -7.391  15.351  1.00  0.00    -0.327 N 
HETATM   10  H   UNL     1      43.076  -7.427  16.005  1.00  0.00     0.169 HD
HETATM   11  O   UNL     1      41.663  -5.999  16.922  1.00  0.00    -0.273 OA
BRANCH   9  12
HETATM   12  C   UNL     1      42.457  -8.176  14.197  1.00  0.00     0.034 A 
HETATM   13  C   UNL     1      41.801  -9.366  13.900  1.00  0.00     0.032 A 
HETATM   14  C   UNL     1      41.975  -9.996  12.656  1.00  0.00     0.032 A 
HETATM   15  C   UNL     1      42.836  -9.466  11.696  1.00  0.00     0.034 A 
HETATM   16  C   UNL     1      43.561  -8.320  12.021  1.00  0.00     0.032 A 
HETATM   17  C   UNL     1      43.373  -7.686  13.255  1.00  0.00     0.032 A 
BRANCH  15  18
HETATM   18  N   UNL     1      43.018 -10.003  10.407  1.00  0.00    -0.328 N 
HETATM   19  C   UNL     1      44.171 -10.564   9.888  1.00  0.00     0.218 C 
HETATM   20  C   UNL     1      43.975 -11.112   8.494  1.00  0.00     0.117 C 
HETATM   21  O   UNL     1      45.254 -10.676  10.453  1.00  0.00    -0.274 OA
HETATM   22  H   UNL     1      42.193 -10.038   9.822  1.00  0.00     0.169 HD
ENDBRANCH  15  18
ENDBRANCH   9  12
ENDBRANCH   1   8
BRANCH   2  23
HETATM   23  C   UNL     1      41.223  -4.210  13.616  1.00  0.00    -0.001 A 
HETATM   24  C   UNL     1      42.149  -4.062  12.554  1.00  0.00     0.076 A 
HETATM   25  C   UNL     1      43.006  -2.953  12.515  1.00  0.00     0.037 A 
HETATM   26  C   UNL     1      42.945  -1.970  13.501  1.00  0.00     0.003 A 
HETATM   27  C   UNL     1      42.017  -2.081  14.528  1.00  0.00     0.001 A 
HETATM   28  C   UNL     1      41.162  -3.184  14.580  1.00  0.00     0.012 A 
BRANCH  24  29
HETATM   29  O   UNL     1      42.165  -5.060  11.610  1.00  0.00    -0.355 OA
HETATM   30  C   UNL     1      42.495  -4.693  10.276  1.00  0.00     0.210 C 
ENDBRANCH  24  29
ENDBRANCH   2  23
BRANCH   3  31
HETATM   31  C   UNL     1      38.726  -5.732  11.772  1.00  0.00     0.038 A 
HETATM   32  C   UNL     1      38.601  -7.104  11.537  1.00  0.00     0.032 A 
HETATM   33  C   UNL     1      38.484  -7.605  10.234  1.00  0.00     0.039 A 
HETATM   34  C   UNL     1      38.520  -6.747   9.138  1.00  0.00     0.068 A 
HETATM   35  C   UNL     1      38.607  -5.375   9.355  1.00  0.00     0.039 A 
HETATM   36  C   UNL     1      38.702  -4.874  10.662  1.00  0.00     0.032 A 
BRANCH  34  37
HETATM   37  O   UNL     1      38.457  -7.352   7.914  1.00  0.00    -0.356 OA
HETATM   38  C   UNL     1      39.538  -8.226   7.599  1.00  0.00     0.210 C 
ENDBRANCH  34  37
ENDBRANCH   3  31
TORSDOF 7
ENDMDL
MODEL 4
REMARK VINA RESULT:      -8.5      3.215      6.059
REMARK  7 active torsions:
REMARK  status: ('A' for Active; 'I' for Inactive)
REMARK       I    between atoms: C_2  and  N_3 
REMARK    1  A    between atoms: N_3  and  C_4 
REMARK    2  A    between atoms: C_7  and  N_8 
REMARK       I    between atoms: N_8  and  C_9 
REMARK    3  A    between atoms: C_9  and  C_10 
REMARK    4  A    between atoms: C_11  and  C_12 
REMARK    5  A    between atoms: C_13  and  O_14 
REMARK    6  A    between atoms: N_20  and  C_21 
REMARK    7  A    between atoms: C_24  and  O_25 
ROOT
HETATM    1  C   UNL     1      40.684 -13.819   4.182  1.00  0.00     0.106 C 
HETATM    2  C   UNL     1      42.067 -14.344   4.616  1.00  0.00     0.142 C 
HETATM    3  N   UNL     1      42.746 -14.952   3.438  1.00  0.00    -0.308 N 
HETATM    4  C   UNL     1      42.829 -14.256   2.229  1.00  0.00     0.225 C 
HETATM    5  O   UNL     1      43.676 -14.435   1.354  1.00  0.00    -0.273 OA
HETATM    6  C   UNL     1      41.635 -13.368   1.895  1.00  0.00     0.104 C 
HETATM    7  C   UNL     1      40.805 -12.820   3.041  1.00  0.00     0.026 C 
ENDROOT
BRANCH   1   8
HETATM    8  C   UNL     1      39.854 -13.211   5.296  1.00  0.00     0.228 C 
HETATM    9  N   UNL     1      39.610 -11.874   5.402  1.00  0.00    -0.327 N 
HETATM   10  H   UNL     1      39.011 -11.728   6.209  1.00  0.00     0.169 HD
HETATM   11  O   UNL     1      39.405 -13.901   6.216  1.00  0.00    -0.273 OA
BRANCH   9  12
HETATM   12  C   UNL     1      39.884 -10.722   4.648  1.00  0.00     0.034 A 
HETATM   13  C   UNL     1      41.030  -9.937   4.708  1.00  0.00     0.032 A 
HETATM   14  C   UNL     1      41.221  -8.866   3.817  1.00  0.00     0.032 A 
HETATM   15  C   UNL     1      40.252  -8.540   2.869  1.00  0.00     0.034 A 
HETATM   16  C   UNL     1      39.064  -9.270   2.861  1.00  0.00     0.032 A 
HETATM   17  C   UNL     1      38.884 -10.345   3.739  1.00  0.00     0.032 A 
BRANCH  15  18
HETATM   18  N   UNL     1      40.394  -7.524   1.904  1.00  0.00    -0.328 N 
HETATM   19  C   UNL     1      40.828  -7.662   0.598  1.00  0.00     0.218 C 
HETATM   20  C   UNL     1      40.775  -6.365  -0.173  1.00  0.00     0.117 C 
HETATM   21  O   UNL     1      41.189  -8.697   0.049  1.00  0.00    -0.274 OA
HETATM   22  H   UNL     1      40.081  -6.603   2.184  1.00  0.00     0.169 HD
ENDBRANCH  15  18
ENDBRANCH   9  12
ENDBRANCH   1   8
BRANCH   2  23
HETATM   23  C   UNL     1      43.011 -13.387   5.366  1.00  0.00    -0.001 A 
HETATM   24  C   UNL     1      43.176 -13.497   6.769  1.00  0.00     0.076 A 
HETATM   25  C   UNL     1      43.987 -12.582   7.457  1.00  0.00     0.037 A 
HETATM   26  C   UNL     1      44.660 -11.571   6.774  1.00  0.00     0.003 A 
HETATM   27  C   UNL     1      44.538 -11.473   5.394  1.00  0.00     0.001 A 
HETATM   28  C   UNL     1      43.730 -12.375   4.699  1.00  0.00     0.012 A 
BRANCH  24  29
HETATM   29  O   UNL     1      42.491 -14.513   7.391  1.00  0.00    -0.355 OA
HETATM   30  C   UNL     1      43.260 -15.527   8.025  1.00  0.00     0.210 C 
ENDBRANCH  24  29
ENDBRANCH   2  23
BRANCH   3  31
HETATM   31  C   UNL     1      43.221 -16.302   3.519  1.00  0.00     0.038 A 
HETATM   32  C   UNL     1      42.970 -17.233   2.507  1.00  0.00     0.032 A 
HETATM   33  C   UNL     1      43.309 -18.582   2.667  1.00  0.00     0.039 A 
HETATM   34  C   UNL     1      43.878 -19.035   3.856  1.00  0.00     0.068 A 
HETATM   35  C   UNL     1      44.168 -18.116   4.859  1.00  0.00     0.039 A 
HETATM   36  C   UNL     1      43.848 -16.761   4.688  1.00  0.00     0.032 A 
BRANCH  34  37
HETATM   37  O   UNL     1      44.111 -20.380   3.922  1.00  0.00    -0.356 OA
HETATM   38  C   UNL     1      44.322 -20.908   5.228  1.00  0.00     0.210 C 
ENDBRANCH  34  37
ENDBRANCH   3  31
TORSDOF 7
ENDMDL
MODEL 5
REMARK VINA RESULT:      -8.4      1.657      2.200
REMARK  7 active torsions:
REMARK  status: ('A' for Active; 'I' for Inactive)
REMARK       I    between atoms: C_2  and  N_3 
REMARK    1  A    between atoms: N_3  and  C_4 
REMARK    2  A    between atoms: C_7  and  N_8 
REMARK       I    between atoms: N_8  and  C_9 
REMARK    3  A    between atoms: C_9  and  C_10 
REMARK    4  A    between atoms: C_11  and  C_12 
REMARK    5  A    between atoms: C_13  and  O_14 
REMARK    6  A    between atoms: N_20  and  C_21 
REMARK    7  A    between atoms: C_24  and  O_25 
ROOT
HETATM    1  C   UNL     1      42.066 -12.679   5.443  1.00  0.00     0.106 C 
HETATM    2  C   UNL     1      42.102 -13.763   4.348  1.00  0.00     0.142 C 
HETATM    3  N   UNL     1      41.704 -15.068   4.946  1.00  0.00    -0.308 N 
HETATM    4  C   UNL     1      40.543 -15.171   5.717  1.00  0.00     0.225 C 
HETATM    5  O   UNL     1      39.896 -16.202   5.906  1.00  0.00    -0.273 OA
HETATM    6  C   UNL     1      40.199 -13.948   6.559  1.00  0.00     0.104 C 
HETATM    7  C   UNL     1      40.691 -12.592   6.089  1.00  0.00     0.026 C 
ENDROOT
BRANCH   1   8
HETATM    8  C   UNL     1      42.495 -11.298   4.988  1.00  0.00     0.228 C 
HETATM    9  N   UNL     1      42.797 -10.287   5.851  1.00  0.00    -0.327 N 
HETATM   10  H   UNL     1      43.081  -9.481   5.303  1.00  0.00     0.169 HD
HETATM   11  O   UNL     1      42.530 -10.994   3.792  1.00  0.00    -0.273 OA
BRANCH   9  12
HETATM   12  C   UNL     1      42.905 -10.129   7.243  1.00  0.00     0.034 A 
HETATM   13  C   UNL     1      43.869 -10.687   8.075  1.00  0.00     0.032 A 
HETATM   14  C   UNL     1      43.923 -10.359   9.441  1.00  0.00     0.032 A 
HETATM   15  C   UNL     1      42.992  -9.490  10.007  1.00  0.00     0.034 A 
HETATM   16  C   UNL     1      41.971  -8.995   9.196  1.00  0.00     0.032 A 
HETATM   17  C   UNL     1      41.931  -9.311   7.833  1.00  0.00     0.032 A 
BRANCH  15  18
HETATM   18  N   UNL     1      43.015  -9.065  11.350  1.00  0.00    -0.328 N 
HETATM   19  C   UNL     1      42.133  -9.417  12.356  1.00  0.00     0.218 C 
HETATM   20  C   UNL     1      42.514  -8.833  13.695  1.00  0.00     0.117 C 
HETATM   21  O   UNL     1      41.156 -10.151  12.254  1.00  0.00    -0.274 OA
HETATM   22  H   UNL     1      43.803  -8.489  11.618  1.00  0.00     0.169 HD
ENDBRANCH  15  18
ENDBRANCH   9  12
ENDBRANCH   1   8
BRANCH   2  23
HETATM   23  C   UNL     1      41.345 -13.502   3.033  1.00  0.00    -0.001 A 
HETATM   24  C   UNL     1      42.002 -13.652   1.787  1.00  0.00     0.076 A 
HETATM   25  C   UNL     1      41.328 -13.351   0.594  1.00  0.00     0.037 A 
HETATM   26  C   UNL     1      40.001 -12.925   0.614  1.00  0.00     0.003 A 
HETATM   27  C   UNL     1      39.332 -12.810   1.825  1.00  0.00     0.001 A 
HETATM   28  C   UNL     1      39.994 -13.102   3.019  1.00  0.00     0.012 A 
BRANCH  24  29
HETATM   29  O   UNL     1      43.308 -14.076   1.828  1.00  0.00    -0.355 OA
HETATM   30  C   UNL     1      43.589 -15.378   1.329  1.00  0.00     0.210 C 
ENDBRANCH  24  29
ENDBRANCH   2  23
BRANCH   3  31
HETATM   31  C   UNL     1      42.577 -16.198   4.814  1.00  0.00     0.038 A 
HETATM   32  C   UNL     1      42.535 -17.034   3.694  1.00  0.00     0.032 A 
HETATM   33  C   UNL     1      43.286 -18.216   3.647  1.00  0.00     0.039 A 
HETATM   34  C   UNL     1      44.070 -18.601   4.732  1.00  0.00     0.068 A 
HETATM   35  C   UNL     1      44.153 -17.763   5.839  1.00  0.00     0.039 A 
HETATM   36  C   UNL     1      43.417 -16.569   5.875  1.00  0.00     0.032 A 
BRANCH  34  37
HETATM   37  O   UNL     1      44.711 -19.801   4.597  1.00  0.00    -0.356 OA
HETATM   38  C   UNL     1      44.124 -20.898   5.291  1.00  0.00     0.210 C 
ENDBRANCH  34  37
ENDBRANCH   3  31
TORSDOF 7
ENDMDL
MODEL 6
REMARK VINA RESULT:      -8.3     17.190     19.679
REMARK  7 active torsions:
REMARK  status: ('A' for Active; 'I' for Inactive)
REMARK       I    between atoms: C_2  and  N_3 
REMARK    1  A    between atoms: N_3  and  C_4 
REMARK    2  A    between atoms: C_7  and  N_8 
REMARK       I    between atoms: N_8  and  C_9 
REMARK    3  A    between atoms: C_9  and  C_10 
REMARK    4  A    between atoms: C_11  and  C_12 
REMARK    5  A    between atoms: C_13  and  O_14 
REMARK    6  A    between atoms: N_20  and  C_21 
REMARK    7  A    between atoms: C_24  and  O_25 
ROOT
HETATM    1  C   UNL     1      44.467 -31.010   0.398  1.00  0.00     0.106 C 
HETATM    2  C   UNL     1      45.473 -30.982  -0.769  1.00  0.00     0.142 C 
HETATM    3  N   UNL     1      45.731 -32.377  -1.220  1.00  0.00    -0.308 N 
HETATM    4  C   UNL     1      44.669 -33.243  -1.493  1.00  0.00     0.225 C 
HETATM    5  O   UNL     1      44.713 -34.223  -2.238  1.00  0.00    -0.273 OA
HETATM    6  C   UNL     1      43.433 -33.070  -0.616  1.00  0.00     0.104 C 
HETATM    7  C   UNL     1      43.175 -31.707  -0.002  1.00  0.00     0.026 C 
ENDROOT
BRANCH   1   8
HETATM    8  C   UNL     1      44.143 -29.655   0.995  1.00  0.00     0.228 C 
HETATM    9  N   UNL     1      44.954 -29.017   1.886  1.00  0.00    -0.327 N 
HETATM   10  H   UNL     1      44.530 -28.121   2.110  1.00  0.00     0.169 HD
HETATM   11  O   UNL     1      43.077 -29.081   0.752  1.00  0.00    -0.273 OA
BRANCH   9  12
HETATM   12  C   UNL     1      46.217 -29.238   2.459  1.00  0.00     0.034 A 
HETATM   13  C   UNL     1      47.355 -28.455   2.301  1.00  0.00     0.032 A 
HETATM   14  C   UNL     1      48.530 -28.734   3.021  1.00  0.00     0.032 A 
HETATM   15  C   UNL     1      48.599 -29.824   3.887  1.00  0.00     0.034 A 
HETATM   16  C   UNL     1      47.489 -30.663   3.984  1.00  0.00     0.032 A 
HETATM   17  C   UNL     1      46.316 -30.372   3.279  1.00  0.00     0.032 A 
BRANCH  15  18
HETATM   18  N   UNL     1      49.716 -30.134   4.687  1.00  0.00    -0.328 N 
HETATM   19  C   UNL     1      50.695 -31.078   4.431  1.00  0.00     0.218 C 
HETATM   20  C   UNL     1      51.788 -31.080   5.473  1.00  0.00     0.117 C 
HETATM   21  O   UNL     1      50.754 -31.832   3.466  1.00  0.00    -0.274 OA
HETATM   22  H   UNL     1      49.847 -29.555   5.507  1.00  0.00     0.169 HD
ENDBRANCH  15  18
ENDBRANCH   9  12
ENDBRANCH   1   8
BRANCH   2  23
HETATM   23  C   UNL     1      45.180 -30.058  -1.965  1.00  0.00    -0.001 A 
HETATM   24  C   UNL     1      45.769 -28.771  -2.037  1.00  0.00     0.076 A 
HETATM   25  C   UNL     1      45.449 -27.908  -3.095  1.00  0.00     0.037 A 
HETATM   26  C   UNL     1      44.572 -28.309  -4.102  1.00  0.00     0.003 A 
HETATM   27  C   UNL     1      44.016 -29.580  -4.065  1.00  0.00     0.001 A 
HETATM   28  C   UNL     1      44.323 -30.446  -3.014  1.00  0.00     0.012 A 
BRANCH  24  29
HETATM   29  O   UNL     1      46.627 -28.430  -1.020  1.00  0.00    -0.355 OA
HETATM   30  C   UNL     1      48.020 -28.455  -1.304  1.00  0.00     0.210 C 
ENDBRANCH  24  29
ENDBRANCH   2  23
BRANCH   3  31
HETATM   31  C   UNL     1      47.079 -32.863  -1.271  1.00  0.00     0.038 A 
HETATM   32  C   UNL     1      47.684 -33.473  -0.168  1.00  0.00     0.032 A 
HETATM   33  C   UNL     1      49.044 -33.806  -0.183  1.00  0.00     0.039 A 
HETATM   34  C   UNL     1      49.836 -33.506  -1.289  1.00  0.00     0.068 A 
HETATM   35  C   UNL     1      49.243 -32.932  -2.409  1.00  0.00     0.039 A 
HETATM   36  C   UNL     1      47.876 -32.620  -2.401  1.00  0.00     0.032 A 
BRANCH  34  37
HETATM   37  O   UNL     1      51.160 -33.822  -1.168  1.00  0.00    -0.356 OA
HETATM   38  C   UNL     1      51.826 -33.275  -0.034  1.00  0.00     0.210 C 
ENDBRANCH  34  37
ENDBRANCH   3  31
TORSDOF 7
ENDMDL
MODEL 7
REMARK VINA RESULT:      -8.3      3.736      8.304
REMARK  7 active torsions:
REMARK  status: ('A' for Active; 'I' for Inactive)
REMARK       I    between atoms: C_2  and  N_3 
REMARK    1  A    between atoms: N_3  and  C_4 
REMARK    2  A    between atoms: C_7  and  N_8 
REMARK       I    between atoms: N_8  and  C_9 
REMARK    3  A    between atoms: C_9  and  C_10 
REMARK    4  A    between atoms: C_11  and  C_12 
REMARK    5  A    between atoms: C_13  and  O_14 
REMARK    6  A    between atoms: N_20  and  C_21 
REMARK    7  A    between atoms: C_24  and  O_25 
ROOT
HETATM    1  C   UNL     1      40.681 -12.606  -0.548  1.00  0.00     0.106 C 
HETATM    2  C   UNL     1      40.148 -11.644   0.531  1.00  0.00     0.142 C 
HETATM    3  N   UNL     1      41.147 -10.561   0.751  1.00  0.00    -0.308 N 
HETATM    4  C   UNL     1      41.681  -9.857  -0.331  1.00  0.00     0.225 C 
HETATM    5  O   UNL     1      42.160  -8.723  -0.285  1.00  0.00    -0.273 OA
HETATM    6  C   UNL     1      41.879 -10.663  -1.610  1.00  0.00     0.104 C 
HETATM    7  C   UNL     1      40.989 -11.870  -1.842  1.00  0.00     0.026 C 
ENDROOT
BRANCH   1   8
HETATM    8  C   UNL     1      39.784 -13.792  -0.845  1.00  0.00     0.228 C 
HETATM    9  N   UNL     1      39.792 -14.938  -0.109  1.00  0.00    -0.327 N 
HETATM   10  H   UNL     1      39.087 -15.562  -0.491  1.00  0.00     0.169 HD
HETATM   11  O   UNL     1      39.036 -13.804  -1.828  1.00  0.00    -0.273 OA
BRANCH   9  12
HETATM   12  C   UNL     1      40.431 -15.403   1.053  1.00  0.00     0.034 A 
HETATM   13  C   UNL     1      41.783 -15.686   1.207  1.00  0.00     0.032 A 
HETATM   14  C   UNL     1      42.308 -16.045   2.461  1.00  0.00     0.032 A 
HETATM   15  C   UNL     1      41.484 -16.159   3.579  1.00  0.00     0.034 A 
HETATM   16  C   UNL     1      40.113 -15.960   3.412  1.00  0.00     0.032 A 
HETATM   17  C   UNL     1      39.596 -15.587   2.166  1.00  0.00     0.032 A 
BRANCH  15  18
HETATM   18  N   UNL     1      41.941 -16.453   4.878  1.00  0.00    -0.328 N 
HETATM   19  C   UNL     1      42.517 -15.580   5.783  1.00  0.00     0.218 C 
HETATM   20  C   UNL     1      42.810 -16.230   7.113  1.00  0.00     0.117 C 
HETATM   21  O   UNL     1      42.754 -14.390   5.607  1.00  0.00    -0.274 OA
HETATM   22  H   UNL     1      41.767 -17.396   5.204  1.00  0.00     0.169 HD
ENDBRANCH  15  18
ENDBRANCH   9  12
ENDBRANCH   1   8
BRANCH   2  23
HETATM   23  C   UNL     1      38.732 -11.063   0.359  1.00  0.00    -0.001 A 
HETATM   24  C   UNL     1      37.740 -11.290   1.346  1.00  0.00     0.076 A 
HETATM   25  C   UNL     1      36.435 -10.815   1.155  1.00  0.00     0.037 A 
HETATM   26  C   UNL     1      36.099 -10.095   0.011  1.00  0.00     0.003 A 
HETATM   27  C   UNL     1      37.068  -9.832  -0.947  1.00  0.00     0.001 A 
HETATM   28  C   UNL     1      38.370 -10.304  -0.771  1.00  0.00     0.012 A 
BRANCH  24  29
HETATM   29  O   UNL     1      38.128 -12.004   2.454  1.00  0.00    -0.355 OA
HETATM   30  C   UNL     1      38.431 -11.269   3.632  1.00  0.00     0.210 C 
ENDBRANCH  24  29
ENDBRANCH   2  23
BRANCH   3  31
HETATM   31  C   UNL     1      41.639 -10.317   2.076  1.00  0.00     0.038 A 
HETATM   32  C   UNL     1      42.557 -11.175   2.690  1.00  0.00     0.032 A 
HETATM   33  C   UNL     1      42.913 -11.007   4.034  1.00  0.00     0.039 A 
HETATM   34  C   UNL     1      42.335  -9.998   4.801  1.00  0.00     0.068 A 
HETATM   35  C   UNL     1      41.448  -9.113   4.196  1.00  0.00     0.039 A 
HETATM   36  C   UNL     1      41.110  -9.268   2.844  1.00  0.00     0.032 A 
BRANCH  34  37
HETATM   37  O   UNL     1      42.713  -9.967   6.114  1.00  0.00    -0.356 OA
HETATM   38  C   UNL     1      42.099  -8.959   6.911  1.00  0.00     0.210 C 
ENDBRANCH  34  37
ENDBRANCH   3  31
TORSDOF 7
ENDMDL
MODEL 8
REMARK VINA RESULT:      -8.2      6.451     10.329
REMARK  7 active torsions:
REMARK  status: ('A' for Active; 'I' for Inactive)
REMARK       I    between atoms: C_2  and  N_3 
REMARK    1  A    between atoms: N_3  and  C_4 
REMARK    2  A    between atoms: C_7  and  N_8 
REMARK       I    between atoms: N_8  and  C_9 
REMARK    3  A    between atoms: C_9  and  C_10 
REMARK    4  A    between atoms: C_11  and  C_12 
REMARK    5  A    between atoms: C_13  and  O_14 
REMARK    6  A    between atoms: N_20  and  C_21 
REMARK    7  A    between atoms: C_24  and  O_25 
ROOT
HETATM    1  C   UNL     1      41.552  -6.527  13.466  1.00  0.00     0.106 C 
HETATM    2  C   UNL     1      41.862  -6.402  11.962  1.00  0.00     0.142 C 
HETATM    3  N   UNL     1      41.988  -7.766  11.377  1.00  0.00    -0.308 N 
HETATM    4  C   UNL     1      41.004  -8.731  11.609  1.00  0.00     0.225 C 
HETATM    5  O   UNL     1      40.766  -9.702  10.889  1.00  0.00    -0.273 OA
HETATM    6  C   UNL     1      40.337  -8.678  12.978  1.00  0.00     0.104 C 
HETATM    7  C   UNL     1      40.293  -7.346  13.704  1.00  0.00     0.026 C 
ENDROOT
BRANCH   1   8
HETATM    8  C   UNL     1      41.443  -5.210  14.208  1.00  0.00     0.228 C 
HETATM    9  N   UNL     1      41.155  -5.122  15.537  1.00  0.00    -0.327 N 
HETATM   10  H   UNL     1      41.167  -4.140  15.796  1.00  0.00     0.169 HD
HETATM   11  O   UNL     1      41.545  -4.128  13.620  1.00  0.00    -0.273 OA
BRANCH   9  12
HETATM   12  C   UNL     1      40.959  -6.016  16.602  1.00  0.00     0.034 A 
HETATM   13  C   UNL     1      39.748  -6.541  17.040  1.00  0.00     0.032 A 
HETATM   14  C   UNL     1      39.707  -7.513  18.055  1.00  0.00     0.032 A 
HETATM   15  C   UNL     1      40.874  -7.955  18.674  1.00  0.00     0.034 A 
HETATM   16  C   UNL     1      42.083  -7.370  18.298  1.00  0.00     0.032 A 
HETATM   17  C   UNL     1      42.123  -6.414  17.276  1.00  0.00     0.032 A 
BRANCH  15  18
HETATM   18  N   UNL     1      40.922  -8.966  19.653  1.00  0.00    -0.328 N 
HETATM   19  C   UNL     1      40.065  -9.137  20.725  1.00  0.00     0.218 C 
HETATM   20  C   UNL     1      40.372 -10.381  21.523  1.00  0.00     0.117 C 
HETATM   21  O   UNL     1      39.115  -8.423  21.028  1.00  0.00    -0.274 OA
HETATM   22  H   UNL     1      41.626  -9.680  19.516  1.00  0.00     0.169 HD
ENDBRANCH  15  18
ENDBRANCH   9  12
ENDBRANCH   1   8
BRANCH   2  23
HETATM   23  C   UNL     1      40.951  -5.511  11.098  1.00  0.00    -0.001 A 
HETATM   24  C   UNL     1      41.493  -4.425  10.368  1.00  0.00     0.076 A 
HETATM   25  C   UNL     1      40.651  -3.577   9.635  1.00  0.00     0.037 A 
HETATM   26  C   UNL     1      39.276  -3.802   9.591  1.00  0.00     0.003 A 
HETATM   27  C   UNL     1      38.733  -4.885  10.270  1.00  0.00     0.001 A 
HETATM   28  C   UNL     1      39.562  -5.732  11.008  1.00  0.00     0.012 A 
BRANCH  24  29
HETATM   29  O   UNL     1      42.854  -4.251  10.446  1.00  0.00    -0.355 OA
HETATM   30  C   UNL     1      43.329  -2.960  10.807  1.00  0.00     0.210 C 
ENDBRANCH  24  29
ENDBRANCH   2  23
BRANCH   3  31
HETATM   31  C   UNL     1      43.180  -8.118  10.662  1.00  0.00     0.038 A 
HETATM   32  C   UNL     1      43.446  -7.617   9.384  1.00  0.00     0.032 A 
HETATM   33  C   UNL     1      44.536  -8.086   8.639  1.00  0.00     0.039 A 
HETATM   34  C   UNL     1      45.363  -9.087   9.142  1.00  0.00     0.068 A 
HETATM   35  C   UNL     1      45.134  -9.570  10.427  1.00  0.00     0.039 A 
HETATM   36  C   UNL     1      44.055  -9.084  11.181  1.00  0.00     0.032 A 
BRANCH  34  37
HETATM   37  O   UNL     1      46.357  -9.506   8.304  1.00  0.00    -0.356 OA
HETATM   38  C   UNL     1      46.058 -10.654   7.514  1.00  0.00     0.210 C 
ENDBRANCH  34  37
ENDBRANCH   3  31
TORSDOF 7
ENDMDL
MODEL 9
REMARK VINA RESULT:      -8.2      2.347      8.862
REMARK  7 active torsions:
REMARK  status: ('A' for Active; 'I' for Inactive)
REMARK       I    between atoms: C_2  and  N_3 
REMARK    1  A    between atoms: N_3  and  C_4 
REMARK    2  A    between atoms: C_7  and  N_8 
REMARK       I    between atoms: N_8  and  C_9 
REMARK    3  A    between atoms: C_9  and  C_10 
REMARK    4  A    between atoms: C_11  and  C_12 
REMARK    5  A    between atoms: C_13  and  O_14 
REMARK    6  A    between atoms: N_20  and  C_21 
REMARK    7  A    between atoms: C_24  and  O_25 
ROOT
HETATM    1  C   UNL     1      41.735 -12.535   6.165  1.00  0.00     0.106 C 
HETATM    2  C   UNL     1      41.843 -11.040   6.523  1.00  0.00     0.142 C 
HETATM    3  N   UNL     1      43.255 -10.729   6.882  1.00  0.00    -0.308 N 
HETATM    4  C   UNL     1      44.303 -11.123   6.047  1.00  0.00     0.225 C 
HETATM    5  O   UNL     1      45.417 -10.599   5.994  1.00  0.00    -0.273 OA
HETATM    6  C   UNL     1      44.103 -12.446   5.316  1.00  0.00     0.104 C 
HETATM    7  C   UNL     1      42.684 -12.903   5.035  1.00  0.00     0.026 C 
ENDROOT
BRANCH   1   8
HETATM    8  C   UNL     1      40.337 -13.010   5.822  1.00  0.00     0.228 C 
HETATM    9  N   UNL     1      40.087 -14.126   5.082  1.00  0.00    -0.327 N 
HETATM   10  H   UNL     1      39.080 -14.242   5.018  1.00  0.00     0.169 HD
HETATM   11  O   UNL     1      39.337 -12.359   6.145  1.00  0.00    -0.273 OA
BRANCH   9  12
HETATM   12  C   UNL     1      40.842 -15.160   4.504  1.00  0.00     0.034 A 
HETATM   13  C   UNL     1      41.666 -16.064   5.167  1.00  0.00     0.032 A 
HETATM   14  C   UNL     1      42.283 -17.120   4.475  1.00  0.00     0.032 A 
HETATM   15  C   UNL     1      42.115 -17.273   3.100  1.00  0.00     0.034 A 
HETATM   16  C   UNL     1      41.361 -16.320   2.416  1.00  0.00     0.032 A 
HETATM   17  C   UNL     1      40.734 -15.279   3.111  1.00  0.00     0.032 A 
BRANCH  15  18
HETATM   18  N   UNL     1      42.650 -18.337   2.346  1.00  0.00    -0.328 N 
HETATM   19  C   UNL     1      43.666 -19.199   2.716  1.00  0.00     0.218 C 
HETATM   20  C   UNL     1      43.922 -20.273   1.686  1.00  0.00     0.117 C 
HETATM   21  O   UNL     1      44.301 -19.180   3.765  1.00  0.00    -0.274 OA
HETATM   22  H   UNL     1      42.192 -18.526   1.463  1.00  0.00     0.169 HD
ENDBRANCH  15  18
ENDBRANCH   9  12
ENDBRANCH   1   8
BRANCH   2  23
HETATM   23  C   UNL     1      41.285 -10.006   5.527  1.00  0.00    -0.001 A 
HETATM   24  C   UNL     1      40.374  -9.012   5.963  1.00  0.00     0.076 A 
HETATM   25  C   UNL     1      39.818  -8.113   5.041  1.00  0.00     0.037 A 
HETATM   26  C   UNL     1      40.168  -8.167   3.693  1.00  0.00     0.003 A 
HETATM   27  C   UNL     1      41.088  -9.111   3.257  1.00  0.00     0.001 A 
HETATM   28  C   UNL     1      41.644 -10.015   4.165  1.00  0.00     0.012 A 
BRANCH  24  29
HETATM   29  O   UNL     1      40.066  -9.005   7.302  1.00  0.00    -0.355 OA
HETATM   30  C   UNL     1      39.754  -7.750   7.894  1.00  0.00     0.210 C 
ENDBRANCH  24  29
ENDBRANCH   2  23
BRANCH   3  31
HETATM   31  C   UNL     1      43.541 -10.114   8.146  1.00  0.00     0.038 A 
HETATM   32  C   UNL     1      43.828 -10.873   9.284  1.00  0.00     0.032 A 
HETATM   33  C   UNL     1      43.957 -10.267  10.541  1.00  0.00     0.039 A 
HETATM   34  C   UNL     1      43.769  -8.895  10.690  1.00  0.00     0.068 A 
HETATM   35  C   UNL     1      43.519  -8.120   9.562  1.00  0.00     0.039 A 
HETATM   36  C   UNL     1      43.412  -8.725   8.301  1.00  0.00     0.032 A 
BRANCH  34  37
HETATM   37  O   UNL     1      43.860  -8.424  11.970  1.00  0.00    -0.356 OA
HETATM   38  C   UNL     1      42.772  -8.751  12.829  1.00  0.00     0.210 C 
ENDBRANCH  34  37
ENDBRANCH   3  31
TORSDOF 7
ENDMDL
MODEL 10
REMARK VINA RESULT:      -8.1      4.360      7.889
REMARK  7 active torsions:
REMARK  status: ('A' for Active; 'I' for Inactive)
REMARK       I    between atoms: C_2  and  N_3 
REMARK    1  A    between atoms: N_3  and  C_4 
REMARK    2  A    between atoms: C_7  and  N_8 
REMARK       I    between atoms: N_8  and  C_9 
REMARK    3  A    between atoms: C_9  and  C_10 
REMARK    4  A    between atoms: C_11  and  C_12 
REMARK    5  A    between atoms: C_13  and  O_14 
REMARK    6  A    between atoms: N_20  and  C_21 
REMARK    7  A    between atoms: C_24  and  O_25 
ROOT
HETATM    1  C   UNL     1      40.567 -11.236   2.904  1.00  0.00     0.106 C 
HETATM    2  C   UNL     1      40.481 -10.993   1.385  1.00  0.00     0.142 C 
HETATM    3  N   UNL     1      39.130 -11.396   0.906  1.00  0.00    -0.308 N 
HETATM    4  C   UNL     1      37.981 -10.936   1.555  1.00  0.00     0.225 C 
HETATM    5  O   UNL     1      36.861 -10.839   1.051  1.00  0.00    -0.273 OA
HETATM    6  C   UNL     1      38.100 -10.759   3.064  1.00  0.00     0.104 C 
HETATM    7  C   UNL     1      39.474 -10.484   3.647  1.00  0.00     0.026 C 
ENDROOT
BRANCH   1   8
HETATM    8  C   UNL     1      41.912 -10.913   3.527  1.00  0.00     0.228 C 
HETATM    9  N   UNL     1      42.851 -11.859   3.808  1.00  0.00    -0.327 N 
HETATM   10  H   UNL     1      43.666 -11.387   4.190  1.00  0.00     0.169 HD
HETATM   11  O   UNL     1      42.200  -9.765   3.879  1.00  0.00    -0.273 OA
BRANCH   9  12
HETATM   12  C   UNL     1      43.002 -13.242   3.611  1.00  0.00     0.034 A 
HETATM   13  C   UNL     1      42.882 -14.240   4.571  1.00  0.00     0.032 A 
HETATM   14  C   UNL     1      42.953 -15.598   4.214  1.00  0.00     0.032 A 
HETATM   15  C   UNL     1      43.178 -15.982   2.894  1.00  0.00     0.034 A 
HETATM   16  C   UNL     1      43.385 -14.985   1.941  1.00  0.00     0.032 A 
HETATM   17  C   UNL     1      43.297 -13.634   2.297  1.00  0.00     0.032 A 
BRANCH  15  18
HETATM   18  N   UNL     1      43.202 -17.318   2.447  1.00  0.00    -0.328 N 
HETATM   19  C   UNL     1      43.821 -18.395   3.055  1.00  0.00     0.218 C 
HETATM   20  C   UNL     1      43.568 -19.697   2.333  1.00  0.00     0.117 C 
HETATM   21  O   UNL     1      44.481 -18.376   4.089  1.00  0.00    -0.274 OA
HETATM   22  H   UNL     1      42.650 -17.517   1.622  1.00  0.00     0.169 HD
ENDBRANCH  15  18
ENDBRANCH   9  12
ENDBRANCH   1   8
BRANCH   2  23
HETATM   23  C   UNL     1      40.871  -9.606   0.842  1.00  0.00    -0.001 A 
HETATM   24  C   UNL     1      41.633  -9.491  -0.347  1.00  0.00     0.076 A 
HETATM   25  C   UNL     1      42.041  -8.229  -0.803  1.00  0.00     0.037 A 
HETATM   26  C   UNL     1      41.683  -7.072  -0.113  1.00  0.00     0.003 A 
HETATM   27  C   UNL     1      40.905  -7.166   1.033  1.00  0.00     0.001 A 
HETATM   28  C   UNL     1      40.498  -8.417   1.499  1.00  0.00     0.012 A 
BRANCH  24  29
HETATM   29  O   UNL     1      41.955 -10.663  -0.987  1.00  0.00    -0.355 OA
HETATM   30  C   UNL     1      41.402 -10.875  -2.279  1.00  0.00     0.210 C 
ENDBRANCH  24  29
ENDBRANCH   2  23
BRANCH   3  31
HETATM   31  C   UNL     1      39.015 -12.346  -0.162  1.00  0.00     0.038 A 
HETATM   32  C   UNL     1      38.081 -12.189  -1.190  1.00  0.00     0.032 A 
HETATM   33  C   UNL     1      37.879 -13.198  -2.141  1.00  0.00     0.039 A 
HETATM   34  C   UNL     1      38.584 -14.397  -2.065  1.00  0.00     0.068 A 
HETATM   35  C   UNL     1      39.544 -14.555  -1.070  1.00  0.00     0.039 A 
HETATM   36  C   UNL     1      39.761 -13.535  -0.131  1.00  0.00     0.032 A 
BRANCH  34  37
HETATM   37  O   UNL     1      38.261 -15.330  -3.010  1.00  0.00    -0.356 OA
HETATM   38  C   UNL     1      37.905 -14.817  -4.290  1.00  0.00     0.210 C 
ENDBRANCH  34  37
ENDBRANCH   3  31
TORSDOF 7
ENDMDL
