MODEL 1
REMARK VINA RESULT:      -8.5      0.000      0.000
REMARK  5 active torsions:
REMARK  status: ('A' for Active; 'I' for Inactive)
REMARK    1  A    between atoms: O_2  and  C_3 
REMARK    2  A    between atoms: C_6  and  N_7 
REMARK       I    between atoms: N_7  and  C_8 
REMARK    3  A    between atoms: C_8  and  C_9 
REMARK    4  A    between atoms: C_9  and  N_10 
REMARK    5  A    between atoms: N_10  and  C_11 
ROOT
HETATM    1  C   UNL     1      42.509 -14.975   1.616  1.00  0.00     0.195 C 
ENDROOT
BRANCH   1   2
HETATM    2  C   UNL     1      41.111 -14.912   0.986  1.00  0.00     0.235 C 
HETATM    3  N   UNL     1      40.990 -13.923   0.023  1.00  0.00    -0.326 N 
HETATM    4  H   UNL     1      41.812 -13.334  -0.090  1.00  0.00     0.169 HD
HETATM    5  O   UNL     1      40.226 -15.678   1.361  1.00  0.00    -0.272 OA
BRANCH   3   6
HETATM    6  C   UNL     1      39.870 -13.646  -0.785  1.00  0.00     0.034 A 
HETATM    7  C   UNL     1      39.515 -14.400  -1.906  1.00  0.00     0.032 A 
HETATM    8  C   UNL     1      38.392 -14.067  -2.675  1.00  0.00     0.039 A 
HETATM    9  C   UNL     1      37.607 -12.969  -2.332  1.00  0.00     0.068 A 
HETATM   10  C   UNL     1      37.961 -12.207  -1.218  1.00  0.00     0.039 A 
HETATM   11  C   UNL     1      39.082 -12.542  -0.447  1.00  0.00     0.032 A 
BRANCH   9  12
HETATM   12  O   UNL     1      36.491 -12.541  -2.996  1.00  0.00    -0.356 OA
HETATM   13  C   UNL     1      36.283 -11.134  -3.054  1.00  0.00     0.210 C 
ENDBRANCH   9  12
ENDBRANCH   3   6
ENDBRANCH   1   2
BRANCH   1  14
HETATM   14  N   UNL     1      43.078 -16.351   1.560  1.00  0.00    -0.283 NA
HETATM   15  H   UNL     1      42.407 -16.969   1.102  1.00  0.00     0.128 HD
BRANCH  14  16
HETATM   16  C   UNL     1      43.271 -16.845   2.893  1.00  0.00     0.019 A 
HETATM   17  C   UNL     1      43.485 -18.223   3.177  1.00  0.00    -0.005 A 
HETATM   18  C   UNL     1      43.842 -18.602   4.497  1.00  0.00    -0.024 A 
HETATM   19  C   UNL     1      43.354 -19.252   2.215  1.00  0.00     0.014 A 
HETATM   20  C   UNL     1      44.106 -19.949   4.795  1.00  0.00     0.012 A 
HETATM   21  C   UNL     1      43.932 -17.630   5.504  1.00  0.00     0.012 A 
HETATM   22  C   UNL     1      44.004 -20.935   3.816  1.00  0.00     0.001 A 
HETATM   23  C   UNL     1      43.616 -20.589   2.528  1.00  0.00     0.001 A 
HETATM   24  C   UNL     1      43.676 -16.291   5.228  1.00  0.00     0.003 A 
HETATM   25  C   UNL     1      43.355 -15.900   3.932  1.00  0.00     0.024 A 
ENDBRANCH  14  16
ENDBRANCH   1  14
TORSDOF 5
ENDMDL
MODEL 2
REMARK VINA RESULT:      -8.2      2.140      2.861
REMARK  5 active torsions:
REMARK  status: ('A' for Active; 'I' for Inactive)
REMARK    1  A    between atoms: O_2  and  C_3 
REMARK    2  A    between atoms: C_6  and  N_7 
REMARK       I    between atoms: N_7  and  C_8 
REMARK    3  A    between atoms: C_8  and  C_9 
REMARK    4  A    between atoms: C_9  and  N_10 
REMARK    5  A    between atoms: N_10  and  C_11 
ROOT
HETATM    1  C   UNL     1      40.807 -13.743   4.412  1.00  0.00     0.195 C 
ENDROOT
BRANCH   1   2
HETATM    2  C   UNL     1      40.137 -13.442   3.065  1.00  0.00     0.235 C 
HETATM    3  N   UNL     1      40.910 -13.810   1.975  1.00  0.00    -0.326 N 
HETATM    4  H   UNL     1      41.834 -14.165   2.209  1.00  0.00     0.169 HD
HETATM    5  O   UNL     1      39.032 -12.904   3.028  1.00  0.00    -0.272 OA
BRANCH   3   6
HETATM    6  C   UNL     1      40.563 -13.732   0.612  1.00  0.00     0.034 A 
HETATM    7  C   UNL     1      40.868 -12.641  -0.205  1.00  0.00     0.032 A 
HETATM    8  C   UNL     1      40.488 -12.621  -1.554  1.00  0.00     0.039 A 
HETATM    9  C   UNL     1      39.793 -13.694  -2.104  1.00  0.00     0.068 A 
HETATM   10  C   UNL     1      39.479 -14.784  -1.290  1.00  0.00     0.039 A 
HETATM   11  C   UNL     1      39.863 -14.806   0.057  1.00  0.00     0.032 A 
BRANCH   9  12
HETATM   12  O   UNL     1      39.368 -13.798  -3.400  1.00  0.00    -0.356 OA
HETATM   13  C   UNL     1      38.245 -14.639  -3.637  1.00  0.00     0.210 C 
ENDBRANCH   9  12
ENDBRANCH   3   6
ENDBRANCH   1   2
BRANCH   1  14
HETATM   14  N   UNL     1      40.313 -15.020   5.000  1.00  0.00    -0.283 NA
HETATM   15  H   UNL     1      39.733 -14.808   5.813  1.00  0.00     0.128 HD
BRANCH  14  16
HETATM   16  C   UNL     1      41.428 -15.796   5.465  1.00  0.00     0.019 A 
HETATM   17  C   UNL     1      42.196 -16.627   4.602  1.00  0.00    -0.005 A 
HETATM   18  C   UNL     1      43.384 -17.220   5.103  1.00  0.00    -0.024 A 
HETATM   19  C   UNL     1      41.840 -16.911   3.263  1.00  0.00     0.014 A 
HETATM   20  C   UNL     1      44.188 -18.006   4.261  1.00  0.00     0.012 A 
HETATM   21  C   UNL     1      43.757 -17.018   6.440  1.00  0.00     0.012 A 
HETATM   22  C   UNL     1      43.828 -18.236   2.935  1.00  0.00     0.001 A 
HETATM   23  C   UNL     1      42.647 -17.698   2.438  1.00  0.00     0.001 A 
HETATM   24  C   UNL     1      42.976 -16.240   7.289  1.00  0.00     0.003 A 
HETATM   25  C   UNL     1      41.824 -15.629   6.805  1.00  0.00     0.024 A 
ENDBRANCH  14  16
ENDBRANCH   1  14
TORSDOF 5
ENDMDL
MODEL 3
REMARK VINA RESULT:      -7.9      5.008      8.291
REMARK  5 active torsions:
REMARK  status: ('A' for Active; 'I' for Inactive)
REMARK    1  A    between atoms: O_2  and  C_3 
REMARK    2  A    between atoms: C_6  and  N_7 
REMARK       I    between atoms: N_7  and  C_8 
REMARK    3  A    between atoms: C_8  and  C_9 
REMARK    4  A    between atoms: C_9  and  N_10 
REMARK    5  A    between atoms: N_10  and  C_11 
ROOT
HETATM    1  C   UNL     1      43.278 -12.713   3.097  1.00  0.00     0.195 C 
ENDROOT
BRANCH   1   2
HETATM    2  C   UNL     1      43.510 -11.698   4.223  1.00  0.00     0.235 C 
HETATM    3  N   UNL     1      44.164 -12.236   5.319  1.00  0.00    -0.326 N 
HETATM    4  H   UNL     1      44.342 -13.236   5.261  1.00  0.00     0.169 HD
HETATM    5  O   UNL     1      43.109 -10.541   4.108  1.00  0.00    -0.272 OA
BRANCH   3   6
HETATM    6  C   UNL     1      44.585 -11.563   6.483  1.00  0.00     0.034 A 
HETATM    7  C   UNL     1      45.881 -11.077   6.673  1.00  0.00     0.032 A 
HETATM    8  C   UNL     1      46.240 -10.423   7.859  1.00  0.00     0.039 A 
HETATM    9  C   UNL     1      45.305 -10.247   8.875  1.00  0.00     0.068 A 
HETATM   10  C   UNL     1      44.010 -10.738   8.694  1.00  0.00     0.039 A 
HETATM   11  C   UNL     1      43.651 -11.389   7.507  1.00  0.00     0.032 A 
BRANCH   9  12
HETATM   12  O   UNL     1      45.527  -9.628  10.074  1.00  0.00    -0.356 OA
HETATM   13  C   UNL     1      44.376  -9.291  10.841  1.00  0.00     0.210 C 
ENDBRANCH   9  12
ENDBRANCH   3   6
ENDBRANCH   1   2
BRANCH   1  14
HETATM   14  N   UNL     1      42.231 -13.710   3.460  1.00  0.00    -0.283 NA
HETATM   15  H   UNL     1      41.976 -13.581   4.440  1.00  0.00     0.128 HD
BRANCH  14  16
HETATM   16  C   UNL     1      42.767 -15.035   3.331  1.00  0.00     0.019 A 
HETATM   17  C   UNL     1      43.009 -15.877   4.453  1.00  0.00    -0.005 A 
HETATM   18  C   UNL     1      43.370 -17.230   4.227  1.00  0.00    -0.024 A 
HETATM   19  C   UNL     1      42.919 -15.441   5.795  1.00  0.00     0.014 A 
HETATM   20  C   UNL     1      43.568 -18.097   5.315  1.00  0.00     0.012 A 
HETATM   21  C   UNL     1      43.528 -17.704   2.916  1.00  0.00     0.012 A 
HETATM   22  C   UNL     1      43.437 -17.645   6.626  1.00  0.00     0.001 A 
HETATM   23  C   UNL     1      43.124 -16.313   6.868  1.00  0.00     0.001 A 
HETATM   24  C   UNL     1      43.333 -16.862   1.826  1.00  0.00     0.003 A 
HETATM   25  C   UNL     1      42.950 -15.541   2.030  1.00  0.00     0.024 A 
ENDBRANCH  14  16
ENDBRANCH   1  14
TORSDOF 5
ENDMDL
MODEL 4
REMARK VINA RESULT:      -7.9      5.684      8.279
REMARK  5 active torsions:
REMARK  status: ('A' for Active; 'I' for Inactive)
REMARK    1  A    between atoms: O_2  and  C_3 
REMARK    2  A    between atoms: C_6  and  N_7 
REMARK       I    between atoms: N_7  and  C_8 
REMARK    3  A    between atoms: C_8  and  C_9 
REMARK    4  A    between atoms: C_9  and  N_10 
REMARK    5  A    between atoms: N_10  and  C_11 
ROOT
HETATM    1  C   UNL     1      43.708 -14.429   6.397  1.00  0.00     0.195 C 
ENDROOT
BRANCH   1   2
HETATM    2  C   UNL     1      43.850 -12.902   6.365  1.00  0.00     0.235 C 
HETATM    3  N   UNL     1      43.781 -12.319   7.620  1.00  0.00    -0.326 N 
HETATM    4  H   UNL     1      43.581 -12.966   8.380  1.00  0.00     0.169 HD
HETATM    5  O   UNL     1      43.987 -12.314   5.294  1.00  0.00    -0.272 OA
BRANCH   3   6
HETATM    6  C   UNL     1      43.940 -10.958   7.944  1.00  0.00     0.034 A 
HETATM    7  C   UNL     1      45.077 -10.435   8.564  1.00  0.00     0.032 A 
HETATM    8  C   UNL     1      45.171  -9.070   8.868  1.00  0.00     0.039 A 
HETATM    9  C   UNL     1      44.124  -8.208   8.557  1.00  0.00     0.068 A 
HETATM   10  C   UNL     1      42.981  -8.726   7.944  1.00  0.00     0.039 A 
HETATM   11  C   UNL     1      42.889 -10.089   7.637  1.00  0.00     0.032 A 
BRANCH   9  12
HETATM   12  O   UNL     1      44.091  -6.862   8.798  1.00  0.00    -0.356 OA
HETATM   13  C   UNL     1      43.109  -6.402   9.720  1.00  0.00     0.210 C 
ENDBRANCH   9  12
ENDBRANCH   3   6
ENDBRANCH   1   2
BRANCH   1  14
HETATM   14  N   UNL     1      42.492 -14.886   5.667  1.00  0.00    -0.283 NA
HETATM   15  H   UNL     1      42.031 -15.615   6.215  1.00  0.00     0.128 HD
BRANCH  14  16
HETATM   16  C   UNL     1      42.878 -15.475   4.417  1.00  0.00     0.019 A 
HETATM   17  C   UNL     1      43.295 -16.832   4.304  1.00  0.00    -0.005 A 
HETATM   18  C   UNL     1      43.488 -17.383   3.011  1.00  0.00    -0.024 A 
HETATM   19  C   UNL     1      43.542 -17.672   5.415  1.00  0.00     0.014 A 
HETATM   20  C   UNL     1      43.853 -18.732   2.868  1.00  0.00     0.012 A 
HETATM   21  C   UNL     1      43.312 -16.580   1.874  1.00  0.00     0.012 A 
HETATM   22  C   UNL     1      44.054 -19.543   3.982  1.00  0.00     0.001 A 
HETATM   23  C   UNL     1      43.910 -19.011   5.257  1.00  0.00     0.001 A 
HETATM   24  C   UNL     1      42.947 -15.242   1.995  1.00  0.00     0.003 A 
HETATM   25  C   UNL     1      42.726 -14.696   3.255  1.00  0.00     0.024 A 
ENDBRANCH  14  16
ENDBRANCH   1  14
TORSDOF 5
ENDMDL
MODEL 5
REMARK VINA RESULT:      -7.7      4.479      7.443
REMARK  5 active torsions:
REMARK  status: ('A' for Active; 'I' for Inactive)
REMARK    1  A    between atoms: O_2  and  C_3 
REMARK    2  A    between atoms: C_6  and  N_7 
REMARK       I    between atoms: N_7  and  C_8 
REMARK    3  A    between atoms: C_8  and  C_9 
REMARK    4  A    between atoms: C_9  and  N_10 
REMARK    5  A    between atoms: N_10  and  C_11 
ROOT
HETATM    1  C   UNL     1      40.141 -13.726   3.637  1.00  0.00     0.195 C 
ENDROOT
BRANCH   1   2
HETATM    2  C   UNL     1      40.695 -13.126   4.935  1.00  0.00     0.235 C 
HETATM    3  N   UNL     1      41.965 -12.591   4.792  1.00  0.00    -0.326 N 
HETATM    4  H   UNL     1      42.383 -12.725   3.875  1.00  0.00     0.169 HD
HETATM    5  O   UNL     1      40.033 -13.168   5.971  1.00  0.00    -0.272 OA
BRANCH   3   6
HETATM    6  C   UNL     1      42.725 -11.912   5.765  1.00  0.00     0.034 A 
HETATM    7  C   UNL     1      42.360 -10.679   6.313  1.00  0.00     0.032 A 
HETATM    8  C   UNL     1      43.164 -10.050   7.272  1.00  0.00     0.039 A 
HETATM    9  C   UNL     1      44.349 -10.646   7.696  1.00  0.00     0.068 A 
HETATM   10  C   UNL     1      44.722 -11.873   7.146  1.00  0.00     0.039 A 
HETATM   11  C   UNL     1      43.916 -12.504   6.190  1.00  0.00     0.032 A 
BRANCH   9  12
HETATM   12  O   UNL     1      45.218 -10.138   8.622  1.00  0.00    -0.356 OA
HETATM   13  C   UNL     1      46.200  -9.226   8.143  1.00  0.00     0.210 C 
ENDBRANCH   9  12
ENDBRANCH   3   6
ENDBRANCH   1   2
BRANCH   1  14
HETATM   14  N   UNL     1      40.018 -15.208   3.722  1.00  0.00    -0.283 NA
HETATM   15  H   UNL     1      39.815 -15.470   4.688  1.00  0.00     0.128 HD
BRANCH  14  16
HETATM   16  C   UNL     1      41.271 -15.814   3.372  1.00  0.00     0.019 A 
HETATM   17  C   UNL     1      42.095 -16.476   4.326  1.00  0.00    -0.005 A 
HETATM   18  C   UNL     1      43.227 -17.198   3.867  1.00  0.00    -0.024 A 
HETATM   19  C   UNL     1      41.859 -16.450   5.720  1.00  0.00     0.014 A 
HETATM   20  C   UNL     1      44.031 -17.901   4.780  1.00  0.00     0.012 A 
HETATM   21  C   UNL     1      43.542 -17.212   2.500  1.00  0.00     0.012 A 
HETATM   22  C   UNL     1      43.750 -17.885   6.145  1.00  0.00     0.001 A 
HETATM   23  C   UNL     1      42.670 -17.150   6.617  1.00  0.00     0.001 A 
HETATM   24  C   UNL     1      42.756 -16.525   1.580  1.00  0.00     0.003 A 
HETATM   25  C   UNL     1      41.627 -15.837   2.011  1.00  0.00     0.024 A 
ENDBRANCH  14  16
ENDBRANCH   1  14
TORSDOF 5
ENDMDL
MODEL 6
REMARK VINA RESULT:      -7.6      3.816      4.696
REMARK  5 active torsions:
REMARK  status: ('A' for Active; 'I' for Inactive)
REMARK    1  A    between atoms: O_2  and  C_3 
REMARK    2  A    between atoms: C_6  and  N_7 
REMARK       I    between atoms: N_7  and  C_8 
REMARK    3  A    between atoms: C_8  and  C_9 
REMARK    4  A    between atoms: C_9  and  N_10 
REMARK    5  A    between atoms: N_10  and  C_11 
ROOT
HETATM    1  C   UNL     1      41.154 -15.494   2.360  1.00  0.00     0.195 C 
ENDROOT
BRANCH   1   2
HETATM    2  C   UNL     1      40.992 -14.027   2.780  1.00  0.00     0.235 C 
HETATM    3  N   UNL     1      39.857 -13.798   3.539  1.00  0.00    -0.326 N 
HETATM    4  H   UNL     1      39.254 -14.608   3.660  1.00  0.00     0.169 HD
HETATM    5  O   UNL     1      41.815 -13.185   2.423  1.00  0.00    -0.272 OA
BRANCH   3   6
HETATM    6  C   UNL     1      39.452 -12.587   4.134  1.00  0.00     0.034 A 
HETATM    7  C   UNL     1      39.068 -11.456   3.409  1.00  0.00     0.032 A 
HETATM    8  C   UNL     1      38.684 -10.277   4.061  1.00  0.00     0.039 A 
HETATM    9  C   UNL     1      38.681 -10.212   5.452  1.00  0.00     0.068 A 
HETATM   10  C   UNL     1      39.072 -11.336   6.182  1.00  0.00     0.039 A 
HETATM   11  C   UNL     1      39.452 -12.516   5.530  1.00  0.00     0.032 A 
BRANCH   9  12
HETATM   12  O   UNL     1      38.328  -9.126   6.206  1.00  0.00    -0.356 OA
HETATM   13  C   UNL     1      38.402  -7.856   5.569  1.00  0.00     0.210 C 
ENDBRANCH   9  12
ENDBRANCH   3   6
ENDBRANCH   1   2
BRANCH   1  14
HETATM   14  N   UNL     1      42.587 -15.866   2.193  1.00  0.00    -0.283 NA
HETATM   15  H   UNL     1      42.679 -16.477   1.380  1.00  0.00     0.128 HD
BRANCH  14  16
HETATM   16  C   UNL     1      43.025 -16.613   3.338  1.00  0.00     0.019 A 
HETATM   17  C   UNL     1      43.283 -18.013   3.287  1.00  0.00    -0.005 A 
HETATM   18  C   UNL     1      43.880 -18.639   4.412  1.00  0.00    -0.024 A 
HETATM   19  C   UNL     1      42.970 -18.829   2.175  1.00  0.00     0.014 A 
HETATM   20  C   UNL     1      44.191 -20.008   4.372  1.00  0.00     0.012 A 
HETATM   21  C   UNL     1      44.162 -17.889   5.563  1.00  0.00     0.012 A 
HETATM   22  C   UNL     1      43.902 -20.777   3.247  1.00  0.00     0.001 A 
HETATM   23  C   UNL     1      43.281 -20.191   2.152  1.00  0.00     0.001 A 
HETATM   24  C   UNL     1      43.864 -16.531   5.621  1.00  0.00     0.003 A 
HETATM   25  C   UNL     1      43.306 -15.896   4.516  1.00  0.00     0.024 A 
ENDBRANCH  14  16
ENDBRANCH   1  14
TORSDOF 5
ENDMDL
MODEL 7
REMARK VINA RESULT:      -7.6     13.982     16.816
REMARK  5 active torsions:
REMARK  status: ('A' for Active; 'I' for Inactive)
REMARK    1  A    between atoms: O_2  and  C_3 
REMARK    2  A    between atoms: C_6  and  N_7 
REMARK       I    between atoms: N_7  and  C_8 
REMARK    3  A    between atoms: C_8  and  C_9 
REMARK    4  A    between atoms: C_9  and  N_10 
REMARK    5  A    between atoms: N_10  and  C_11 
ROOT
HETATM    1  C   UNL     1      45.202 -29.261   2.300  1.00  0.00     0.195 C 
ENDROOT
BRANCH   1   2
HETATM    2  C   UNL     1      46.585 -28.994   1.692  1.00  0.00     0.235 C 
HETATM    3  N   UNL     1      47.104 -30.086   1.015  1.00  0.00    -0.326 N 
HETATM    4  H   UNL     1      46.538 -30.929   1.067  1.00  0.00     0.169 HD
HETATM    5  O   UNL     1      47.132 -27.904   1.847  1.00  0.00    -0.272 OA
BRANCH   3   6
HETATM    6  C   UNL     1      48.312 -30.153   0.293  1.00  0.00     0.034 A 
HETATM    7  C   UNL     1      49.545 -30.467   0.869  1.00  0.00     0.032 A 
HETATM    8  C   UNL     1      50.713 -30.509   0.096  1.00  0.00     0.039 A 
HETATM    9  C   UNL     1      50.664 -30.236  -1.268  1.00  0.00     0.068 A 
HETATM   10  C   UNL     1      49.436 -29.913  -1.848  1.00  0.00     0.039 A 
HETATM   11  C   UNL     1      48.267 -29.875  -1.076  1.00  0.00     0.032 A 
BRANCH   9  12
HETATM   12  O   UNL     1      51.727 -30.244  -2.129  1.00  0.00    -0.356 OA
HETATM   13  C   UNL     1      52.359 -31.500  -2.349  1.00  0.00     0.210 C 
ENDBRANCH   9  12
ENDBRANCH   3   6
ENDBRANCH   1   2
BRANCH   1  14
HETATM   14  N   UNL     1      44.106 -28.826   1.389  1.00  0.00    -0.283 NA
HETATM   15  H   UNL     1      43.223 -28.838   1.903  1.00  0.00     0.128 HD
BRANCH  14  16
HETATM   16  C   UNL     1      43.981 -29.763   0.309  1.00  0.00     0.019 A 
HETATM   17  C   UNL     1      44.393 -29.461  -1.020  1.00  0.00    -0.005 A 
HETATM   18  C   UNL     1      44.399 -30.500  -1.986  1.00  0.00    -0.024 A 
HETATM   19  C   UNL     1      44.793 -28.173  -1.444  1.00  0.00     0.014 A 
HETATM   20  C   UNL     1      44.847 -30.243  -3.293  1.00  0.00     0.012 A 
HETATM   21  C   UNL     1      43.960 -31.785  -1.636  1.00  0.00     0.012 A 
HETATM   22  C   UNL     1      45.269 -28.970  -3.669  1.00  0.00     0.001 A 
HETATM   23  C   UNL     1      45.231 -27.931  -2.748  1.00  0.00     0.001 A 
HETATM   24  C   UNL     1      43.516 -32.060  -0.346  1.00  0.00     0.003 A 
HETATM   25  C   UNL     1      43.532 -31.060   0.620  1.00  0.00     0.024 A 
ENDBRANCH  14  16
ENDBRANCH   1  14
TORSDOF 5
ENDMDL
MODEL 8
REMARK VINA RESULT:      -7.5      2.046      3.129
REMARK  5 active torsions:
REMARK  status: ('A' for Active; 'I' for Inactive)
REMARK    1  A    between atoms: O_2  and  C_3 
REMARK    2  A    between atoms: C_6  and  N_7 
REMARK       I    between atoms: N_7  and  C_8 
REMARK    3  A    between atoms: C_8  and  C_9 
REMARK    4  A    between atoms: C_9  and  N_10 
REMARK    5  A    between atoms: N_10  and  C_11 
ROOT
HETATM    1  C   UNL     1      39.790 -15.749   1.903  1.00  0.00     0.195 C 
ENDROOT
BRANCH   1   2
HETATM    2  C   UNL     1      39.792 -14.366   1.239  1.00  0.00     0.235 C 
HETATM    3  N   UNL     1      39.660 -14.420  -0.139  1.00  0.00    -0.326 N 
HETATM    4  H   UNL     1      39.647 -15.360  -0.529  1.00  0.00     0.169 HD
HETATM    5  O   UNL     1      39.924 -13.351   1.921  1.00  0.00    -0.272 OA
BRANCH   3   6
HETATM    6  C   UNL     1      39.561 -13.338  -1.035  1.00  0.00     0.034 A 
HETATM    7  C   UNL     1      40.628 -12.496  -1.358  1.00  0.00     0.032 A 
HETATM    8  C   UNL     1      40.461 -11.430  -2.251  1.00  0.00     0.039 A 
HETATM    9  C   UNL     1      39.220 -11.189  -2.834  1.00  0.00     0.068 A 
HETATM   10  C   UNL     1      38.148 -12.022  -2.510  1.00  0.00     0.039 A 
HETATM   11  C   UNL     1      38.316 -13.091  -1.619  1.00  0.00     0.032 A 
BRANCH   9  12
HETATM   12  O   UNL     1      38.928 -10.187  -3.718  1.00  0.00    -0.356 OA
HETATM   13  C   UNL     1      40.000  -9.326  -4.085  1.00  0.00     0.210 C 
ENDBRANCH   9  12
ENDBRANCH   3   6
ENDBRANCH   1   2
BRANCH   1  14
HETATM   14  N   UNL     1      40.224 -15.680   3.326  1.00  0.00    -0.283 NA
HETATM   15  H   UNL     1      40.391 -14.703   3.575  1.00  0.00     0.128 HD
BRANCH  14  16
HETATM   16  C   UNL     1      41.470 -16.375   3.481  1.00  0.00     0.019 A 
HETATM   17  C   UNL     1      42.107 -16.535   4.745  1.00  0.00    -0.005 A 
HETATM   18  C   UNL     1      43.240 -17.385   4.836  1.00  0.00    -0.024 A 
HETATM   19  C   UNL     1      41.682 -15.885   5.926  1.00  0.00     0.014 A 
HETATM   20  C   UNL     1      43.860 -17.599   6.078  1.00  0.00     0.012 A 
HETATM   21  C   UNL     1      43.739 -18.012   3.685  1.00  0.00     0.012 A 
HETATM   22  C   UNL     1      43.394 -16.971   7.231  1.00  0.00     0.001 A 
HETATM   23  C   UNL     1      42.311 -16.104   7.154  1.00  0.00     0.001 A 
HETATM   24  C   UNL     1      43.137 -17.815   2.447  1.00  0.00     0.003 A 
HETATM   25  C   UNL     1      42.008 -17.009   2.346  1.00  0.00     0.024 A 
ENDBRANCH  14  16
ENDBRANCH   1  14
TORSDOF 5
ENDMDL
MODEL 9
REMARK VINA RESULT:      -7.3      5.152      8.834
REMARK  5 active torsions:
REMARK  status: ('A' for Active; 'I' for Inactive)
REMARK    1  A    between atoms: O_2  and  C_3 
REMARK    2  A    between atoms: C_6  and  N_7 
REMARK       I    between atoms: N_7  and  C_8 
REMARK    3  A    between atoms: C_8  and  C_9 
REMARK    4  A    between atoms: C_9  and  N_10 
REMARK    5  A    between atoms: N_10  and  C_11 
ROOT
HETATM    1  C   UNL     1      41.875 -12.542   4.784  1.00  0.00     0.195 C 
ENDROOT
BRANCH   1   2
HETATM    2  C   UNL     1      41.758 -14.023   4.400  1.00  0.00     0.235 C 
HETATM    3  N   UNL     1      42.985 -14.629   4.183  1.00  0.00    -0.326 N 
HETATM    4  H   UNL     1      43.786 -14.005   4.241  1.00  0.00     0.169 HD
HETATM    5  O   UNL     1      40.653 -14.551   4.291  1.00  0.00    -0.272 OA
BRANCH   3   6
HETATM    6  C   UNL     1      43.232 -15.983   3.884  1.00  0.00     0.034 A 
HETATM    7  C   UNL     1      43.698 -16.912   4.818  1.00  0.00     0.032 A 
HETATM    8  C   UNL     1      43.932 -18.245   4.455  1.00  0.00     0.039 A 
HETATM    9  C   UNL     1      43.703 -18.668   3.149  1.00  0.00     0.068 A 
HETATM   10  C   UNL     1      43.244 -17.743   2.209  1.00  0.00     0.039 A 
HETATM   11  C   UNL     1      43.007 -16.411   2.573  1.00  0.00     0.032 A 
BRANCH   9  12
HETATM   12  O   UNL     1      43.890 -19.936   2.669  1.00  0.00    -0.356 OA
HETATM   13  C   UNL     1      43.894 -20.987   3.629  1.00  0.00     0.210 C 
ENDBRANCH   9  12
ENDBRANCH   3   6
ENDBRANCH   1   2
BRANCH   1  14
HETATM   14  N   UNL     1      43.114 -12.269   5.565  1.00  0.00    -0.283 NA
HETATM   15  H   UNL     1      43.328 -13.084   6.141  1.00  0.00     0.128 HD
BRANCH  14  16
HETATM   16  C   UNL     1      42.886 -11.167   6.455  1.00  0.00     0.019 A 
HETATM   17  C   UNL     1      43.943 -10.509   7.146  1.00  0.00    -0.005 A 
HETATM   18  C   UNL     1      43.653  -9.321   7.866  1.00  0.00    -0.024 A 
HETATM   19  C   UNL     1      45.277 -10.976   7.169  1.00  0.00     0.014 A 
HETATM   20  C   UNL     1      44.684  -8.623   8.518  1.00  0.00     0.012 A 
HETATM   21  C   UNL     1      42.336  -8.841   7.924  1.00  0.00     0.012 A 
HETATM   22  C   UNL     1      45.996  -9.092   8.490  1.00  0.00     0.001 A 
HETATM   23  C   UNL     1      46.292 -10.275   7.825  1.00  0.00     0.001 A 
HETATM   24  C   UNL     1      41.302  -9.516   7.283  1.00  0.00     0.003 A 
HETATM   25  C   UNL     1      41.575 -10.665   6.549  1.00  0.00     0.024 A 
ENDBRANCH  14  16
ENDBRANCH   1  14
TORSDOF 5
ENDMDL
MODEL 10
REMARK VINA RESULT:      -7.3     14.629     17.312
REMARK  5 active torsions:
REMARK  status: ('A' for Active; 'I' for Inactive)
REMARK    1  A    between atoms: O_2  and  C_3 
REMARK    2  A    between atoms: C_6  and  N_7 
REMARK       I    between atoms: N_7  and  C_8 
REMARK    3  A    between atoms: C_8  and  C_9 
REMARK    4  A    between atoms: C_9  and  N_10 
REMARK    5  A    between atoms: N_10  and  C_11 
ROOT
HETATM    1  C   UNL     1      48.431 -29.232   2.972  1.00  0.00     0.195 C 
ENDROOT
BRANCH   1   2
HETATM    2  C   UNL     1      48.917 -30.275   1.957  1.00  0.00     0.235 C 
HETATM    3  N   UNL     1      49.816 -29.764   1.035  1.00  0.00    -0.326 N 
HETATM    4  H   UNL     1      49.982 -28.764   1.111  1.00  0.00     0.169 HD
HETATM    5  O   UNL     1      48.493 -31.428   2.002  1.00  0.00    -0.272 OA
BRANCH   3   6
HETATM    6  C   UNL     1      50.496 -30.466   0.021  1.00  0.00     0.034 A 
HETATM    7  C   UNL     1      51.418 -31.487   0.267  1.00  0.00     0.032 A 
HETATM    8  C   UNL     1      52.069 -32.141  -0.788  1.00  0.00     0.039 A 
HETATM    9  C   UNL     1      51.806 -31.781  -2.106  1.00  0.00     0.068 A 
HETATM   10  C   UNL     1      50.892 -30.757  -2.358  1.00  0.00     0.039 A 
HETATM   11  C   UNL     1      50.239 -30.105  -1.304  1.00  0.00     0.032 A 
BRANCH   9  12
HETATM   12  O   UNL     1      52.371 -32.340  -3.220  1.00  0.00    -0.356 OA
HETATM   13  C   UNL     1      51.558 -33.241  -3.964  1.00  0.00     0.210 C 
ENDBRANCH   9  12
ENDBRANCH   3   6
ENDBRANCH   1   2
BRANCH   1  14
HETATM   14  N   UNL     1      47.827 -28.048   2.299  1.00  0.00    -0.283 NA
HETATM   15  H   UNL     1      47.631 -27.332   3.001  1.00  0.00     0.128 HD
BRANCH  14  16
HETATM   16  C   UNL     1      46.572 -28.420   1.711  1.00  0.00     0.019 A 
HETATM   17  C   UNL     1      46.352 -28.411   0.304  1.00  0.00    -0.005 A 
HETATM   18  C   UNL     1      45.146 -28.960  -0.203  1.00  0.00    -0.024 A 
HETATM   19  C   UNL     1      47.267 -27.873  -0.630  1.00  0.00     0.014 A 
HETATM   20  C   UNL     1      44.922 -29.008  -1.589  1.00  0.00     0.012 A 
HETATM   21  C   UNL     1      44.177 -29.457   0.682  1.00  0.00     0.012 A 
HETATM   22  C   UNL     1      45.861 -28.502  -2.485  1.00  0.00     0.001 A 
HETATM   23  C   UNL     1      47.029 -27.924  -2.006  1.00  0.00     0.001 A 
HETATM   24  C   UNL     1      44.381 -29.421   2.058  1.00  0.00     0.003 A 
HETATM   25  C   UNL     1      45.571 -28.913   2.568  1.00  0.00     0.024 A 
ENDBRANCH  14  16
ENDBRANCH   1  14
TORSDOF 5
ENDMDL
