MODEL 1
REMARK VINA RESULT:      -7.9      0.000      0.000
REMARK  8 active torsions:
REMARK  status: ('A' for Active; 'I' for Inactive)
REMARK    1  A    between atoms: O_2  and  C_3 
REMARK    2  A    between atoms: C_4  and  N_5 
REMARK    3  A    between atoms: N_5  and  C_6 
REMARK    4  A    between atoms: C_6  and  C_7 
REMARK       I    between atoms: C_7  and  N_8 
REMARK    5  A    between atoms: N_8  and  N_9 
REMARK    6  A    between atoms: N_9  and  C_10 
REMARK    7  A    between atoms: C_10  and  C_11 
REMARK       I    between atoms: C_11  and  N_12 
REMARK    8  A    between atoms: N_12  and  C_13 
ROOT
HETATM    1  C   UNL     1      41.185 -14.704   5.579  1.00  0.00     0.245 C 
HETATM    2  N   UNL     1      40.023 -13.934   5.576  1.00  0.00    -0.290 N 
HETATM    3  O   UNL     1      42.079 -14.609   6.421  1.00  0.00    -0.271 OA
HETATM    4  H   UNL     1      39.460 -13.911   4.727  1.00  0.00     0.183 HD
ENDROOT
BRANCH   2   5
HETATM    5  N   UNL     1      39.814 -12.965   6.588  1.00  0.00    -0.229 NA
HETATM    6  H   UNL     1      38.933 -13.174   7.069  1.00  0.00     0.147 HD
BRANCH   5   7
HETATM    7  C   UNL     1      39.733 -11.609   6.007  1.00  0.00     0.213 C 
BRANCH   7   8
HETATM    8  C   UNL     1      41.113 -10.949   6.036  1.00  0.00     0.236 C 
HETATM    9  N   UNL     1      42.002 -11.600   6.877  1.00  0.00    -0.326 N 
HETATM   10  H   UNL     1      41.603 -12.386   7.389  1.00  0.00     0.169 HD
HETATM   11  O   UNL     1      41.352  -9.963   5.342  1.00  0.00    -0.272 OA
BRANCH   9  12
HETATM   12  C   UNL     1      43.350 -11.275   7.124  1.00  0.00     0.036 A 
HETATM   13  C   UNL     1      43.792 -10.593   8.263  1.00  0.00     0.056 A 
HETATM   14  C   UNL     1      45.151 -10.313   8.434  1.00  0.00     0.074 A 
HETATM   15 CL   UNL     1      45.674  -9.475   9.847  1.00  0.00    -0.081 Cl
HETATM   16  C   UNL     1      46.072 -10.710   7.470  1.00  0.00     0.138 A 
HETATM   17  F   UNL     1      47.380 -10.452   7.619  1.00  0.00    -0.204 F 
HETATM   18  C   UNL     1      45.650 -11.386   6.333  1.00  0.00     0.046 A 
HETATM   19  C   UNL     1      44.291 -11.668   6.159  1.00  0.00     0.032 A 
ENDBRANCH   9  12
ENDBRANCH   7   8
ENDBRANCH   5   7
ENDBRANCH   2   5
BRANCH   1  20
HETATM   20  C   UNL     1      41.299 -15.648   4.375  1.00  0.00     0.196 C 
BRANCH  20  21
HETATM   21  N   UNL     1      42.713 -15.741   3.967  1.00  0.00    -0.282 NA
HETATM   22  H   UNL     1      43.295 -15.383   4.727  1.00  0.00     0.128 HD
BRANCH  21  23
HETATM   23  C   UNL     1      43.078 -17.095   3.721  1.00  0.00     0.042 A 
HETATM   24  C   UNL     1      43.865 -17.836   4.629  1.00  0.00     0.089 A 
HETATM   25  C   UNL     1      44.254 -19.141   4.298  1.00  0.00     0.038 A 
HETATM   26  C   UNL     1      43.876 -19.707   3.078  1.00  0.00     0.003 A 
HETATM   27  C   UNL     1      43.116 -18.974   2.174  1.00  0.00     0.002 A 
HETATM   28  C   UNL     1      42.724 -17.675   2.491  1.00  0.00     0.026 A 
BRANCH  24  29
HETATM   29  O   UNL     1      44.217 -17.208   5.801  1.00  0.00    -0.354 OA
HETATM   30  C   UNL     1      43.521 -17.632   6.969  1.00  0.00     0.210 C 
ENDBRANCH  24  29
ENDBRANCH  21  23
ENDBRANCH  20  21
ENDBRANCH   1  20
TORSDOF 8
ENDMDL
MODEL 2
REMARK VINA RESULT:      -7.6      1.410      2.031
REMARK  8 active torsions:
REMARK  status: ('A' for Active; 'I' for Inactive)
REMARK    1  A    between atoms: O_2  and  C_3 
REMARK    2  A    between atoms: C_4  and  N_5 
REMARK    3  A    between atoms: N_5  and  C_6 
REMARK    4  A    between atoms: C_6  and  C_7 
REMARK       I    between atoms: C_7  and  N_8 
REMARK    5  A    between atoms: N_8  and  N_9 
REMARK    6  A    between atoms: N_9  and  C_10 
REMARK    7  A    between atoms: C_10  and  C_11 
REMARK       I    between atoms: C_11  and  N_12 
REMARK    8  A    between atoms: N_12  and  C_13 
ROOT
HETATM    1  C   UNL     1      40.681 -15.140   6.119  1.00  0.00     0.245 C 
HETATM    2  N   UNL     1      40.696 -14.226   5.067  1.00  0.00    -0.290 N 
HETATM    3  O   UNL     1      39.722 -15.315   6.873  1.00  0.00    -0.271 OA
HETATM    4  H   UNL     1      41.594 -13.980   4.653  1.00  0.00     0.183 HD
ENDROOT
BRANCH   2   5
HETATM    5  N   UNL     1      39.558 -13.423   4.811  1.00  0.00    -0.229 NA
HETATM    6  H   UNL     1      39.494 -13.250   3.802  1.00  0.00     0.147 HD
BRANCH   5   7
HETATM    7  C   UNL     1      39.661 -12.127   5.513  1.00  0.00     0.213 C 
BRANCH   7   8
HETATM    8  C   UNL     1      41.096 -11.603   5.427  1.00  0.00     0.236 C 
HETATM    9  N   UNL     1      41.750 -11.628   6.648  1.00  0.00    -0.326 N 
HETATM   10  H   UNL     1      41.176 -11.940   7.431  1.00  0.00     0.169 HD
HETATM   11  O   UNL     1      41.568 -11.238   4.352  1.00  0.00    -0.272 OA
BRANCH   9  12
HETATM   12  C   UNL     1      43.076 -11.238   6.924  1.00  0.00     0.036 A 
HETATM   13  C   UNL     1      43.418 -10.071   7.615  1.00  0.00     0.056 A 
HETATM   14  C   UNL     1      44.761  -9.759   7.852  1.00  0.00     0.074 A 
HETATM   15 CL   UNL     1      45.159  -8.318   8.708  1.00  0.00    -0.081 Cl
HETATM   16  C   UNL     1      45.764 -10.610   7.400  1.00  0.00     0.138 A 
HETATM   17  F   UNL     1      47.057 -10.329   7.619  1.00  0.00    -0.204 F 
HETATM   18  C   UNL     1      45.441 -11.773   6.710  1.00  0.00     0.046 A 
HETATM   19  C   UNL     1      44.099 -12.086   6.473  1.00  0.00     0.032 A 
ENDBRANCH   9  12
ENDBRANCH   7   8
ENDBRANCH   5   7
ENDBRANCH   2   5
BRANCH   1  20
HETATM   20  C   UNL     1      42.014 -15.873   6.315  1.00  0.00     0.196 C 
BRANCH  20  21
HETATM   21  N   UNL     1      42.958 -15.451   5.263  1.00  0.00    -0.282 NA
HETATM   22  H   UNL     1      43.822 -15.139   5.710  1.00  0.00     0.128 HD
BRANCH  21  23
HETATM   23  C   UNL     1      43.266 -16.539   4.398  1.00  0.00     0.042 A 
HETATM   24  C   UNL     1      42.697 -16.656   3.111  1.00  0.00     0.089 A 
HETATM   25  C   UNL     1      42.981 -17.786   2.333  1.00  0.00     0.038 A 
HETATM   26  C   UNL     1      43.811 -18.797   2.824  1.00  0.00     0.003 A 
HETATM   27  C   UNL     1      44.359 -18.693   4.098  1.00  0.00     0.002 A 
HETATM   28  C   UNL     1      44.083 -17.574   4.882  1.00  0.00     0.026 A 
BRANCH  24  29
HETATM   29  O   UNL     1      41.873 -15.634   2.700  1.00  0.00    -0.354 OA
HETATM   30  C   UNL     1      40.741 -16.019   1.927  1.00  0.00     0.210 C 
ENDBRANCH  24  29
ENDBRANCH  21  23
ENDBRANCH  20  21
ENDBRANCH   1  20
TORSDOF 8
ENDMDL
MODEL 3
REMARK VINA RESULT:      -7.5      2.766      3.707
REMARK  8 active torsions:
REMARK  status: ('A' for Active; 'I' for Inactive)
REMARK    1  A    between atoms: O_2  and  C_3 
REMARK    2  A    between atoms: C_4  and  N_5 
REMARK    3  A    between atoms: N_5  and  C_6 
REMARK    4  A    between atoms: C_6  and  C_7 
REMARK       I    between atoms: C_7  and  N_8 
REMARK    5  A    between atoms: N_8  and  N_9 
REMARK    6  A    between atoms: N_9  and  C_10 
REMARK    7  A    between atoms: C_10  and  C_11 
REMARK       I    between atoms: C_11  and  N_12 
REMARK    8  A    between atoms: N_12  and  C_13 
ROOT
HETATM    1  C   UNL     1      42.786 -15.914   7.032  1.00  0.00     0.245 C 
HETATM    2  N   UNL     1      43.718 -14.894   6.855  1.00  0.00    -0.290 N 
HETATM    3  O   UNL     1      41.666 -15.755   7.521  1.00  0.00    -0.271 OA
HETATM    4  H   UNL     1      44.687 -15.150   6.669  1.00  0.00     0.183 HD
ENDROOT
BRANCH   2   5
HETATM    5  N   UNL     1      43.403 -13.570   7.249  1.00  0.00    -0.229 NA
HETATM    6  H   UNL     1      42.442 -13.359   6.961  1.00  0.00     0.147 HD
BRANCH   5   7
HETATM    7  C   UNL     1      44.318 -12.601   6.614  1.00  0.00     0.213 C 
BRANCH   7   8
HETATM    8  C   UNL     1      44.606 -11.449   7.579  1.00  0.00     0.236 C 
HETATM    9  N   UNL     1      43.555 -11.202   8.448  1.00  0.00    -0.326 N 
HETATM   10  H   UNL     1      42.730 -11.780   8.292  1.00  0.00     0.169 HD
HETATM   11  O   UNL     1      45.687 -10.863   7.554  1.00  0.00    -0.272 OA
BRANCH   9  12
HETATM   12  C   UNL     1      43.492 -10.234   9.471  1.00  0.00     0.036 A 
HETATM   13  C   UNL     1      43.326  -8.865   9.239  1.00  0.00     0.056 A 
HETATM   14  C   UNL     1      43.268  -7.969  10.312  1.00  0.00     0.074 A 
HETATM   15 CL   UNL     1      43.060  -6.287  10.003  1.00  0.00    -0.081 Cl
HETATM   16  C   UNL     1      43.376  -8.438  11.617  1.00  0.00     0.138 A 
HETATM   17  F   UNL     1      43.321  -7.595  12.658  1.00  0.00    -0.204 F 
HETATM   18  C   UNL     1      43.542  -9.795  11.864  1.00  0.00     0.046 A 
HETATM   19  C   UNL     1      43.601 -10.692  10.793  1.00  0.00     0.032 A 
ENDBRANCH   9  12
ENDBRANCH   7   8
ENDBRANCH   5   7
ENDBRANCH   2   5
BRANCH   1  20
HETATM   20  C   UNL     1      43.308 -17.300   6.631  1.00  0.00     0.196 C 
BRANCH  20  21
HETATM   21  N   UNL     1      44.355 -17.144   5.604  1.00  0.00    -0.282 NA
HETATM   22  H   UNL     1      45.228 -17.529   5.970  1.00  0.00     0.128 HD
BRANCH  21  23
HETATM   23  C   UNL     1      44.010 -17.856   4.421  1.00  0.00     0.042 A 
HETATM   24  C   UNL     1      43.410 -17.221   3.312  1.00  0.00     0.089 A 
HETATM   25  C   UNL     1      43.025 -17.988   2.204  1.00  0.00     0.038 A 
HETATM   26  C   UNL     1      43.223 -19.371   2.194  1.00  0.00     0.003 A 
HETATM   27  C   UNL     1      43.798 -20.002   3.292  1.00  0.00     0.002 A 
HETATM   28  C   UNL     1      44.184 -19.250   4.400  1.00  0.00     0.026 A 
BRANCH  24  29
HETATM   29  O   UNL     1      43.227 -15.861   3.400  1.00  0.00    -0.354 OA
HETATM   30  C   UNL     1      41.876 -15.419   3.497  1.00  0.00     0.210 C 
ENDBRANCH  24  29
ENDBRANCH  21  23
ENDBRANCH  20  21
ENDBRANCH   1  20
TORSDOF 8
ENDMDL
MODEL 4
REMARK VINA RESULT:      -7.5      1.600      1.805
REMARK  8 active torsions:
REMARK  status: ('A' for Active; 'I' for Inactive)
REMARK    1  A    between atoms: O_2  and  C_3 
REMARK    2  A    between atoms: C_4  and  N_5 
REMARK    3  A    between atoms: N_5  and  C_6 
REMARK    4  A    between atoms: C_6  and  C_7 
REMARK       I    between atoms: C_7  and  N_8 
REMARK    5  A    between atoms: N_8  and  N_9 
REMARK    6  A    between atoms: N_9  and  C_10 
REMARK    7  A    between atoms: C_10  and  C_11 
REMARK       I    between atoms: C_11  and  N_12 
REMARK    8  A    between atoms: N_12  and  C_13 
ROOT
HETATM    1  C   UNL     1      40.879 -15.718   3.382  1.00  0.00     0.245 C 
HETATM    2  N   UNL     1      40.376 -14.485   2.974  1.00  0.00    -0.290 N 
HETATM    3  O   UNL     1      40.610 -16.257   4.457  1.00  0.00    -0.271 OA
HETATM    4  H   UNL     1      40.828 -14.012   2.192  1.00  0.00     0.183 HD
ENDROOT
BRANCH   2   5
HETATM    5  N   UNL     1      39.494 -13.765   3.818  1.00  0.00    -0.229 NA
HETATM    6  H   UNL     1      38.530 -13.962   3.534  1.00  0.00     0.147 HD
BRANCH   5   7
HETATM    7  C   UNL     1      39.738 -12.312   3.715  1.00  0.00     0.213 C 
BRANCH   7   8
HETATM    8  C   UNL     1      41.182 -11.998   4.111  1.00  0.00     0.236 C 
HETATM    9  N   UNL     1      41.336 -11.813   5.476  1.00  0.00    -0.326 N 
HETATM   10  H   UNL     1      40.470 -11.860   6.011  1.00  0.00     0.169 HD
HETATM   11  O   UNL     1      42.072 -11.957   3.264  1.00  0.00    -0.272 OA
BRANCH   9  12
HETATM   12  C   UNL     1      42.524 -11.531   6.180  1.00  0.00     0.036 A 
HETATM   13  C   UNL     1      42.763 -10.330   6.857  1.00  0.00     0.056 A 
HETATM   14  C   UNL     1      43.970 -10.132   7.536  1.00  0.00     0.074 A 
HETATM   15 CL   UNL     1      44.242  -8.647   8.367  1.00  0.00    -0.081 Cl
HETATM   16  C   UNL     1      44.939 -11.129   7.540  1.00  0.00     0.138 A 
HETATM   17  F   UNL     1      46.102 -10.957   8.187  1.00  0.00    -0.204 F 
HETATM   18  C   UNL     1      44.718 -12.326   6.871  1.00  0.00     0.046 A 
HETATM   19  C   UNL     1      43.513 -12.527   6.191  1.00  0.00     0.032 A 
ENDBRANCH   9  12
ENDBRANCH   7   8
ENDBRANCH   5   7
ENDBRANCH   2   5
BRANCH   1  20
HETATM   20  C   UNL     1      41.880 -16.330   2.394  1.00  0.00     0.196 C 
BRANCH  20  21
HETATM   21  N   UNL     1      43.149 -16.599   3.096  1.00  0.00    -0.282 NA
HETATM   22  H   UNL     1      43.102 -16.175   4.025  1.00  0.00     0.128 HD
BRANCH  21  23
HETATM   23  C   UNL     1      43.353 -17.999   3.250  1.00  0.00     0.042 A 
HETATM   24  C   UNL     1      43.941 -18.548   4.410  1.00  0.00     0.089 A 
HETATM   25  C   UNL     1      44.184 -19.926   4.474  1.00  0.00     0.038 A 
HETATM   26  C   UNL     1      43.857 -20.755   3.398  1.00  0.00     0.003 A 
HETATM   27  C   UNL     1      43.294 -20.216   2.246  1.00  0.00     0.002 A 
HETATM   28  C   UNL     1      43.049 -18.846   2.171  1.00  0.00     0.026 A 
BRANCH  24  29
HETATM   29  O   UNL     1      44.256 -17.670   5.421  1.00  0.00    -0.354 OA
HETATM   30  C   UNL     1      43.402 -17.700   6.561  1.00  0.00     0.210 C 
ENDBRANCH  24  29
ENDBRANCH  21  23
ENDBRANCH  20  21
ENDBRANCH   1  20
TORSDOF 8
ENDMDL
MODEL 5
REMARK VINA RESULT:      -7.5      5.327      6.928
REMARK  8 active torsions:
REMARK  status: ('A' for Active; 'I' for Inactive)
REMARK    1  A    between atoms: O_2  and  C_3 
REMARK    2  A    between atoms: C_4  and  N_5 
REMARK    3  A    between atoms: N_5  and  C_6 
REMARK    4  A    between atoms: C_6  and  C_7 
REMARK       I    between atoms: C_7  and  N_8 
REMARK    5  A    between atoms: N_8  and  N_9 
REMARK    6  A    between atoms: N_9  and  C_10 
REMARK    7  A    between atoms: C_10  and  C_11 
REMARK       I    between atoms: C_11  and  N_12 
REMARK    8  A    between atoms: N_12  and  C_13 
ROOT
HETATM    1  C   UNL     1      42.302 -15.889   6.169  1.00  0.00     0.245 C 
HETATM    2  N   UNL     1      42.777 -15.057   5.158  1.00  0.00    -0.290 N 
HETATM    3  O   UNL     1      41.409 -15.580   6.961  1.00  0.00    -0.271 OA
HETATM    4  H   UNL     1      43.662 -15.295   4.711  1.00  0.00     0.183 HD
ENDROOT
BRANCH   2   5
HETATM    5  N   UNL     1      42.230 -13.761   4.991  1.00  0.00    -0.229 NA
HETATM    6  H   UNL     1      41.227 -13.796   5.199  1.00  0.00     0.147 HD
BRANCH   5   7
HETATM    7  C   UNL     1      42.416 -13.287   3.605  1.00  0.00     0.213 C 
BRANCH   7   8
HETATM    8  C   UNL     1      41.135 -13.520   2.800  1.00  0.00     0.236 C 
HETATM    9  N   UNL     1      41.205 -12.998   1.518  1.00  0.00    -0.326 N 
HETATM   10  H   UNL     1      42.067 -12.496   1.311  1.00  0.00     0.169 HD
HETATM   11  O   UNL     1      40.190 -14.136   3.288  1.00  0.00    -0.272 OA
BRANCH   9  12
HETATM   12  C   UNL     1      40.220 -13.050   0.512  1.00  0.00     0.036 A 
HETATM   13  C   UNL     1      40.088 -14.107  -0.395  1.00  0.00     0.056 A 
HETATM   14  C   UNL     1      39.078 -14.084  -1.363  1.00  0.00     0.074 A 
HETATM   15 CL   UNL     1      38.931 -15.398  -2.468  1.00  0.00    -0.081 Cl
HETATM   16  C   UNL     1      38.200 -13.007  -1.428  1.00  0.00     0.138 A 
HETATM   17  F   UNL     1      37.224 -12.968  -2.348  1.00  0.00    -0.204 F 
HETATM   18  C   UNL     1      38.319 -11.949  -0.536  1.00  0.00     0.046 A 
HETATM   19  C   UNL     1      39.328 -11.970   0.432  1.00  0.00     0.032 A 
ENDBRANCH   9  12
ENDBRANCH   7   8
ENDBRANCH   5   7
ENDBRANCH   2   5
BRANCH   1  20
HETATM   20  C   UNL     1      43.050 -17.224   6.269  1.00  0.00     0.196 C 
BRANCH  20  21
HETATM   21  N   UNL     1      44.156 -17.234   5.293  1.00  0.00    -0.282 NA
HETATM   22  H   UNL     1      45.027 -17.426   5.792  1.00  0.00     0.128 HD
BRANCH  21  23
HETATM   23  C   UNL     1      43.960 -18.255   4.321  1.00  0.00     0.042 A 
HETATM   24  C   UNL     1      43.379 -17.988   3.062  1.00  0.00     0.089 A 
HETATM   25  C   UNL     1      43.143 -19.046   2.174  1.00  0.00     0.038 A 
HETATM   26  C   UNL     1      43.470 -20.358   2.529  1.00  0.00     0.003 A 
HETATM   27  C   UNL     1      44.026 -20.626   3.775  1.00  0.00     0.002 A 
HETATM   28  C   UNL     1      44.264 -19.582   4.667  1.00  0.00     0.026 A 
BRANCH  24  29
HETATM   29  O   UNL     1      43.063 -16.678   2.788  1.00  0.00    -0.354 OA
HETATM   30  C   UNL     1      43.326 -16.238   1.459  1.00  0.00     0.210 C 
ENDBRANCH  24  29
ENDBRANCH  21  23
ENDBRANCH  20  21
ENDBRANCH   1  20
TORSDOF 8
ENDMDL
MODEL 6
REMARK VINA RESULT:      -7.5      3.998      6.771
REMARK  8 active torsions:
REMARK  status: ('A' for Active; 'I' for Inactive)
REMARK    1  A    between atoms: O_2  and  C_3 
REMARK    2  A    between atoms: C_4  and  N_5 
REMARK    3  A    between atoms: N_5  and  C_6 
REMARK    4  A    between atoms: C_6  and  C_7 
REMARK       I    between atoms: C_7  and  N_8 
REMARK    5  A    between atoms: N_8  and  N_9 
REMARK    6  A    between atoms: N_9  and  C_10 
REMARK    7  A    between atoms: C_10  and  C_11 
REMARK       I    between atoms: C_11  and  N_12 
REMARK    8  A    between atoms: N_12  and  C_13 
ROOT
HETATM    1  C   UNL     1      39.372 -12.732   3.479  1.00  0.00     0.245 C 
HETATM    2  N   UNL     1      39.516 -14.008   2.939  1.00  0.00    -0.290 N 
HETATM    3  O   UNL     1      39.169 -11.715   2.815  1.00  0.00    -0.271 OA
HETATM    4  H   UNL     1      39.912 -14.741   3.527  1.00  0.00     0.183 HD
ENDROOT
BRANCH   2   5
HETATM    5  N   UNL     1      39.434 -14.197   1.537  1.00  0.00    -0.229 NA
HETATM    6  H   UNL     1      39.012 -15.111   1.350  1.00  0.00     0.147 HD
BRANCH   5   7
HETATM    7  C   UNL     1      40.776 -14.154   0.922  1.00  0.00     0.213 C 
BRANCH   7   8
HETATM    8  C   UNL     1      41.793 -14.826   1.848  1.00  0.00     0.236 C 
HETATM    9  N   UNL     1      41.713 -16.210   1.818  1.00  0.00    -0.326 N 
HETATM   10  H   UNL     1      40.966 -16.579   1.231  1.00  0.00     0.169 HD
HETATM   11  O   UNL     1      42.589 -14.154   2.501  1.00  0.00    -0.272 OA
BRANCH   9  12
HETATM   12  C   UNL     1      42.507 -17.134   2.526  1.00  0.00     0.036 A 
HETATM   13  C   UNL     1      42.855 -18.398   2.036  1.00  0.00     0.056 A 
HETATM   14  C   UNL     1      43.652 -19.255   2.802  1.00  0.00     0.074 A 
HETATM   15 CL   UNL     1      44.073 -20.806   2.178  1.00  0.00    -0.081 Cl
HETATM   16  C   UNL     1      44.101 -18.855   4.056  1.00  0.00     0.138 A 
HETATM   17  F   UNL     1      44.868 -19.664   4.803  1.00  0.00    -0.204 F 
HETATM   18  C   UNL     1      43.762 -17.604   4.557  1.00  0.00     0.046 A 
HETATM   19  C   UNL     1      42.966 -16.746   3.793  1.00  0.00     0.032 A 
ENDBRANCH   9  12
ENDBRANCH   7   8
ENDBRANCH   5   7
ENDBRANCH   2   5
BRANCH   1  20
HETATM   20  C   UNL     1      39.567 -12.684   5.000  1.00  0.00     0.196 C 
BRANCH  20  21
HETATM   21  N   UNL     1      40.991 -12.444   5.298  1.00  0.00    -0.282 NA
HETATM   22  H   UNL     1      41.066 -11.594   5.861  1.00  0.00     0.128 HD
BRANCH  21  23
HETATM   23  C   UNL     1      41.539 -13.526   6.043  1.00  0.00     0.042 A 
HETATM   24  C   UNL     1      42.896 -13.558   6.430  1.00  0.00     0.089 A 
HETATM   25  C   UNL     1      43.395 -14.684   7.098  1.00  0.00     0.038 A 
HETATM   26  C   UNL     1      42.565 -15.773   7.374  1.00  0.00     0.003 A 
HETATM   27  C   UNL     1      41.232 -15.752   6.979  1.00  0.00     0.002 A 
HETATM   28  C   UNL     1      40.724 -14.639   6.313  1.00  0.00     0.026 A 
BRANCH  24  29
HETATM   29  O   UNL     1      43.660 -12.461   6.107  1.00  0.00    -0.354 OA
HETATM   30  C   UNL     1      44.517 -11.974   7.135  1.00  0.00     0.210 C 
ENDBRANCH  24  29
ENDBRANCH  21  23
ENDBRANCH  20  21
ENDBRANCH   1  20
TORSDOF 8
ENDMDL
MODEL 7
REMARK VINA RESULT:      -7.4      4.300      7.068
REMARK  8 active torsions:
REMARK  status: ('A' for Active; 'I' for Inactive)
REMARK    1  A    between atoms: O_2  and  C_3 
REMARK    2  A    between atoms: C_4  and  N_5 
REMARK    3  A    between atoms: N_5  and  C_6 
REMARK    4  A    between atoms: C_6  and  C_7 
REMARK       I    between atoms: C_7  and  N_8 
REMARK    5  A    between atoms: N_8  and  N_9 
REMARK    6  A    between atoms: N_9  and  C_10 
REMARK    7  A    between atoms: C_10  and  C_11 
REMARK       I    between atoms: C_11  and  N_12 
REMARK    8  A    between atoms: N_12  and  C_13 
ROOT
HETATM    1  C   UNL     1      41.907 -12.706   5.155  1.00  0.00     0.245 C 
HETATM    2  N   UNL     1      41.873 -13.241   6.440  1.00  0.00    -0.290 N 
HETATM    3  O   UNL     1      42.934 -12.553   4.493  1.00  0.00    -0.271 OA
HETATM    4  H   UNL     1      41.028 -13.112   6.996  1.00  0.00     0.183 HD
ENDROOT
BRANCH   2   5
HETATM    5  N   UNL     1      43.074 -13.649   7.069  1.00  0.00    -0.229 NA
HETATM    6  H   UNL     1      43.828 -13.652   6.374  1.00  0.00     0.147 HD
BRANCH   5   7
HETATM    7  C   UNL     1      42.937 -15.008   7.633  1.00  0.00     0.213 C 
BRANCH   7   8
HETATM    8  C   UNL     1      42.546 -15.991   6.528  1.00  0.00     0.236 C 
HETATM    9  N   UNL     1      43.643 -16.509   5.857  1.00  0.00    -0.326 N 
HETATM   10  H   UNL     1      44.540 -16.130   6.156  1.00  0.00     0.169 HD
HETATM   11  O   UNL     1      41.366 -16.272   6.324  1.00  0.00    -0.272 OA
BRANCH   9  12
HETATM   12  C   UNL     1      43.647 -17.448   4.806  1.00  0.00     0.036 A 
HETATM   13  C   UNL     1      43.879 -18.816   4.984  1.00  0.00     0.056 A 
HETATM   14  C   UNL     1      43.860 -19.683   3.887  1.00  0.00     0.074 A 
HETATM   15 CL   UNL     1      44.145 -21.365   4.129  1.00  0.00    -0.081 Cl
HETATM   16  C   UNL     1      43.612 -19.187   2.611  1.00  0.00     0.138 A 
HETATM   17  F   UNL     1      43.588 -20.004   1.547  1.00  0.00    -0.204 F 
HETATM   18  C   UNL     1      43.381 -17.831   2.418  1.00  0.00     0.046 A 
HETATM   19  C   UNL     1      43.399 -16.962   3.514  1.00  0.00     0.032 A 
ENDBRANCH   9  12
ENDBRANCH   7   8
ENDBRANCH   5   7
ENDBRANCH   2   5
BRANCH   1  20
HETATM   20  C   UNL     1      40.536 -12.239   4.647  1.00  0.00     0.196 C 
BRANCH  20  21
HETATM   21  N   UNL     1      39.687 -13.417   4.392  1.00  0.00    -0.282 NA
HETATM   22  H   UNL     1      38.709 -13.140   4.493  1.00  0.00     0.128 HD
BRANCH  21  23
HETATM   23  C   UNL     1      39.883 -13.902   3.068  1.00  0.00     0.042 A 
HETATM   24  C   UNL     1      39.607 -13.110   1.932  1.00  0.00     0.089 A 
HETATM   25  C   UNL     1      39.749 -13.666   0.654  1.00  0.00     0.038 A 
HETATM   26  C   UNL     1      40.151 -14.994   0.497  1.00  0.00     0.003 A 
HETATM   27  C   UNL     1      40.406 -15.782   1.614  1.00  0.00     0.002 A 
HETATM   28  C   UNL     1      40.268 -15.241   2.891  1.00  0.00     0.026 A 
BRANCH  24  29
HETATM   29  O   UNL     1      39.196 -11.817   2.161  1.00  0.00    -0.354 OA
HETATM   30  C   UNL     1      38.003 -11.416   1.496  1.00  0.00     0.210 C 
ENDBRANCH  24  29
ENDBRANCH  21  23
ENDBRANCH  20  21
ENDBRANCH   1  20
TORSDOF 8
ENDMDL
MODEL 8
REMARK VINA RESULT:      -7.4      4.576      7.115
REMARK  8 active torsions:
REMARK  status: ('A' for Active; 'I' for Inactive)
REMARK    1  A    between atoms: O_2  and  C_3 
REMARK    2  A    between atoms: C_4  and  N_5 
REMARK    3  A    between atoms: N_5  and  C_6 
REMARK    4  A    between atoms: C_6  and  C_7 
REMARK       I    between atoms: C_7  and  N_8 
REMARK    5  A    between atoms: N_8  and  N_9 
REMARK    6  A    between atoms: N_9  and  C_10 
REMARK    7  A    between atoms: C_10  and  C_11 
REMARK       I    between atoms: C_11  and  N_12 
REMARK    8  A    between atoms: N_12  and  C_13 
ROOT
HETATM    1  C   UNL     1      39.881 -12.782   5.220  1.00  0.00     0.245 C 
HETATM    2  N   UNL     1      41.250 -12.970   5.396  1.00  0.00    -0.290 N 
HETATM    3  O   UNL     1      39.061 -12.746   6.139  1.00  0.00    -0.271 OA
HETATM    4  H   UNL     1      41.813 -13.220   4.583  1.00  0.00     0.183 HD
ENDROOT
BRANCH   2   5
HETATM    5  N   UNL     1      41.781 -13.137   6.699  1.00  0.00    -0.229 NA
HETATM    6  H   UNL     1      42.009 -12.215   7.084  1.00  0.00     0.147 HD
BRANCH   5   7
HETATM    7  C   UNL     1      43.007 -13.959   6.665  1.00  0.00     0.213 C 
BRANCH   7   8
HETATM    8  C   UNL     1      42.689 -15.343   6.094  1.00  0.00     0.236 C 
HETATM    9  N   UNL     1      43.606 -15.753   5.139  1.00  0.00    -0.326 N 
HETATM   10  H   UNL     1      44.324 -15.064   4.917  1.00  0.00     0.169 HD
HETATM   11  O   UNL     1      41.723 -15.984   6.502  1.00  0.00    -0.272 OA
BRANCH   9  12
HETATM   12  C   UNL     1      43.626 -16.970   4.430  1.00  0.00     0.036 A 
HETATM   13  C   UNL     1      44.025 -18.190   4.987  1.00  0.00     0.056 A 
HETATM   14  C   UNL     1      44.012 -19.356   4.214  1.00  0.00     0.074 A 
HETATM   15 CL   UNL     1      44.504 -20.848   4.921  1.00  0.00    -0.081 Cl
HETATM   16  C   UNL     1      43.601 -19.308   2.886  1.00  0.00     0.138 A 
HETATM   17  F   UNL     1      43.579 -20.416   2.131  1.00  0.00    -0.204 F 
HETATM   18  C   UNL     1      43.202 -18.104   2.318  1.00  0.00     0.046 A 
HETATM   19  C   UNL     1      43.216 -16.937   3.088  1.00  0.00     0.032 A 
ENDBRANCH   9  12
ENDBRANCH   7   8
ENDBRANCH   5   7
ENDBRANCH   2   5
BRANCH   1  20
HETATM   20  C   UNL     1      39.456 -12.698   3.748  1.00  0.00     0.196 C 
BRANCH  20  21
HETATM   21  N   UNL     1      40.659 -12.725   2.895  1.00  0.00    -0.282 NA
HETATM   22  H   UNL     1      41.383 -13.265   3.373  1.00  0.00     0.128 HD
BRANCH  21  23
HETATM   23  C   UNL     1      40.378 -13.354   1.649  1.00  0.00     0.042 A 
HETATM   24  C   UNL     1      40.138 -12.611   0.473  1.00  0.00     0.089 A 
HETATM   25  C   UNL     1      39.794 -13.283  -0.708  1.00  0.00     0.038 A 
HETATM   26  C   UNL     1      39.679 -14.675  -0.725  1.00  0.00     0.003 A 
HETATM   27  C   UNL     1      39.898 -15.408   0.435  1.00  0.00     0.002 A 
HETATM   28  C   UNL     1      40.240 -14.752   1.616  1.00  0.00     0.026 A 
BRANCH  24  29
HETATM   29  O   UNL     1      40.248 -11.243   0.569  1.00  0.00    -0.354 OA
HETATM   30  C   UNL     1      41.056 -10.612  -0.420  1.00  0.00     0.210 C 
ENDBRANCH  24  29
ENDBRANCH  21  23
ENDBRANCH  20  21
ENDBRANCH   1  20
TORSDOF 8
ENDMDL
MODEL 9
REMARK VINA RESULT:      -7.4      2.885      3.564
REMARK  8 active torsions:
REMARK  status: ('A' for Active; 'I' for Inactive)
REMARK    1  A    between atoms: O_2  and  C_3 
REMARK    2  A    between atoms: C_4  and  N_5 
REMARK    3  A    between atoms: N_5  and  C_6 
REMARK    4  A    between atoms: C_6  and  C_7 
REMARK       I    between atoms: C_7  and  N_8 
REMARK    5  A    between atoms: N_8  and  N_9 
REMARK    6  A    between atoms: N_9  and  C_10 
REMARK    7  A    between atoms: C_10  and  C_11 
REMARK       I    between atoms: C_11  and  N_12 
REMARK    8  A    between atoms: N_12  and  C_13 
ROOT
HETATM    1  C   UNL     1      42.027 -14.084   5.790  1.00  0.00     0.245 C 
HETATM    2  N   UNL     1      43.265 -14.142   6.427  1.00  0.00    -0.290 N 
HETATM    3  O   UNL     1      41.123 -13.307   6.100  1.00  0.00    -0.271 OA
HETATM    4  H   UNL     1      43.854 -14.959   6.267  1.00  0.00     0.183 HD
ENDROOT
BRANCH   2   5
HETATM    5  N   UNL     1      43.547 -13.272   7.508  1.00  0.00    -0.229 NA
HETATM    6  H   UNL     1      42.662 -12.942   7.907  1.00  0.00     0.147 HD
BRANCH   5   7
HETATM    7  C   UNL     1      44.331 -12.106   7.052  1.00  0.00     0.213 C 
BRANCH   7   8
HETATM    8  C   UNL     1      44.511 -11.118   8.206  1.00  0.00     0.236 C 
HETATM    9  N   UNL     1      43.323 -10.509   8.581  1.00  0.00    -0.326 N 
HETATM   10  H   UNL     1      42.517 -10.764   8.011  1.00  0.00     0.169 HD
HETATM   11  O   UNL     1      45.614 -10.947   8.722  1.00  0.00    -0.272 OA
BRANCH   9  12
HETATM   12  C   UNL     1      43.124  -9.570   9.613  1.00  0.00     0.036 A 
HETATM   13  C   UNL     1      42.858  -9.916  10.942  1.00  0.00     0.056 A 
HETATM   14  C   UNL     1      42.677  -8.920  11.907  1.00  0.00     0.074 A 
HETATM   15 CL   UNL     1      42.354  -9.368  13.539  1.00  0.00    -0.081 Cl
HETATM   16  C   UNL     1      42.760  -7.579  11.548  1.00  0.00     0.138 A 
HETATM   17  F   UNL     1      42.591  -6.610  12.461  1.00  0.00    -0.204 F 
HETATM   18  C   UNL     1      43.022  -7.218  10.232  1.00  0.00     0.046 A 
HETATM   19  C   UNL     1      43.203  -8.213   9.266  1.00  0.00     0.032 A 
ENDBRANCH   9  12
ENDBRANCH   7   8
ENDBRANCH   5   7
ENDBRANCH   2   5
BRANCH   1  20
HETATM   20  C   UNL     1      41.849 -15.144   4.695  1.00  0.00     0.196 C 
BRANCH  20  21
HETATM   21  N   UNL     1      43.146 -15.381   4.035  1.00  0.00    -0.282 NA
HETATM   22  H   UNL     1      43.890 -15.053   4.655  1.00  0.00     0.128 HD
BRANCH  21  23
HETATM   23  C   UNL     1      43.341 -16.770   3.793  1.00  0.00     0.042 A 
HETATM   24  C   UNL     1      43.939 -17.620   4.748  1.00  0.00     0.089 A 
HETATM   25  C   UNL     1      44.172 -18.963   4.425  1.00  0.00     0.038 A 
HETATM   26  C   UNL     1      43.827 -19.462   3.166  1.00  0.00     0.003 A 
HETATM   27  C   UNL     1      43.255 -18.623   2.216  1.00  0.00     0.002 A 
HETATM   28  C   UNL     1      43.019 -17.285   2.526  1.00  0.00     0.026 A 
BRANCH  24  29
HETATM   29  O   UNL     1      44.271 -17.058   5.959  1.00  0.00    -0.354 OA
HETATM   30  C   UNL     1      43.578 -17.566   7.094  1.00  0.00     0.210 C 
ENDBRANCH  24  29
ENDBRANCH  21  23
ENDBRANCH  20  21
ENDBRANCH   1  20
TORSDOF 8
ENDMDL
MODEL 10
REMARK VINA RESULT:      -7.4      4.722      7.160
REMARK  8 active torsions:
REMARK  status: ('A' for Active; 'I' for Inactive)
REMARK    1  A    between atoms: O_2  and  C_3 
REMARK    2  A    between atoms: C_4  and  N_5 
REMARK    3  A    between atoms: N_5  and  C_6 
REMARK    4  A    between atoms: C_6  and  C_7 
REMARK       I    between atoms: C_7  and  N_8 
REMARK    5  A    between atoms: N_8  and  N_9 
REMARK    6  A    between atoms: N_9  and  C_10 
REMARK    7  A    between atoms: C_10  and  C_11 
REMARK       I    between atoms: C_11  and  N_12 
REMARK    8  A    between atoms: N_12  and  C_13 
ROOT
HETATM    1  C   UNL     1      43.125 -11.834   3.424  1.00  0.00     0.245 C 
HETATM    2  N   UNL     1      42.449 -12.833   4.122  1.00  0.00    -0.290 N 
HETATM    3  O   UNL     1      44.236 -11.402   3.734  1.00  0.00    -0.271 OA
HETATM    4  H   UNL     1      41.453 -12.959   3.942  1.00  0.00     0.183 HD
ENDROOT
BRANCH   2   5
HETATM    5  N   UNL     1      43.038 -13.418   5.270  1.00  0.00    -0.229 NA
HETATM    6  H   UNL     1      43.774 -14.065   4.970  1.00  0.00     0.147 HD
BRANCH   5   7
HETATM    7  C   UNL     1      42.033 -14.165   6.052  1.00  0.00     0.213 C 
BRANCH   7   8
HETATM    8  C   UNL     1      41.954 -15.610   5.552  1.00  0.00     0.236 C 
HETATM    9  N   UNL     1      43.073 -15.988   4.827  1.00  0.00    -0.326 N 
HETATM   10  H   UNL     1      43.759 -15.247   4.688  1.00  0.00     0.169 HD
HETATM   11  O   UNL     1      40.985 -16.316   5.822  1.00  0.00    -0.272 OA
BRANCH   9  12
HETATM   12  C   UNL     1      43.338 -17.243   4.243  1.00  0.00     0.036 A 
HETATM   13  C   UNL     1      43.848 -18.338   4.946  1.00  0.00     0.056 A 
HETATM   14  C   UNL     1      44.079 -19.552   4.291  1.00  0.00     0.074 A 
HETATM   15 CL   UNL     1      44.705 -20.890   5.178  1.00  0.00    -0.081 Cl
HETATM   16  C   UNL     1      43.801 -19.675   2.933  1.00  0.00     0.138 A 
HETATM   17  F   UNL     1      44.014 -20.832   2.289  1.00  0.00    -0.204 F 
HETATM   18  C   UNL     1      43.296 -18.595   2.220  1.00  0.00     0.046 A 
HETATM   19  C   UNL     1      43.065 -17.381   2.873  1.00  0.00     0.032 A 
ENDBRANCH   9  12
ENDBRANCH   7   8
ENDBRANCH   5   7
ENDBRANCH   2   5
BRANCH   1  20
HETATM   20  C   UNL     1      42.321 -11.248   2.257  1.00  0.00     0.196 C 
BRANCH  20  21
HETATM   21  N   UNL     1      40.938 -11.756   2.318  1.00  0.00    -0.282 NA
HETATM   22  H   UNL     1      40.304 -10.960   2.415  1.00  0.00     0.128 HD
BRANCH  21  23
HETATM   23  C   UNL     1      40.604 -12.453   1.123  1.00  0.00     0.042 A 
HETATM   24  C   UNL     1      40.481 -13.859   1.086  1.00  0.00     0.089 A 
HETATM   25  C   UNL     1      40.223 -14.496  -0.135  1.00  0.00     0.038 A 
HETATM   26  C   UNL     1      40.097 -13.753  -1.311  1.00  0.00     0.003 A 
HETATM   27  C   UNL     1      40.235 -12.370  -1.281  1.00  0.00     0.002 A 
HETATM   28  C   UNL     1      40.492 -11.725  -0.073  1.00  0.00     0.026 A 
BRANCH  24  29
HETATM   29  O   UNL     1      40.638 -14.528   2.278  1.00  0.00    -0.354 OA
HETATM   30  C   UNL     1      39.846 -15.700   2.444  1.00  0.00     0.210 C 
ENDBRANCH  24  29
ENDBRANCH  21  23
ENDBRANCH  20  21
ENDBRANCH   1  20
TORSDOF 8
ENDMDL
