MODEL 1
REMARK VINA RESULT:      -9.3      0.000      0.000
REMARK  4 active torsions:
REMARK  status: ('A' for Active; 'I' for Inactive)
REMARK    1  A    between atoms: C_7  and  C_8 
REMARK    2  A    between atoms: N_9  and  N_10 
REMARK       I    between atoms: N_10  and  C_11 
REMARK    3  A    between atoms: C_11  and  C_12 
REMARK    4  A    between atoms: C_16  and  C_17 
ROOT
HETATM    1  N   UNL     1      43.599 -12.316   7.132  1.00  0.00    -0.242 N 
HETATM    2  C   UNL     1      44.514 -11.307   7.393  1.00  0.00     0.289 C 
HETATM    3  O   UNL     1      45.387 -10.945   6.609  1.00  0.00    -0.264 OA
HETATM    4  H   UNL     1      42.902 -12.569   7.819  1.00  0.00     0.192 HD
ENDROOT
BRANCH   2   5
HETATM    5  C   UNL     1      44.375 -10.683   8.686  1.00  0.00     0.121 A 
HETATM    6  N   UNL     1      45.444 -10.099   9.304  1.00  0.00    -0.272 N 
HETATM    7  H   UNL     1      46.393 -10.042   8.946  1.00  0.00     0.189 HD
HETATM    8  N   UNL     1      45.163  -9.560  10.498  1.00  0.00    -0.174 NA
HETATM    9  C   UNL     1      43.855  -9.795  10.684  1.00  0.00     0.089 A 
HETATM   10  C   UNL     1      43.324 -10.500   9.563  1.00  0.00     0.071 A 
BRANCH   9  11
HETATM   11  C   UNL     1      43.160  -9.349  11.899  1.00  0.00    -0.003 A 
HETATM   12  C   UNL     1      43.611  -8.235  12.626  1.00  0.00     0.053 A 
HETATM   13  C   UNL     1      42.914  -7.867  13.760  1.00  0.00     0.106 A 
HETATM   14  C   UNL     1      41.805  -8.554  14.191  1.00  0.00     0.105 A 
HETATM   15  O   UNL     1      43.222  -6.818  14.570  1.00  0.00    -0.323 OA
HETATM   16  O   UNL     1      41.273  -8.025  15.325  1.00  0.00    -0.323 OA
HETATM   17  C   UNL     1      41.327  -9.650  13.511  1.00  0.00     0.040 A 
HETATM   18  C   UNL     1      42.176  -6.924  15.560  1.00  0.00     0.352 A 
HETATM   19  C   UNL     1      42.014 -10.046  12.358  1.00  0.00     0.017 A 
ENDBRANCH   9  11
ENDBRANCH   2   5
BRANCH   1  20
HETATM   20  N   UNL     1      43.635 -12.978   5.938  1.00  0.00    -0.183 NA
HETATM   21  C   UNL     1      42.809 -13.964   5.806  1.00  0.00     0.153 C 
BRANCH  21  22
HETATM   22  C   UNL     1      42.770 -14.731   4.574  1.00  0.00     0.018 A 
HETATM   23  C   UNL     1      42.237 -14.329   3.355  1.00  0.00     0.018 A 
HETATM   24  C   UNL     1      41.574 -13.060   2.944  1.00  0.00     0.069 C 
HETATM   25  N   UNL     1      42.409 -15.357   2.463  1.00  0.00    -0.358 N 
HETATM   26  H   UNL     1      42.116 -15.341   1.497  1.00  0.00     0.166 HD
HETATM   27  C   UNL     1      43.040 -16.420   3.063  1.00  0.00     0.043 A 
HETATM   28  C   UNL     1      43.281 -16.059   4.389  1.00  0.00     0.004 A 
HETATM   29  C   UNL     1      43.411 -17.661   2.533  1.00  0.00     0.030 A 
HETATM   30  C   UNL     1      43.927 -16.994   5.227  1.00  0.00     0.014 A 
HETATM   31  C   UNL     1      44.305 -18.240   4.713  1.00  0.00     0.001 A 
HETATM   32  C   UNL     1      44.050 -18.566   3.384  1.00  0.00     0.002 A 
ENDBRANCH  21  22
ENDBRANCH   1  20
TORSDOF 4
ENDMDL
MODEL 2
REMARK VINA RESULT:      -9.3      7.784     11.233
REMARK  4 active torsions:
REMARK  status: ('A' for Active; 'I' for Inactive)
REMARK    1  A    between atoms: C_7  and  C_8 
REMARK    2  A    between atoms: N_9  and  N_10 
REMARK       I    between atoms: N_10  and  C_11 
REMARK    3  A    between atoms: C_11  and  C_12 
REMARK    4  A    between atoms: C_16  and  C_17 
ROOT
HETATM    1  N   UNL     1      41.342 -14.424   1.963  1.00  0.00    -0.242 N 
HETATM    2  C   UNL     1      40.405 -14.647   0.966  1.00  0.00     0.289 C 
HETATM    3  O   UNL     1      39.816 -15.711   0.795  1.00  0.00    -0.264 OA
HETATM    4  H   UNL     1      41.794 -13.524   2.053  1.00  0.00     0.192 HD
ENDROOT
BRANCH   2   5
HETATM    5  C   UNL     1      40.152 -13.515   0.109  1.00  0.00     0.121 A 
HETATM    6  N   UNL     1      38.875 -13.123  -0.180  1.00  0.00    -0.272 N 
HETATM    7  H   UNL     1      38.019 -13.557   0.154  1.00  0.00     0.189 HD
HETATM    8  N   UNL     1      38.796 -12.056  -0.987  1.00  0.00    -0.174 NA
HETATM    9  C   UNL     1      40.070 -11.724  -1.246  1.00  0.00     0.089 A 
HETATM   10  C   UNL     1      40.953 -12.620  -0.572  1.00  0.00     0.071 A 
BRANCH   9  11
HETATM   11  C   UNL     1      40.405 -10.584  -2.111  1.00  0.00    -0.003 A 
HETATM   12  C   UNL     1      41.461  -9.716  -1.789  1.00  0.00     0.053 A 
HETATM   13  C   UNL     1      41.726  -8.662  -2.643  1.00  0.00     0.106 A 
HETATM   14  C   UNL     1      40.992  -8.445  -3.784  1.00  0.00     0.105 A 
HETATM   15  O   UNL     1      42.709  -7.736  -2.473  1.00  0.00    -0.323 OA
HETATM   16  O   UNL     1      41.420  -7.357  -4.478  1.00  0.00    -0.323 OA
HETATM   17  C   UNL     1      39.951  -9.270  -4.139  1.00  0.00     0.040 A 
HETATM   18  C   UNL     1      42.508  -6.912  -3.642  1.00  0.00     0.352 A 
HETATM   19  C   UNL     1      39.659 -10.346  -3.292  1.00  0.00     0.017 A 
ENDBRANCH   9  11
ENDBRANCH   2   5
BRANCH   1  20
HETATM   20  N   UNL     1      41.662 -15.425   2.836  1.00  0.00    -0.183 NA
HETATM   21  C   UNL     1      42.918 -15.718   2.934  1.00  0.00     0.153 C 
BRANCH  21  22
HETATM   22  C   UNL     1      43.360 -16.767   3.835  1.00  0.00     0.018 A 
HETATM   23  C   UNL     1      43.743 -16.624   5.162  1.00  0.00     0.018 A 
HETATM   24  C   UNL     1      43.820 -15.422   6.037  1.00  0.00     0.069 C 
HETATM   25  N   UNL     1      44.086 -17.866   5.635  1.00  0.00    -0.358 N 
HETATM   26  H   UNL     1      44.404 -18.061   6.574  1.00  0.00     0.166 HD
HETATM   27  C   UNL     1      43.936 -18.817   4.655  1.00  0.00     0.043 A 
HETATM   28  C   UNL     1      43.482 -18.160   3.512  1.00  0.00     0.004 A 
HETATM   29  C   UNL     1      44.169 -20.197   4.699  1.00  0.00     0.030 A 
HETATM   30  C   UNL     1      43.249 -18.929   2.351  1.00  0.00     0.014 A 
HETATM   31  C   UNL     1      43.476 -20.310   2.376  1.00  0.00     0.001 A 
HETATM   32  C   UNL     1      43.930 -20.933   3.536  1.00  0.00     0.002 A 
ENDBRANCH  21  22
ENDBRANCH   1  20
TORSDOF 4
ENDMDL
MODEL 3
REMARK VINA RESULT:      -9.3      1.600      1.957
REMARK  4 active torsions:
REMARK  status: ('A' for Active; 'I' for Inactive)
REMARK    1  A    between atoms: C_7  and  C_8 
REMARK    2  A    between atoms: N_9  and  N_10 
REMARK       I    between atoms: N_10  and  C_11 
REMARK    3  A    between atoms: C_11  and  C_12 
REMARK    4  A    between atoms: C_16  and  C_17 
ROOT
HETATM    1  N   UNL     1      43.360 -12.735   6.151  1.00  0.00    -0.242 N 
HETATM    2  C   UNL     1      44.181 -11.621   6.083  1.00  0.00     0.289 C 
HETATM    3  O   UNL     1      44.808 -11.284   5.082  1.00  0.00    -0.264 OA
HETATM    4  H   UNL     1      42.869 -12.962   7.005  1.00  0.00     0.192 HD
ENDROOT
BRANCH   2   5
HETATM    5  C   UNL     1      44.260 -10.851   7.300  1.00  0.00     0.121 A 
HETATM    6  N   UNL     1      45.418 -10.793   8.023  1.00  0.00    -0.272 N 
HETATM    7  H   UNL     1      46.295 -11.254   7.798  1.00  0.00     0.189 HD
HETATM    8  N   UNL     1      45.340 -10.040   9.128  1.00  0.00    -0.174 NA
HETATM    9  C   UNL     1      44.080  -9.578   9.143  1.00  0.00     0.089 A 
HETATM   10  C   UNL     1      43.369 -10.068   8.007  1.00  0.00     0.071 A 
BRANCH   9  11
HETATM   11  C   UNL     1      43.598  -8.700  10.217  1.00  0.00    -0.003 A 
HETATM   12  C   UNL     1      43.023  -7.451   9.930  1.00  0.00     0.053 A 
HETATM   13  C   UNL     1      42.588  -6.671  10.984  1.00  0.00     0.106 A 
HETATM   14  C   UNL     1      42.703  -7.081  12.291  1.00  0.00     0.105 A 
HETATM   15  O   UNL     1      42.012  -5.443  10.875  1.00  0.00    -0.323 OA
HETATM   16  O   UNL     1      42.215  -6.164  13.169  1.00  0.00    -0.323 OA
HETATM   17  C   UNL     1      43.258  -8.295  12.619  1.00  0.00     0.040 A 
HETATM   18  C   UNL     1      41.778  -5.128  12.264  1.00  0.00     0.352 A 
HETATM   19  C   UNL     1      43.708  -9.106  11.571  1.00  0.00     0.017 A 
ENDBRANCH   9  11
ENDBRANCH   2   5
BRANCH   1  20
HETATM   20  N   UNL     1      43.208 -13.540   5.057  1.00  0.00    -0.183 NA
HETATM   21  C   UNL     1      42.517 -14.619   5.233  1.00  0.00     0.153 C 
BRANCH  21  22
HETATM   22  C   UNL     1      42.298 -15.539   4.131  1.00  0.00     0.018 A 
HETATM   23  C   UNL     1      41.387 -15.399   3.092  1.00  0.00     0.018 A 
HETATM   24  C   UNL     1      40.401 -14.325   2.790  1.00  0.00     0.069 C 
HETATM   25  N   UNL     1      41.512 -16.494   2.275  1.00  0.00    -0.358 N 
HETATM   26  H   UNL     1      40.971 -16.657   1.437  1.00  0.00     0.166 HD
HETATM   27  C   UNL     1      42.479 -17.346   2.749  1.00  0.00     0.043 A 
HETATM   28  C   UNL     1      42.993 -16.776   3.914  1.00  0.00     0.004 A 
HETATM   29  C   UNL     1      42.931 -18.568   2.236  1.00  0.00     0.030 A 
HETATM   30  C   UNL     1      44.014 -17.469   4.600  1.00  0.00     0.014 A 
HETATM   31  C   UNL     1      44.478 -18.692   4.102  1.00  0.00     0.001 A 
HETATM   32  C   UNL     1      43.942 -19.231   2.935  1.00  0.00     0.002 A 
ENDBRANCH  21  22
ENDBRANCH   1  20
TORSDOF 4
ENDMDL
MODEL 4
REMARK VINA RESULT:      -9.2      1.392      2.383
REMARK  4 active torsions:
REMARK  status: ('A' for Active; 'I' for Inactive)
REMARK    1  A    between atoms: C_7  and  C_8 
REMARK    2  A    between atoms: N_9  and  N_10 
REMARK       I    between atoms: N_10  and  C_11 
REMARK    3  A    between atoms: C_11  and  C_12 
REMARK    4  A    between atoms: C_16  and  C_17 
ROOT
HETATM    1  N   UNL     1      43.788 -12.396   7.399  1.00  0.00    -0.242 N 
HETATM    2  C   UNL     1      44.748 -11.404   7.521  1.00  0.00     0.289 C 
HETATM    3  O   UNL     1      45.814 -11.393   6.911  1.00  0.00    -0.264 OA
HETATM    4  H   UNL     1      42.929 -12.349   7.929  1.00  0.00     0.192 HD
ENDROOT
BRANCH   2   5
HETATM    5  C   UNL     1      44.410 -10.345   8.440  1.00  0.00     0.121 A 
HETATM    6  N   UNL     1      44.829  -9.063   8.222  1.00  0.00    -0.272 N 
HETATM    7  H   UNL     1      45.388  -8.734   7.439  1.00  0.00     0.189 HD
HETATM    8  N   UNL     1      44.439  -8.188   9.158  1.00  0.00    -0.174 NA
HETATM    9  C   UNL     1      43.732  -8.916  10.037  1.00  0.00     0.089 A 
HETATM   10  C   UNL     1      43.692 -10.279   9.618  1.00  0.00     0.071 A 
BRANCH   9  11
HETATM   11  C   UNL     1      43.125  -8.305  11.227  1.00  0.00    -0.003 A 
HETATM   12  C   UNL     1      42.958  -9.038  12.413  1.00  0.00     0.053 A 
HETATM   13  C   UNL     1      42.381  -8.407  13.499  1.00  0.00     0.106 A 
HETATM   14  C   UNL     1      41.971  -7.096  13.447  1.00  0.00     0.105 A 
HETATM   15  O   UNL     1      42.150  -8.976  14.713  1.00  0.00    -0.323 OA
HETATM   16  O   UNL     1      41.431  -6.674  14.621  1.00  0.00    -0.323 OA
HETATM   17  C   UNL     1      42.115  -6.340  12.308  1.00  0.00     0.040 A 
HETATM   18  C   UNL     1      41.548  -7.870  15.420  1.00  0.00     0.352 A 
HETATM   19  C   UNL     1      42.697  -6.954  11.192  1.00  0.00     0.017 A 
ENDBRANCH   9  11
ENDBRANCH   2   5
BRANCH   1  20
HETATM   20  N   UNL     1      44.000 -13.450   6.555  1.00  0.00    -0.183 NA
HETATM   21  C   UNL     1      43.017 -14.280   6.421  1.00  0.00     0.153 C 
BRANCH  21  22
HETATM   22  C   UNL     1      43.143 -15.433   5.547  1.00  0.00     0.018 A 
HETATM   23  C   UNL     1      43.313 -16.758   5.929  1.00  0.00     0.018 A 
HETATM   24  C   UNL     1      43.415 -17.386   7.275  1.00  0.00     0.069 C 
HETATM   25  N   UNL     1      43.386 -17.516   4.788  1.00  0.00    -0.358 N 
HETATM   26  H   UNL     1      43.509 -18.519   4.765  1.00  0.00     0.166 HD
HETATM   27  C   UNL     1      43.269 -16.725   3.671  1.00  0.00     0.043 A 
HETATM   28  C   UNL     1      43.115 -15.411   4.113  1.00  0.00     0.004 A 
HETATM   29  C   UNL     1      43.288 -17.075   2.316  1.00  0.00     0.030 A 
HETATM   30  C   UNL     1      42.972 -14.395   3.143  1.00  0.00     0.014 A 
HETATM   31  C   UNL     1      42.989 -14.727   1.783  1.00  0.00     0.001 A 
HETATM   32  C   UNL     1      43.145 -16.050   1.378  1.00  0.00     0.002 A 
ENDBRANCH  21  22
ENDBRANCH   1  20
TORSDOF 4
ENDMDL
MODEL 5
REMARK VINA RESULT:      -8.9      3.108     10.906
REMARK  4 active torsions:
REMARK  status: ('A' for Active; 'I' for Inactive)
REMARK    1  A    between atoms: C_7  and  C_8 
REMARK    2  A    between atoms: N_9  and  N_10 
REMARK       I    between atoms: N_10  and  C_11 
REMARK    3  A    between atoms: C_11  and  C_12 
REMARK    4  A    between atoms: C_16  and  C_17 
ROOT
HETATM    1  N   UNL     1      42.868 -10.918   7.499  1.00  0.00    -0.242 N 
HETATM    2  C   UNL     1      43.884 -11.847   7.336  1.00  0.00     0.289 C 
HETATM    3  O   UNL     1      45.000 -11.748   7.838  1.00  0.00    -0.264 OA
HETATM    4  H   UNL     1      41.969 -11.055   7.059  1.00  0.00     0.192 HD
ENDROOT
BRANCH   2   5
HETATM    5  C   UNL     1      43.541 -12.980   6.512  1.00  0.00     0.121 A 
HETATM    6  N   UNL     1      42.429 -12.962   5.717  1.00  0.00    -0.272 N 
HETATM    7  H   UNL     1      41.765 -12.198   5.624  1.00  0.00     0.189 HD
HETATM    8  N   UNL     1      42.240 -14.083   5.009  1.00  0.00    -0.174 NA
HETATM    9  C   UNL     1      43.265 -14.881   5.345  1.00  0.00     0.089 A 
HETATM   10  C   UNL     1      44.106 -14.220   6.289  1.00  0.00     0.071 A 
BRANCH   9  11
HETATM   11  C   UNL     1      43.413 -16.224   4.768  1.00  0.00    -0.003 A 
HETATM   12  C   UNL     1      43.657 -17.341   5.584  1.00  0.00     0.053 A 
HETATM   13  C   UNL     1      43.787 -18.577   4.981  1.00  0.00     0.106 A 
HETATM   14  C   UNL     1      43.685 -18.740   3.620  1.00  0.00     0.105 A 
HETATM   15  O   UNL     1      44.023 -19.751   5.628  1.00  0.00    -0.323 OA
HETATM   16  O   UNL     1      43.845 -20.035   3.238  1.00  0.00    -0.323 OA
HETATM   17  C   UNL     1      43.447 -17.676   2.783  1.00  0.00     0.040 A 
HETATM   18  C   UNL     1      44.058 -20.671   4.516  1.00  0.00     0.352 A 
HETATM   19  C   UNL     1      43.311 -16.410   3.367  1.00  0.00     0.017 A 
ENDBRANCH   9  11
ENDBRANCH   2   5
BRANCH   1  20
HETATM   20  N   UNL     1      43.079  -9.804   8.261  1.00  0.00    -0.183 NA
HETATM   21  C   UNL     1      42.084  -9.412   8.988  1.00  0.00     0.153 C 
BRANCH  21  22
HETATM   22  C   UNL     1      42.208  -8.238   9.833  1.00  0.00     0.018 A 
HETATM   23  C   UNL     1      42.186  -6.909   9.428  1.00  0.00     0.018 A 
HETATM   24  C   UNL     1      42.036  -6.297   8.079  1.00  0.00     0.069 C 
HETATM   25  N   UNL     1      42.336  -6.128  10.546  1.00  0.00    -0.358 N 
HETATM   26  H   UNL     1      42.356  -5.118  10.548  1.00  0.00     0.166 HD
HETATM   27  C   UNL     1      42.455  -6.907  11.671  1.00  0.00     0.043 A 
HETATM   28  C   UNL     1      42.379  -8.238  11.258  1.00  0.00     0.004 A 
HETATM   29  C   UNL     1      42.624  -6.534  13.009  1.00  0.00     0.030 A 
HETATM   30  C   UNL     1      42.477  -9.246  12.241  1.00  0.00     0.014 A 
HETATM   31  C   UNL     1      42.646  -8.891  13.585  1.00  0.00     0.001 A 
HETATM   32  C   UNL     1      42.717  -7.552  13.961  1.00  0.00     0.002 A 
ENDBRANCH  21  22
ENDBRANCH   1  20
TORSDOF 4
ENDMDL
MODEL 6
REMARK VINA RESULT:      -8.4      3.164     11.133
REMARK  4 active torsions:
REMARK  status: ('A' for Active; 'I' for Inactive)
REMARK    1  A    between atoms: C_7  and  C_8 
REMARK    2  A    between atoms: N_9  and  N_10 
REMARK       I    between atoms: N_10  and  C_11 
REMARK    3  A    between atoms: C_11  and  C_12 
REMARK    4  A    between atoms: C_16  and  C_17 
ROOT
HETATM    1  N   UNL     1      42.779 -10.415   8.080  1.00  0.00    -0.242 N 
HETATM    2  C   UNL     1      43.779 -11.334   7.802  1.00  0.00     0.289 C 
HETATM    3  O   UNL     1      44.872 -11.358   8.362  1.00  0.00    -0.264 OA
HETATM    4  H   UNL     1      41.899 -10.447   7.583  1.00  0.00     0.192 HD
ENDROOT
BRANCH   2   5
HETATM    5  C   UNL     1      43.450 -12.297   6.780  1.00  0.00     0.121 A 
HETATM    6  N   UNL     1      42.592 -11.981   5.765  1.00  0.00    -0.272 N 
HETATM    7  H   UNL     1      42.122 -11.091   5.626  1.00  0.00     0.189 HD
HETATM    8  N   UNL     1      42.382 -12.974   4.891  1.00  0.00    -0.174 NA
HETATM    9  C   UNL     1      43.130 -13.994   5.342  1.00  0.00     0.089 A 
HETATM   10  C   UNL     1      43.817 -13.605   6.530  1.00  0.00     0.071 A 
BRANCH   9  11
HETATM   11  C   UNL     1      43.168 -15.285   4.642  1.00  0.00    -0.003 A 
HETATM   12  C   UNL     1      43.777 -16.408   5.226  1.00  0.00     0.053 A 
HETATM   13  C   UNL     1      43.780 -17.594   4.517  1.00  0.00     0.106 A 
HETATM   14  C   UNL     1      43.211 -17.701   3.270  1.00  0.00     0.105 A 
HETATM   15  O   UNL     1      44.327 -18.766   4.940  1.00  0.00    -0.323 OA
HETATM   16  O   UNL     1      43.327 -18.953   2.752  1.00  0.00    -0.323 OA
HETATM   17  C   UNL     1      42.605 -16.629   2.661  1.00  0.00     0.040 A 
HETATM   18  C   UNL     1      44.034 -19.624   3.816  1.00  0.00     0.352 A 
HETATM   19  C   UNL     1      42.586 -15.414   3.356  1.00  0.00     0.017 A 
ENDBRANCH   9  11
ENDBRANCH   2   5
BRANCH   1  20
HETATM   20  N   UNL     1      42.979  -9.455   9.031  1.00  0.00    -0.183 NA
HETATM   21  C   UNL     1      42.033  -9.307   9.901  1.00  0.00     0.153 C 
BRANCH  21  22
HETATM   22  C   UNL     1      42.151  -8.313  10.953  1.00  0.00     0.018 A 
HETATM   23  C   UNL     1      42.257  -8.549  12.318  1.00  0.00     0.018 A 
HETATM   24  C   UNL     1      42.284  -9.818  13.096  1.00  0.00     0.069 C 
HETATM   25  N   UNL     1      42.346  -7.332  12.946  1.00  0.00    -0.358 N 
HETATM   26  H   UNL     1      42.433  -7.200  13.944  1.00  0.00     0.166 HD
HETATM   27  C   UNL     1      42.301  -6.308  12.032  1.00  0.00     0.043 A 
HETATM   28  C   UNL     1      42.179  -6.890  10.770  1.00  0.00     0.004 A 
HETATM   29  C   UNL     1      42.358  -4.924  12.229  1.00  0.00     0.030 A 
HETATM   30  C   UNL     1      42.111  -6.037   9.647  1.00  0.00     0.014 A 
HETATM   31  C   UNL     1      42.167  -4.650   9.826  1.00  0.00     0.001 A 
HETATM   32  C   UNL     1      42.290  -4.103  11.100  1.00  0.00     0.002 A 
ENDBRANCH  21  22
ENDBRANCH   1  20
TORSDOF 4
ENDMDL
MODEL 7
REMARK VINA RESULT:      -8.3     19.169     20.974
REMARK  4 active torsions:
REMARK  status: ('A' for Active; 'I' for Inactive)
REMARK    1  A    between atoms: C_7  and  C_8 
REMARK    2  A    between atoms: N_9  and  N_10 
REMARK       I    between atoms: N_10  and  C_11 
REMARK    3  A    between atoms: C_11  and  C_12 
REMARK    4  A    between atoms: C_16  and  C_17 
ROOT
HETATM    1  N   UNL     1      43.136 -29.900   3.428  1.00  0.00    -0.242 N 
HETATM    2  C   UNL     1      41.966 -30.484   2.969  1.00  0.00     0.289 C 
HETATM    3  O   UNL     1      41.598 -30.470   1.797  1.00  0.00    -0.264 OA
HETATM    4  H   UNL     1      43.385 -29.944   4.406  1.00  0.00     0.192 HD
ENDROOT
BRANCH   2   5
HETATM    5  C   UNL     1      41.175 -31.133   3.986  1.00  0.00     0.121 A 
HETATM    6  N   UNL     1      41.551 -31.099   5.299  1.00  0.00    -0.272 N 
HETATM    7  H   UNL     1      42.374 -30.642   5.681  1.00  0.00     0.189 HD
HETATM    8  N   UNL     1      40.718 -31.743   6.127  1.00  0.00    -0.174 NA
HETATM    9  C   UNL     1      39.749 -32.227   5.335  1.00  0.00     0.089 A 
HETATM   10  C   UNL     1      40.003 -31.863   3.979  1.00  0.00     0.071 A 
BRANCH   9  11
HETATM   11  C   UNL     1      38.631 -33.008   5.880  1.00  0.00    -0.003 A 
HETATM   12  C   UNL     1      38.653 -33.482   7.202  1.00  0.00     0.053 A 
HETATM   13  C   UNL     1      37.571 -34.211   7.656  1.00  0.00     0.106 A 
HETATM   14  C   UNL     1      36.486 -34.481   6.856  1.00  0.00     0.105 A 
HETATM   15  O   UNL     1      37.439 -34.738   8.903  1.00  0.00    -0.323 OA
HETATM   16  O   UNL     1      35.535 -35.211   7.498  1.00  0.00    -0.323 OA
HETATM   17  C   UNL     1      36.420 -34.037   5.557  1.00  0.00     0.040 A 
HETATM   18  C   UNL     1      36.145 -35.370   8.796  1.00  0.00     0.352 A 
HETATM   19  C   UNL     1      37.504 -33.296   5.070  1.00  0.00     0.017 A 
ENDBRANCH   9  11
ENDBRANCH   2   5
BRANCH   1  20
HETATM   20  N   UNL     1      43.966 -29.257   2.553  1.00  0.00    -0.183 NA
HETATM   21  C   UNL     1      45.181 -29.697   2.490  1.00  0.00     0.153 C 
BRANCH  21  22
HETATM   22  C   UNL     1      46.140 -29.081   1.591  1.00  0.00     0.018 A 
HETATM   23  C   UNL     1      47.429 -28.665   1.900  1.00  0.00     0.018 A 
HETATM   24  C   UNL     1      48.197 -28.713   3.174  1.00  0.00     0.069 C 
HETATM   25  N   UNL     1      47.983 -28.139   0.760  1.00  0.00    -0.358 N 
HETATM   26  H   UNL     1      48.917 -27.758   0.692  1.00  0.00     0.166 HD
HETATM   27  C   UNL     1      47.094 -28.200  -0.286  1.00  0.00     0.043 A 
HETATM   28  C   UNL     1      45.926 -28.786   0.203  1.00  0.00     0.004 A 
HETATM   29  C   UNL     1      47.239 -27.782  -1.614  1.00  0.00     0.030 A 
HETATM   30  C   UNL     1      44.847 -28.962  -0.690  1.00  0.00     0.014 A 
HETATM   31  C   UNL     1      44.974 -28.550  -2.022  1.00  0.00     0.001 A 
HETATM   32  C   UNL     1      46.155 -27.969  -2.475  1.00  0.00     0.002 A 
ENDBRANCH  21  22
ENDBRANCH   1  20
TORSDOF 4
ENDMDL
MODEL 8
REMARK VINA RESULT:      -8.3     18.886     20.209
REMARK  4 active torsions:
REMARK  status: ('A' for Active; 'I' for Inactive)
REMARK    1  A    between atoms: C_7  and  C_8 
REMARK    2  A    between atoms: N_9  and  N_10 
REMARK       I    between atoms: N_10  and  C_11 
REMARK    3  A    between atoms: C_11  and  C_12 
REMARK    4  A    between atoms: C_16  and  C_17 
ROOT
HETATM    1  N   UNL     1      42.986 -29.800   3.419  1.00  0.00    -0.242 N 
HETATM    2  C   UNL     1      41.748 -30.363   3.153  1.00  0.00     0.289 C 
HETATM    3  O   UNL     1      41.187 -30.317   2.062  1.00  0.00    -0.264 OA
HETATM    4  H   UNL     1      43.397 -29.871   4.340  1.00  0.00     0.192 HD
ENDROOT
BRANCH   2   5
HETATM    5  C   UNL     1      41.133 -31.031   4.274  1.00  0.00     0.121 A 
HETATM    6  N   UNL     1      39.833 -31.446   4.219  1.00  0.00    -0.272 N 
HETATM    7  H   UNL     1      39.196 -31.339   3.434  1.00  0.00     0.189 HD
HETATM    8  N   UNL     1      39.400 -32.052   5.333  1.00  0.00    -0.174 NA
HETATM    9  C   UNL     1      40.453 -32.038   6.164  1.00  0.00     0.089 A 
HETATM   10  C   UNL     1      41.564 -31.404   5.532  1.00  0.00     0.071 A 
BRANCH   9  11
HETATM   11  C   UNL     1      40.376 -32.620   7.511  1.00  0.00    -0.003 A 
HETATM   12  C   UNL     1      40.987 -31.992   8.609  1.00  0.00     0.053 A 
HETATM   13  C   UNL     1      40.878 -32.589   9.850  1.00  0.00     0.106 A 
HETATM   14  C   UNL     1      40.195 -33.767  10.036  1.00  0.00     0.105 A 
HETATM   15  O   UNL     1      41.412 -32.110  11.007  1.00  0.00    -0.323 OA
HETATM   16  O   UNL     1      40.211 -34.178  11.332  1.00  0.00    -0.323 OA
HETATM   17  C   UNL     1      39.581 -34.416   8.992  1.00  0.00     0.040 A 
HETATM   18  C   UNL     1      40.984 -33.123  11.942  1.00  0.00     0.352 A 
HETATM   19  C   UNL     1      39.675 -33.834   7.722  1.00  0.00     0.017 A 
ENDBRANCH   9  11
ENDBRANCH   2   5
BRANCH   1  20
HETATM   20  N   UNL     1      43.663 -29.142   2.432  1.00  0.00    -0.183 NA
HETATM   21  C   UNL     1      44.692 -29.752   1.940  1.00  0.00     0.153 C 
BRANCH  21  22
HETATM   22  C   UNL     1      45.477 -29.136   0.886  1.00  0.00     0.018 A 
HETATM   23  C   UNL     1      46.703 -28.496   1.021  1.00  0.00     0.018 A 
HETATM   24  C   UNL     1      47.556 -28.252   2.217  1.00  0.00     0.069 C 
HETATM   25  N   UNL     1      47.088 -28.061  -0.223  1.00  0.00    -0.358 N 
HETATM   26  H   UNL     1      47.943 -27.562  -0.423  1.00  0.00     0.166 HD
HETATM   27  C   UNL     1      46.149 -28.398  -1.167  1.00  0.00     0.043 A 
HETATM   28  C   UNL     1      45.124 -29.074  -0.504  1.00  0.00     0.004 A 
HETATM   29  C   UNL     1      46.134 -28.155  -2.545  1.00  0.00     0.030 A 
HETATM   30  C   UNL     1      44.026 -29.530  -1.265  1.00  0.00     0.014 A 
HETATM   31  C   UNL     1      43.994 -29.296  -2.645  1.00  0.00     0.001 A 
HETATM   32  C   UNL     1      45.035 -28.618  -3.274  1.00  0.00     0.002 A 
ENDBRANCH  21  22
ENDBRANCH   1  20
TORSDOF 4
ENDMDL
MODEL 9
REMARK VINA RESULT:      -8.3      2.422      3.162
REMARK  4 active torsions:
REMARK  status: ('A' for Active; 'I' for Inactive)
REMARK    1  A    between atoms: C_7  and  C_8 
REMARK    2  A    between atoms: N_9  and  N_10 
REMARK       I    between atoms: N_10  and  C_11 
REMARK    3  A    between atoms: C_11  and  C_12 
REMARK    4  A    between atoms: C_16  and  C_17 
ROOT
HETATM    1  N   UNL     1      43.619 -12.718   7.509  1.00  0.00    -0.242 N 
HETATM    2  C   UNL     1      43.654 -11.372   7.183  1.00  0.00     0.289 C 
HETATM    3  O   UNL     1      43.866 -10.938   6.054  1.00  0.00    -0.264 OA
HETATM    4  H   UNL     1      43.439 -13.014   8.459  1.00  0.00     0.192 HD
ENDROOT
BRANCH   2   5
HETATM    5  C   UNL     1      43.416 -10.475   8.288  1.00  0.00     0.121 A 
HETATM    6  N   UNL     1      43.654 -10.866   9.575  1.00  0.00    -0.272 N 
HETATM    7  H   UNL     1      44.003 -11.771   9.878  1.00  0.00     0.189 HD
HETATM    8  N   UNL     1      43.389  -9.928  10.494  1.00  0.00    -0.174 NA
HETATM    9  C   UNL     1      42.956  -8.869   9.791  1.00  0.00     0.089 A 
HETATM   10  C   UNL     1      42.960  -9.176   8.398  1.00  0.00     0.071 A 
BRANCH   9  11
HETATM   11  C   UNL     1      42.559  -7.619  10.453  1.00  0.00    -0.003 A 
HETATM   12  C   UNL     1      42.960  -6.372   9.948  1.00  0.00     0.053 A 
HETATM   13  C   UNL     1      42.554  -5.232  10.615  1.00  0.00     0.106 A 
HETATM   14  C   UNL     1      41.777  -5.288  11.748  1.00  0.00     0.105 A 
HETATM   15  O   UNL     1      42.858  -3.956  10.256  1.00  0.00    -0.323 OA
HETATM   16  O   UNL     1      41.493  -4.055  12.244  1.00  0.00    -0.323 OA
HETATM   17  C   UNL     1      41.361  -6.486  12.277  1.00  0.00     0.040 A 
HETATM   18  C   UNL     1      42.180  -3.214  11.294  1.00  0.00     0.352 A 
HETATM   19  C   UNL     1      41.758  -7.658  11.621  1.00  0.00     0.017 A 
ENDBRANCH   9  11
ENDBRANCH   2   5
BRANCH   1  20
HETATM   20  N   UNL     1      43.829 -13.660   6.542  1.00  0.00    -0.183 NA
HETATM   21  C   UNL     1      42.989 -14.643   6.510  1.00  0.00     0.153 C 
BRANCH  21  22
HETATM   22  C   UNL     1      43.127 -15.695   5.519  1.00  0.00     0.018 A 
HETATM   23  C   UNL     1      43.299 -17.053   5.758  1.00  0.00     0.018 A 
HETATM   24  C   UNL     1      43.391 -17.821   7.031  1.00  0.00     0.069 C 
HETATM   25  N   UNL     1      43.384 -17.685   4.543  1.00  0.00    -0.358 N 
HETATM   26  H   UNL     1      43.511 -18.679   4.415  1.00  0.00     0.166 HD
HETATM   27  C   UNL     1      43.273 -16.780   3.516  1.00  0.00     0.043 A 
HETATM   28  C   UNL     1      43.110 -15.521   4.095  1.00  0.00     0.004 A 
HETATM   29  C   UNL     1      43.305 -16.983   2.132  1.00  0.00     0.030 A 
HETATM   30  C   UNL     1      42.972 -14.407   3.238  1.00  0.00     0.014 A 
HETATM   31  C   UNL     1      43.002 -14.592   1.850  1.00  0.00     0.001 A 
HETATM   32  C   UNL     1      43.166 -15.864   1.307  1.00  0.00     0.002 A 
ENDBRANCH  21  22
ENDBRANCH   1  20
TORSDOF 4
ENDMDL
MODEL 10
REMARK VINA RESULT:      -8.2      4.319     10.893
REMARK  4 active torsions:
REMARK  status: ('A' for Active; 'I' for Inactive)
REMARK    1  A    between atoms: C_7  and  C_8 
REMARK    2  A    between atoms: N_9  and  N_10 
REMARK       I    between atoms: N_10  and  C_11 
REMARK    3  A    between atoms: C_11  and  C_12 
REMARK    4  A    between atoms: C_16  and  C_17 
ROOT
HETATM    1  N   UNL     1      42.781 -11.738   4.817  1.00  0.00    -0.242 N 
HETATM    2  C   UNL     1      42.874 -12.012   3.462  1.00  0.00     0.289 C 
HETATM    3  O   UNL     1      42.947 -11.154   2.585  1.00  0.00    -0.264 OA
HETATM    4  H   UNL     1      42.724 -12.488   5.491  1.00  0.00     0.192 HD
ENDROOT
BRANCH   2   5
HETATM    5  C   UNL     1      42.882 -13.415   3.127  1.00  0.00     0.121 A 
HETATM    6  N   UNL     1      42.442 -13.850   1.909  1.00  0.00    -0.272 N 
HETATM    7  H   UNL     1      42.085 -13.272   1.153  1.00  0.00     0.189 HD
HETATM    8  N   UNL     1      42.510 -15.177   1.741  1.00  0.00    -0.174 NA
HETATM    9  C   UNL     1      43.014 -15.646   2.893  1.00  0.00     0.089 A 
HETATM   10  C   UNL     1      43.261 -14.565   3.791  1.00  0.00     0.071 A 
BRANCH   9  11
HETATM   11  C   UNL     1      43.242 -17.082   3.103  1.00  0.00    -0.003 A 
HETATM   12  C   UNL     1      43.584 -17.584   4.369  1.00  0.00     0.053 A 
HETATM   13  C   UNL     1      43.786 -18.944   4.502  1.00  0.00     0.106 A 
HETATM   14  C   UNL     1      43.663 -19.808   3.440  1.00  0.00     0.105 A 
HETATM   15  O   UNL     1      44.120 -19.585   5.655  1.00  0.00    -0.323 OA
HETATM   16  O   UNL     1      43.904 -21.100   3.789  1.00  0.00    -0.323 OA
HETATM   17  C   UNL     1      43.330 -19.361   2.183  1.00  0.00     0.040 A 
HETATM   18  C   UNL     1      44.193 -20.952   5.195  1.00  0.00     0.352 A 
HETATM   19  C   UNL     1      43.120 -17.987   2.019  1.00  0.00     0.017 A 
ENDBRANCH   9  11
ENDBRANCH   2   5
BRANCH   1  20
HETATM   20  N   UNL     1      42.766 -10.443   5.252  1.00  0.00    -0.183 NA
HETATM   21  C   UNL     1      42.086 -10.209   6.328  1.00  0.00     0.153 C 
BRANCH  21  22
HETATM   22  C   UNL     1      42.009  -8.865   6.871  1.00  0.00     0.018 A 
HETATM   23  C   UNL     1      41.545  -7.727   6.223  1.00  0.00     0.018 A 
HETATM   24  C   UNL     1      41.009  -7.529   4.848  1.00  0.00     0.069 C 
HETATM   25  N   UNL     1      41.648  -6.676   7.100  1.00  0.00    -0.358 N 
HETATM   26  H   UNL     1      41.381  -5.723   6.896  1.00  0.00     0.166 HD
HETATM   27  C   UNL     1      42.165  -7.094   8.301  1.00  0.00     0.043 A 
HETATM   28  C   UNL     1      42.403  -8.464   8.191  1.00  0.00     0.004 A 
HETATM   29  C   UNL     1      42.437  -6.365   9.465  1.00  0.00     0.030 A 
HETATM   30  C   UNL     1      42.943  -9.138   9.308  1.00  0.00     0.014 A 
HETATM   31  C   UNL     1      43.221  -8.425  10.480  1.00  0.00     0.001 A 
HETATM   32  C   UNL     1      42.970  -7.058  10.555  1.00  0.00     0.002 A 
ENDBRANCH  21  22
ENDBRANCH   1  20
TORSDOF 4
ENDMDL
