MODEL 1
REMARK VINA RESULT:     -10.1      0.000      0.000
REMARK  9 active torsions:
REMARK  status: ('A' for Active; 'I' for Inactive)
REMARK    1  A    between atoms: C_9  and  O_10 
REMARK    2  A    between atoms: O_10  and  C_11 
REMARK    3  A    between atoms: C_22  and  C_23 
REMARK    4  A    between atoms: N_30  and  C_31 
REMARK    5  A    between atoms: C_31  and  C_32 
REMARK    6  A    between atoms: C_32  and  O_33 
REMARK    7  A    between atoms: O_33  and  C_34 
REMARK    8  A    between atoms: C_35  and  C_36 
REMARK    9  A    between atoms: C_36  and  C_37 
ROOT
HETATM    1  H   UNL     1      45.553 -10.064   8.042  1.00  0.00     0.188 HD
HETATM    2  N   UNL     1      45.191 -10.745   7.368  1.00  0.00    -0.282 NA
HETATM    3  C   UNL     1      43.901 -10.596   7.277  1.00  0.00     0.155 C 
HETATM    4  N   UNL     1      43.181  -9.715   8.053  1.00  0.00    -0.230 N 
HETATM    5  C   UNL     1      41.817  -9.555   7.881  1.00  0.00     0.195 A 
HETATM    6  N   UNL     1      41.070 -10.096   6.985  1.00  0.00    -0.183 NA
HETATM    7  N   UNL     1      43.711  -9.015   9.140  1.00  0.00    -0.186 NA
HETATM    8  C   UNL     1      42.726  -8.358   9.874  1.00  0.00     0.094 A 
HETATM    9  C   UNL     1      42.893  -7.747  11.055  1.00  0.00     0.175 C 
HETATM   10  S   UNL     1      41.129  -8.484   9.116  1.00  0.00    -0.035 SA
HETATM   11  C   UNL     1      43.069 -11.393   6.309  1.00  0.00     0.082 C 
HETATM   12  C   UNL     1      41.669 -10.895   6.028  1.00  0.00     0.283 C 
HETATM   13  O   UNL     1      41.092 -11.157   4.981  1.00  0.00    -0.265 OA
HETATM   14  C   UNL     1      43.618 -12.508   5.788  1.00  0.00     0.034 C 
HETATM   15  H   UNL     1      44.329  -9.553   9.747  1.00  0.00     0.154 HD
ENDROOT
BRANCH  14  16
HETATM   16  C   UNL     1      43.017 -13.516   4.973  1.00  0.00    -0.007 A 
HETATM   17  C   UNL     1      42.020 -14.452   5.374  1.00  0.00     0.002 A 
HETATM   18  C   UNL     1      41.642 -15.179   4.235  1.00  0.00     0.045 A 
HETATM   19  C   UNL     1      41.392 -14.738   6.609  1.00  0.00     0.014 A 
HETATM   20  C   UNL     1      40.646 -16.169   4.309  1.00  0.00     0.030 A 
HETATM   21  N   UNL     1      42.404 -14.707   3.184  1.00  0.00    -0.353 N 
HETATM   22  C   UNL     1      40.046 -16.436   5.543  1.00  0.00     0.002 A 
HETATM   23  C   UNL     1      40.413 -15.731   6.682  1.00  0.00     0.001 A 
HETATM   24  C   UNL     1      43.210 -13.679   3.622  1.00  0.00     0.103 A 
BRANCH  21  25
HETATM   25  C   UNL     1      42.339 -15.079   1.775  1.00  0.00     0.155 C 
BRANCH  25  26
HETATM   26  C   UNL     1      42.969 -16.415   1.380  1.00  0.00     0.196 C 
BRANCH  26  27
HETATM   27  O   UNL     1      43.771 -16.850   2.480  1.00  0.00    -0.349 OA
BRANCH  27  28
HETATM   28  C   UNL     1      43.784 -18.173   2.815  1.00  0.00     0.075 A 
HETATM   29  C   UNL     1      44.089 -18.454   4.161  1.00  0.00    -0.021 A 
HETATM   30  C   UNL     1      44.092 -19.788   4.602  1.00  0.00     0.010 A 
HETATM   31  C   UNL     1      43.812 -20.827   3.717  1.00  0.00     0.001 A 
HETATM   32  C   UNL     1      43.524 -20.544   2.386  1.00  0.00     0.003 A 
HETATM   33  C   UNL     1      43.509 -19.222   1.933  1.00  0.00     0.037 A 
BRANCH  29  34
HETATM   34  C   UNL     1      44.407 -17.349   5.149  1.00  0.00     0.067 C 
BRANCH  34  35
HETATM   35  C   UNL     1      43.783 -17.453   6.516  1.00  0.00    -0.032 C 
HETATM   36  C   UNL     1      44.063 -16.728   7.609  1.00  0.00     0.007 C 
ENDBRANCH  34  35
ENDBRANCH  29  34
ENDBRANCH  27  28
ENDBRANCH  26  27
ENDBRANCH  25  26
ENDBRANCH  21  25
ENDBRANCH  14  16
BRANCH   9  37
HETATM   37  O   UNL     1      41.860  -7.160  11.751  1.00  0.00    -0.320 OA
BRANCH  37  38
HETATM   38  C   UNL     1      41.802  -7.320  13.117  1.00  0.00     0.081 A 
HETATM   39  C   UNL     1      40.929  -8.300  13.615  1.00  0.00    -0.028 A 
HETATM   40  C   UNL     1      40.078  -9.122  12.689  1.00  0.00     0.051 C 
HETATM   41  C   UNL     1      40.898  -8.543  14.995  1.00  0.00     0.009 A 
HETATM   42  C   UNL     1      41.719  -7.818  15.861  1.00  0.00     0.001 A 
HETATM   43  C   UNL     1      42.592  -6.857  15.356  1.00  0.00     0.003 A 
HETATM   44  C   UNL     1      42.645  -6.615  13.983  1.00  0.00     0.038 A 
ENDBRANCH  37  38
ENDBRANCH   9  37
TORSDOF 9
ENDMDL
MODEL 2
REMARK VINA RESULT:      -9.6      2.711     10.956
REMARK  9 active torsions:
REMARK  status: ('A' for Active; 'I' for Inactive)
REMARK    1  A    between atoms: C_9  and  O_10 
REMARK    2  A    between atoms: O_10  and  C_11 
REMARK    3  A    between atoms: C_22  and  C_23 
REMARK    4  A    between atoms: N_30  and  C_31 
REMARK    5  A    between atoms: C_31  and  C_32 
REMARK    6  A    between atoms: C_32  and  O_33 
REMARK    7  A    between atoms: O_33  and  C_34 
REMARK    8  A    between atoms: C_35  and  C_36 
REMARK    9  A    between atoms: C_36  and  C_37 
ROOT
HETATM    1  H   UNL     1      38.363 -12.214   5.592  1.00  0.00     0.188 HD
HETATM    2  N   UNL     1      38.393 -11.522   6.347  1.00  0.00    -0.282 NA
HETATM    3  C   UNL     1      39.636 -11.212   6.578  1.00  0.00     0.155 C 
HETATM    4  N   UNL     1      40.700 -11.814   5.946  1.00  0.00    -0.230 N 
HETATM    5  C   UNL     1      42.002 -11.410   6.187  1.00  0.00     0.195 A 
HETATM    6  N   UNL     1      42.396 -10.429   6.919  1.00  0.00    -0.183 NA
HETATM    7  N   UNL     1      40.589 -12.939   5.125  1.00  0.00    -0.186 NA
HETATM    8  C   UNL     1      41.832 -13.467   4.784  1.00  0.00     0.094 A 
HETATM    9  C   UNL     1      42.053 -14.629   4.153  1.00  0.00     0.175 C 
HETATM   10  S   UNL     1      43.170 -12.461   5.364  1.00  0.00    -0.035 SA
HETATM   11  C   UNL     1      40.024 -10.158   7.580  1.00  0.00     0.082 C 
HETATM   12  C   UNL     1      41.438  -9.625   7.508  1.00  0.00     0.283 C 
HETATM   13  O   UNL     1      41.726  -8.510   7.923  1.00  0.00    -0.265 OA
HETATM   14  C   UNL     1      39.099  -9.789   8.487  1.00  0.00     0.034 C 
HETATM   15  H   UNL     1      39.957 -13.665   5.462  1.00  0.00     0.154 HD
ENDROOT
BRANCH  14  16
HETATM   16  C   UNL     1      39.236  -8.934   9.623  1.00  0.00    -0.007 A 
HETATM   17  C   UNL     1      39.016  -7.527   9.661  1.00  0.00     0.002 A 
HETATM   18  C   UNL     1      39.158  -7.113  10.995  1.00  0.00     0.045 A 
HETATM   19  C   UNL     1      38.695  -6.564   8.676  1.00  0.00     0.014 A 
HETATM   20  C   UNL     1      38.972  -5.767  11.356  1.00  0.00     0.030 A 
HETATM   21  N   UNL     1      39.472  -8.238  11.734  1.00  0.00    -0.353 N 
HETATM   22  C   UNL     1      38.661  -4.836  10.361  1.00  0.00     0.002 A 
HETATM   23  C   UNL     1      38.525  -5.226   9.036  1.00  0.00     0.001 A 
HETATM   24  C   UNL     1      39.485  -9.343  10.912  1.00  0.00     0.103 A 
BRANCH  21  25
HETATM   25  C   UNL     1      39.645  -8.357  13.177  1.00  0.00     0.155 C 
BRANCH  25  26
HETATM   26  C   UNL     1      40.666  -9.382  13.672  1.00  0.00     0.196 C 
BRANCH  26  27
HETATM   27  O   UNL     1      41.964  -8.817  13.480  1.00  0.00    -0.349 OA
BRANCH  27  28
HETATM   28  C   UNL     1      42.753  -9.286  12.469  1.00  0.00     0.075 A 
HETATM   29  C   UNL     1      43.171  -8.322  11.530  1.00  0.00    -0.021 A 
HETATM   30  C   UNL     1      44.013  -8.709  10.475  1.00  0.00     0.010 A 
HETATM   31  C   UNL     1      44.420 -10.035  10.343  1.00  0.00     0.001 A 
HETATM   32  C   UNL     1      43.994 -10.985  11.266  1.00  0.00     0.003 A 
HETATM   33  C   UNL     1      43.162 -10.614  12.327  1.00  0.00     0.037 A 
BRANCH  29  34
HETATM   34  C   UNL     1      42.739  -6.872  11.637  1.00  0.00     0.067 C 
BRANCH  34  35
HETATM   35  C   UNL     1      42.588  -6.106  10.349  1.00  0.00    -0.032 C 
HETATM   36  C   UNL     1      42.446  -4.783  10.187  1.00  0.00     0.007 C 
ENDBRANCH  34  35
ENDBRANCH  29  34
ENDBRANCH  27  28
ENDBRANCH  26  27
ENDBRANCH  25  26
ENDBRANCH  21  25
ENDBRANCH  14  16
BRANCH   9  37
HETATM   37  O   UNL     1      43.315 -15.115   3.893  1.00  0.00    -0.320 OA
BRANCH  37  38
HETATM   38  C   UNL     1      43.473 -16.461   3.654  1.00  0.00     0.081 A 
HETATM   39  C   UNL     1      44.043 -17.235   4.677  1.00  0.00    -0.028 A 
HETATM   40  C   UNL     1      44.482 -16.606   5.970  1.00  0.00     0.051 C 
HETATM   41  C   UNL     1      44.153 -18.620   4.499  1.00  0.00     0.009 A 
HETATM   42  C   UNL     1      43.706 -19.222   3.321  1.00  0.00     0.001 A 
HETATM   43  C   UNL     1      43.129 -18.447   2.316  1.00  0.00     0.003 A 
HETATM   44  C   UNL     1      43.000 -17.069   2.486  1.00  0.00     0.038 A 
ENDBRANCH  37  38
ENDBRANCH   9  37
TORSDOF 9
ENDMDL
MODEL 3
REMARK VINA RESULT:      -9.2      2.889     10.711
REMARK  9 active torsions:
REMARK  status: ('A' for Active; 'I' for Inactive)
REMARK    1  A    between atoms: C_9  and  O_10 
REMARK    2  A    between atoms: O_10  and  C_11 
REMARK    3  A    between atoms: C_22  and  C_23 
REMARK    4  A    between atoms: N_30  and  C_31 
REMARK    5  A    between atoms: C_31  and  C_32 
REMARK    6  A    between atoms: C_32  and  O_33 
REMARK    7  A    between atoms: O_33  and  C_34 
REMARK    8  A    between atoms: C_35  and  C_36 
REMARK    9  A    between atoms: C_36  and  C_37 
ROOT
HETATM    1  H   UNL     1      38.603 -14.091   2.421  1.00  0.00     0.188 HD
HETATM    2  N   UNL     1      38.605 -13.246   3.000  1.00  0.00    -0.282 NA
HETATM    3  C   UNL     1      39.825 -13.007   3.384  1.00  0.00     0.155 C 
HETATM    4  N   UNL     1      40.887 -13.838   3.107  1.00  0.00    -0.230 N 
HETATM    5  C   UNL     1      42.175 -13.512   3.492  1.00  0.00     0.195 A 
HETATM    6  N   UNL     1      42.576 -12.427   4.053  1.00  0.00    -0.183 NA
HETATM    7  N   UNL     1      40.758 -15.111   2.544  1.00  0.00    -0.186 NA
HETATM    8  C   UNL     1      41.958 -15.819   2.563  1.00  0.00     0.094 A 
HETATM    9  C   UNL     1      42.120 -17.112   2.252  1.00  0.00     0.175 C 
HETATM   10  S   UNL     1      43.309 -14.833   3.149  1.00  0.00    -0.035 SA
HETATM   11  C   UNL     1      40.186 -11.786   4.187  1.00  0.00     0.082 C 
HETATM   12  C   UNL     1      41.652 -11.420   4.264  1.00  0.00     0.283 C 
HETATM   13  O   UNL     1      42.016 -10.270   4.474  1.00  0.00    -0.265 OA
HETATM   14  C   UNL     1      39.186 -11.128   4.804  1.00  0.00     0.034 C 
HETATM   15  H   UNL     1      39.990 -15.674   2.908  1.00  0.00     0.154 HD
ENDROOT
BRANCH  14  16
HETATM   16  C   UNL     1      39.253 -10.045   5.733  1.00  0.00    -0.007 A 
HETATM   17  C   UNL     1      39.096  -8.659   5.437  1.00  0.00     0.002 A 
HETATM   18  C   UNL     1      39.128  -7.962   6.655  1.00  0.00     0.045 A 
HETATM   19  C   UNL     1      38.915  -7.934   4.237  1.00  0.00     0.014 A 
HETATM   20  C   UNL     1      38.971  -6.565   6.691  1.00  0.00     0.030 A 
HETATM   21  N   UNL     1      39.319  -8.900   7.651  1.00  0.00    -0.353 N 
HETATM   22  C   UNL     1      38.799  -5.872   5.488  1.00  0.00     0.002 A 
HETATM   23  C   UNL     1      38.772  -6.545   4.274  1.00  0.00     0.001 A 
HETATM   24  C   UNL     1      39.359 -10.161   7.098  1.00  0.00     0.103 A 
BRANCH  21  25
HETATM   25  C   UNL     1      39.347  -8.698   9.096  1.00  0.00     0.155 C 
BRANCH  25  26
HETATM   26  C   UNL     1      40.693  -8.325   9.719  1.00  0.00     0.196 C 
BRANCH  26  27
HETATM   27  O   UNL     1      41.488  -9.512   9.755  1.00  0.00    -0.349 OA
BRANCH  27  28
HETATM   28  C   UNL     1      42.835  -9.419   9.551  1.00  0.00     0.075 A 
HETATM   29  C   UNL     1      43.640  -9.765  10.655  1.00  0.00    -0.021 A 
HETATM   30  C   UNL     1      45.038  -9.731  10.525  1.00  0.00     0.010 A 
HETATM   31  C   UNL     1      45.628  -9.345   9.323  1.00  0.00     0.001 A 
HETATM   32  C   UNL     1      44.828  -8.993   8.241  1.00  0.00     0.003 A 
HETATM   33  C   UNL     1      43.435  -9.029   8.351  1.00  0.00     0.037 A 
BRANCH  29  34
HETATM   34  C   UNL     1      43.031 -10.180  11.980  1.00  0.00     0.067 C 
BRANCH  34  35
HETATM   35  C   UNL     1      42.603  -9.076  12.912  1.00  0.00    -0.032 C 
HETATM   36  C   UNL     1      43.241  -7.929  13.180  1.00  0.00     0.007 C 
ENDBRANCH  34  35
ENDBRANCH  29  34
ENDBRANCH  27  28
ENDBRANCH  26  27
ENDBRANCH  25  26
ENDBRANCH  21  25
ENDBRANCH  14  16
BRANCH   9  37
HETATM   37  O   UNL     1      43.331 -17.762   2.342  1.00  0.00    -0.320 OA
BRANCH  37  38
HETATM   38  C   UNL     1      43.521 -18.678   3.351  1.00  0.00     0.081 A 
HETATM   39  C   UNL     1      43.641 -20.027   2.982  1.00  0.00    -0.028 A 
HETATM   40  C   UNL     1      43.541 -20.448   1.543  1.00  0.00     0.051 C 
HETATM   41  C   UNL     1      43.909 -20.980   3.974  1.00  0.00     0.009 A 
HETATM   42  C   UNL     1      44.050 -20.595   5.308  1.00  0.00     0.001 A 
HETATM   43  C   UNL     1      43.943 -19.252   5.663  1.00  0.00     0.003 A 
HETATM   44  C   UNL     1      43.691 -18.290   4.684  1.00  0.00     0.038 A 
ENDBRANCH  37  38
ENDBRANCH   9  37
TORSDOF 9
ENDMDL
MODEL 4
REMARK VINA RESULT:      -9.1      2.551     11.553
REMARK  9 active torsions:
REMARK  status: ('A' for Active; 'I' for Inactive)
REMARK    1  A    between atoms: C_9  and  O_10 
REMARK    2  A    between atoms: O_10  and  C_11 
REMARK    3  A    between atoms: C_22  and  C_23 
REMARK    4  A    between atoms: N_30  and  C_31 
REMARK    5  A    between atoms: C_31  and  C_32 
REMARK    6  A    between atoms: C_32  and  O_33 
REMARK    7  A    between atoms: O_33  and  C_34 
REMARK    8  A    between atoms: C_35  and  C_36 
REMARK    9  A    between atoms: C_36  and  C_37 
ROOT
HETATM    1  H   UNL     1      38.681 -13.329   4.816  1.00  0.00     0.188 HD
HETATM    2  N   UNL     1      38.673 -12.541   5.471  1.00  0.00    -0.282 NA
HETATM    3  C   UNL     1      39.899 -12.267   5.810  1.00  0.00     0.155 C 
HETATM    4  N   UNL     1      40.985 -13.008   5.399  1.00  0.00    -0.230 N 
HETATM    5  C   UNL     1      42.275 -12.644   5.743  1.00  0.00     0.195 A 
HETATM    6  N   UNL     1      42.650 -11.592   6.381  1.00  0.00    -0.183 NA
HETATM    7  N   UNL     1      40.890 -14.230   4.729  1.00  0.00    -0.186 NA
HETATM    8  C   UNL     1      42.124 -14.867   4.617  1.00  0.00     0.094 A 
HETATM    9  C   UNL     1      42.335 -16.116   4.179  1.00  0.00     0.175 C 
HETATM   10  S   UNL     1      43.453 -13.861   5.219  1.00  0.00    -0.035 SA
HETATM   11  C   UNL     1      40.243 -11.105   6.702  1.00  0.00     0.082 C 
HETATM   12  C   UNL     1      41.689 -10.663   6.734  1.00  0.00     0.283 C 
HETATM   13  O   UNL     1      42.005  -9.518   7.029  1.00  0.00    -0.265 OA
HETATM   14  C   UNL     1      39.247 -10.563   7.430  1.00  0.00     0.034 C 
HETATM   15  H   UNL     1      40.175 -14.867   5.079  1.00  0.00     0.154 HD
ENDROOT
BRANCH  14  16
HETATM   16  C   UNL     1      39.312  -9.566   8.451  1.00  0.00    -0.007 A 
HETATM   17  C   UNL     1      39.103  -8.165   8.286  1.00  0.00     0.002 A 
HETATM   18  C   UNL     1      39.154  -7.579   9.560  1.00  0.00     0.045 A 
HETATM   19  C   UNL     1      38.860  -7.342   7.162  1.00  0.00     0.014 A 
HETATM   20  C   UNL     1      38.956  -6.197   9.727  1.00  0.00     0.030 A 
HETATM   21  N   UNL     1      39.406  -8.595  10.462  1.00  0.00    -0.353 N 
HETATM   22  C   UNL     1      38.724  -5.405   8.598  1.00  0.00     0.002 A 
HETATM   23  C   UNL     1      38.677  -5.968   7.329  1.00  0.00     0.001 A 
HETATM   24  C   UNL     1      39.467  -9.800   9.796  1.00  0.00     0.103 A 
BRANCH  21  25
HETATM   25  C   UNL     1      39.476  -8.522  11.917  1.00  0.00     0.155 C 
BRANCH  25  26
HETATM   26  C   UNL     1      39.755  -9.826  12.665  1.00  0.00     0.196 C 
BRANCH  26  27
HETATM   27  O   UNL     1      41.146  -9.840  12.993  1.00  0.00    -0.349 OA
BRANCH  27  28
HETATM   28  C   UNL     1      41.648  -8.871  13.813  1.00  0.00     0.075 A 
HETATM   29  C   UNL     1      42.805  -8.218  13.341  1.00  0.00    -0.021 A 
HETATM   30  C   UNL     1      43.370  -7.184  14.104  1.00  0.00     0.010 A 
HETATM   31  C   UNL     1      42.807  -6.813  15.323  1.00  0.00     0.001 A 
HETATM   32  C   UNL     1      41.673  -7.469  15.790  1.00  0.00     0.003 A 
HETATM   33  C   UNL     1      41.093  -8.496  15.039  1.00  0.00     0.037 A 
BRANCH  29  34
HETATM   34  C   UNL     1      43.449  -8.602  12.023  1.00  0.00     0.067 C 
BRANCH  34  35
HETATM   35  C   UNL     1      43.051  -7.803  10.809  1.00  0.00    -0.032 C 
HETATM   36  C   UNL     1      42.532  -6.568  10.768  1.00  0.00     0.007 C 
ENDBRANCH  34  35
ENDBRANCH  29  34
ENDBRANCH  27  28
ENDBRANCH  26  27
ENDBRANCH  25  26
ENDBRANCH  21  25
ENDBRANCH  14  16
BRANCH   9  37
HETATM   37  O   UNL     1      43.581 -16.700   4.144  1.00  0.00    -0.320 OA
BRANCH  37  38
HETATM   38  C   UNL     1      43.680 -18.039   3.844  1.00  0.00     0.081 A 
HETATM   39  C   UNL     1      43.775 -18.936   4.920  1.00  0.00    -0.028 A 
HETATM   40  C   UNL     1      43.790 -18.443   6.339  1.00  0.00     0.051 C 
HETATM   41  C   UNL     1      43.802 -20.312   4.656  1.00  0.00     0.009 A 
HETATM   42  C   UNL     1      43.741 -20.784   3.343  1.00  0.00     0.001 A 
HETATM   43  C   UNL     1      43.633 -19.887   2.283  1.00  0.00     0.003 A 
HETATM   44  C   UNL     1      43.590 -18.515   2.531  1.00  0.00     0.038 A 
ENDBRANCH  37  38
ENDBRANCH   9  37
TORSDOF 9
ENDMDL
MODEL 5
REMARK VINA RESULT:      -9.1      2.645      4.355
REMARK  9 active torsions:
REMARK  status: ('A' for Active; 'I' for Inactive)
REMARK    1  A    between atoms: C_9  and  O_10 
REMARK    2  A    between atoms: O_10  and  C_11 
REMARK    3  A    between atoms: C_22  and  C_23 
REMARK    4  A    between atoms: N_30  and  C_31 
REMARK    5  A    between atoms: C_31  and  C_32 
REMARK    6  A    between atoms: C_32  and  O_33 
REMARK    7  A    between atoms: O_33  and  C_34 
REMARK    8  A    between atoms: C_35  and  C_36 
REMARK    9  A    between atoms: C_36  and  C_37 
ROOT
HETATM    1  H   UNL     1      37.913  -9.081   6.648  1.00  0.00     0.188 HD
HETATM    2  N   UNL     1      38.088  -9.648   5.813  1.00  0.00    -0.282 NA
HETATM    3  C   UNL     1      39.322 -10.059   5.838  1.00  0.00     0.155 C 
HETATM    4  N   UNL     1      40.228  -9.687   6.807  1.00  0.00    -0.230 N 
HETATM    5  C   UNL     1      41.515 -10.195   6.820  1.00  0.00     0.195 A 
HETATM    6  N   UNL     1      42.014 -11.091   6.044  1.00  0.00    -0.183 NA
HETATM    7  N   UNL     1      39.989  -8.696   7.762  1.00  0.00    -0.186 NA
HETATM    8  C   UNL     1      41.137  -8.372   8.483  1.00  0.00     0.094 A 
HETATM    9  C   UNL     1      41.270  -7.354   9.344  1.00  0.00     0.175 C 
HETATM   10  S   UNL     1      42.503  -9.423   8.075  1.00  0.00    -0.035 SA
HETATM   11  C   UNL     1      39.880 -10.984   4.790  1.00  0.00     0.082 C 
HETATM   12  C   UNL     1      41.185 -11.680   5.107  1.00  0.00     0.283 C 
HETATM   13  O   UNL     1      41.490 -12.743   4.583  1.00  0.00    -0.265 OA
HETATM   14  C   UNL     1      39.196 -11.101   3.635  1.00  0.00     0.034 C 
HETATM   15  H   UNL     1      39.520  -7.859   7.416  1.00  0.00     0.154 HD
ENDROOT
BRANCH  14  16
HETATM   16  C   UNL     1      39.560 -11.780   2.433  1.00  0.00    -0.007 A 
HETATM   17  C   UNL     1      40.136 -11.197   1.267  1.00  0.00     0.002 A 
HETATM   18  C   UNL     1      40.430 -12.240   0.375  1.00  0.00     0.045 A 
HETATM   19  C   UNL     1      40.449  -9.869   0.894  1.00  0.00     0.014 A 
HETATM   20  C   UNL     1      41.037 -11.979  -0.866  1.00  0.00     0.030 A 
HETATM   21  N   UNL     1      40.024 -13.414   0.980  1.00  0.00    -0.353 N 
HETATM   22  C   UNL     1      41.329 -10.656  -1.211  1.00  0.00     0.002 A 
HETATM   23  C   UNL     1      41.039  -9.611  -0.344  1.00  0.00     0.001 A 
HETATM   24  C   UNL     1      39.530 -13.140   2.236  1.00  0.00     0.103 A 
BRANCH  21  25
HETATM   25  C   UNL     1      40.178 -14.784   0.501  1.00  0.00     0.155 C 
BRANCH  25  26
HETATM   26  C   UNL     1      39.853 -15.905   1.489  1.00  0.00     0.196 C 
BRANCH  26  27
HETATM   27  O   UNL     1      41.094 -16.475   1.910  1.00  0.00    -0.349 OA
BRANCH  27  28
HETATM   28  C   UNL     1      41.384 -16.533   3.243  1.00  0.00     0.075 A 
HETATM   29  C   UNL     1      42.608 -17.150   3.570  1.00  0.00    -0.021 A 
HETATM   30  C   UNL     1      43.003 -17.224   4.916  1.00  0.00     0.010 A 
HETATM   31  C   UNL     1      42.190 -16.707   5.922  1.00  0.00     0.001 A 
HETATM   32  C   UNL     1      40.976 -16.110   5.594  1.00  0.00     0.003 A 
HETATM   33  C   UNL     1      40.572 -16.021   4.258  1.00  0.00     0.037 A 
BRANCH  29  34
HETATM   34  C   UNL     1      43.513 -17.731   2.501  1.00  0.00     0.067 C 
BRANCH  34  35
HETATM   35  C   UNL     1      43.837 -19.199   2.603  1.00  0.00    -0.032 C 
HETATM   36  C   UNL     1      43.303 -20.212   1.907  1.00  0.00     0.007 C 
ENDBRANCH  34  35
ENDBRANCH  29  34
ENDBRANCH  27  28
ENDBRANCH  26  27
ENDBRANCH  25  26
ENDBRANCH  21  25
ENDBRANCH  14  16
BRANCH   9  37
HETATM   37  O   UNL     1      42.453  -7.061   9.985  1.00  0.00    -0.320 OA
BRANCH  37  38
HETATM   38  C   UNL     1      42.450  -6.913  11.353  1.00  0.00     0.081 A 
HETATM   39  C   UNL     1      43.138  -7.876  12.107  1.00  0.00    -0.028 A 
HETATM   40  C   UNL     1      43.828  -9.033  11.441  1.00  0.00     0.051 C 
HETATM   41  C   UNL     1      43.220  -7.718  13.497  1.00  0.00     0.009 A 
HETATM   42  C   UNL     1      42.622  -6.622  14.123  1.00  0.00     0.001 A 
HETATM   43  C   UNL     1      41.953  -5.664  13.364  1.00  0.00     0.003 A 
HETATM   44  C   UNL     1      41.877  -5.800  11.978  1.00  0.00     0.038 A 
ENDBRANCH  37  38
ENDBRANCH   9  37
TORSDOF 9
ENDMDL
MODEL 6
REMARK VINA RESULT:      -9.1      2.026      3.787
REMARK  9 active torsions:
REMARK  status: ('A' for Active; 'I' for Inactive)
REMARK    1  A    between atoms: C_9  and  O_10 
REMARK    2  A    between atoms: O_10  and  C_11 
REMARK    3  A    between atoms: C_22  and  C_23 
REMARK    4  A    between atoms: N_30  and  C_31 
REMARK    5  A    between atoms: C_31  and  C_32 
REMARK    6  A    between atoms: C_32  and  O_33 
REMARK    7  A    between atoms: O_33  and  C_34 
REMARK    8  A    between atoms: C_35  and  C_36 
REMARK    9  A    between atoms: C_36  and  C_37 
ROOT
HETATM    1  H   UNL     1      43.843  -6.663   9.095  1.00  0.00     0.188 HD
HETATM    2  N   UNL     1      43.816  -7.492   8.495  1.00  0.00    -0.282 NA
HETATM    3  C   UNL     1      42.686  -8.109   8.687  1.00  0.00     0.155 C 
HETATM    4  N   UNL     1      41.755  -7.718   9.623  1.00  0.00    -0.230 N 
HETATM    5  C   UNL     1      40.544  -8.375   9.752  1.00  0.00     0.195 A 
HETATM    6  N   UNL     1      40.088  -9.329   9.021  1.00  0.00    -0.183 NA
HETATM    7  N   UNL     1      41.984  -6.737  10.591  1.00  0.00    -0.186 NA
HETATM    8  C   UNL     1      40.963  -6.683  11.538  1.00  0.00     0.094 A 
HETATM    9  C   UNL     1      40.971  -5.970  12.673  1.00  0.00     0.175 C 
HETATM   10  S   UNL     1      39.618  -7.764  11.135  1.00  0.00    -0.035 SA
HETATM   11  C   UNL     1      42.295  -9.329   7.896  1.00  0.00     0.082 C 
HETATM   12  C   UNL     1      40.840  -9.740   7.935  1.00  0.00     0.283 C 
HETATM   13  O   UNL     1      40.330 -10.386   7.029  1.00  0.00    -0.265 OA
HETATM   14  C   UNL     1      43.272  -9.984   7.238  1.00  0.00     0.034 C 
HETATM   15  H   UNL     1      42.901  -6.767  11.036  1.00  0.00     0.154 HD
ENDROOT
BRANCH  14  16
HETATM   16  C   UNL     1      43.216 -11.229   6.542  1.00  0.00    -0.007 A 
HETATM   17  C   UNL     1      42.974 -11.416   5.150  1.00  0.00     0.002 A 
HETATM   18  C   UNL     1      43.114 -12.786   4.877  1.00  0.00     0.045 A 
HETATM   19  C   UNL     1      42.661 -10.535   4.088  1.00  0.00     0.014 A 
HETATM   20  C   UNL     1      42.959 -13.280   3.570  1.00  0.00     0.030 A 
HETATM   21  N   UNL     1      43.411 -13.406   6.075  1.00  0.00    -0.353 N 
HETATM   22  C   UNL     1      42.643 -12.388   2.541  1.00  0.00     0.002 A 
HETATM   23  C   UNL     1      42.494 -11.031   2.794  1.00  0.00     0.001 A 
HETATM   24  C   UNL     1      43.507 -12.463   7.074  1.00  0.00     0.103 A 
BRANCH  21  25
HETATM   25  C   UNL     1      43.726 -14.810   6.317  1.00  0.00     0.155 C 
BRANCH  25  26
HETATM   26  C   UNL     1      42.609 -15.683   6.890  1.00  0.00     0.196 C 
BRANCH  26  27
HETATM   27  O   UNL     1      42.411 -16.770   5.985  1.00  0.00    -0.349 OA
BRANCH  27  28
HETATM   28  C   UNL     1      41.858 -16.527   4.760  1.00  0.00     0.075 A 
HETATM   29  C   UNL     1      42.500 -17.151   3.672  1.00  0.00    -0.021 A 
HETATM   30  C   UNL     1      41.979 -16.983   2.378  1.00  0.00     0.010 A 
HETATM   31  C   UNL     1      40.849 -16.196   2.166  1.00  0.00     0.001 A 
HETATM   32  C   UNL     1      40.228 -15.571   3.243  1.00  0.00     0.003 A 
HETATM   33  C   UNL     1      40.729 -15.735   4.538  1.00  0.00     0.037 A 
BRANCH  29  34
HETATM   34  C   UNL     1      43.736 -18.008   3.866  1.00  0.00     0.067 C 
BRANCH  34  35
HETATM   35  C   UNL     1      44.154 -18.876   2.707  1.00  0.00    -0.032 C 
HETATM   36  C   UNL     1      43.787 -20.139   2.448  1.00  0.00     0.007 C 
ENDBRANCH  34  35
ENDBRANCH  29  34
ENDBRANCH  27  28
ENDBRANCH  26  27
ENDBRANCH  25  26
ENDBRANCH  21  25
ENDBRANCH  14  16
BRANCH   9  37
HETATM   37  O   UNL     1      39.946  -6.004  13.590  1.00  0.00    -0.320 OA
BRANCH  37  38
HETATM   38  C   UNL     1      40.201  -6.477  14.857  1.00  0.00     0.081 A 
HETATM   39  C   UNL     1      39.375  -6.018  15.895  1.00  0.00    -0.028 A 
HETATM   40  C   UNL     1      38.274  -5.031  15.630  1.00  0.00     0.051 C 
HETATM   41  C   UNL     1      39.558  -6.533  17.186  1.00  0.00     0.009 A 
HETATM   42  C   UNL     1      40.548  -7.486  17.436  1.00  0.00     0.001 A 
HETATM   43  C   UNL     1      41.353  -7.946  16.396  1.00  0.00     0.003 A 
HETATM   44  C   UNL     1      41.173  -7.453  15.103  1.00  0.00     0.038 A 
ENDBRANCH  37  38
ENDBRANCH   9  37
TORSDOF 9
ENDMDL
MODEL 7
REMARK VINA RESULT:      -8.9      2.346     11.729
REMARK  9 active torsions:
REMARK  status: ('A' for Active; 'I' for Inactive)
REMARK    1  A    between atoms: C_9  and  O_10 
REMARK    2  A    between atoms: O_10  and  C_11 
REMARK    3  A    between atoms: C_22  and  C_23 
REMARK    4  A    between atoms: N_30  and  C_31 
REMARK    5  A    between atoms: C_31  and  C_32 
REMARK    6  A    between atoms: C_32  and  O_33 
REMARK    7  A    between atoms: O_33  and  C_34 
REMARK    8  A    between atoms: C_35  and  C_36 
REMARK    9  A    between atoms: C_36  and  C_37 
ROOT
HETATM    1  H   UNL     1      37.972 -11.953   6.412  1.00  0.00     0.188 HD
HETATM    2  N   UNL     1      38.305 -11.186   7.004  1.00  0.00    -0.282 NA
HETATM    3  C   UNL     1      39.566 -10.983   6.756  1.00  0.00     0.155 C 
HETATM    4  N   UNL     1      40.306 -11.762   5.895  1.00  0.00    -0.230 N 
HETATM    5  C   UNL     1      41.631 -11.473   5.622  1.00  0.00     0.195 A 
HETATM    6  N   UNL     1      42.313 -10.461   6.028  1.00  0.00    -0.183 NA
HETATM    7  N   UNL     1      39.850 -12.956   5.331  1.00  0.00    -0.186 NA
HETATM    8  C   UNL     1      40.862 -13.649   4.671  1.00  0.00     0.094 A 
HETATM    9  C   UNL     1      40.781 -14.892   4.177  1.00  0.00     0.175 C 
HETATM   10  S   UNL     1      42.375 -12.729   4.614  1.00  0.00    -0.035 SA
HETATM   11  C   UNL     1      40.341  -9.868   7.404  1.00  0.00     0.082 C 
HETATM   12  C   UNL     1      41.669  -9.498   6.783  1.00  0.00     0.283 C 
HETATM   13  O   UNL     1      42.149  -8.379   6.912  1.00  0.00    -0.265 OA
HETATM   14  C   UNL     1      39.812  -9.301   8.507  1.00  0.00     0.034 C 
HETATM   15  H   UNL     1      39.333 -13.569   5.963  1.00  0.00     0.154 HD
ENDROOT
BRANCH  14  16
HETATM   16  C   UNL     1      40.387  -8.341   9.395  1.00  0.00    -0.007 A 
HETATM   17  C   UNL     1      41.473  -8.555  10.292  1.00  0.00     0.002 A 
HETATM   18  C   UNL     1      41.778  -7.321  10.887  1.00  0.00     0.045 A 
HETATM   19  C   UNL     1      42.238  -9.692  10.643  1.00  0.00     0.014 A 
HETATM   20  C   UNL     1      42.833  -7.206  11.809  1.00  0.00     0.030 A 
HETATM   21  N   UNL     1      40.886  -6.397  10.377  1.00  0.00    -0.353 N 
HETATM   22  C   UNL     1      43.569  -8.347  12.142  1.00  0.00     0.002 A 
HETATM   23  C   UNL     1      43.277  -9.577  11.568  1.00  0.00     0.001 A 
HETATM   24  C   UNL     1      40.069  -7.005   9.450  1.00  0.00     0.103 A 
BRANCH  21  25
HETATM   25  C   UNL     1      40.832  -4.959  10.617  1.00  0.00     0.155 C 
BRANCH  25  26
HETATM   26  C   UNL     1      39.656  -4.438  11.445  1.00  0.00     0.196 C 
BRANCH  26  27
HETATM   27  O   UNL     1      39.262  -5.486  12.332  1.00  0.00    -0.349 OA
BRANCH  27  28
HETATM   28  C   UNL     1      39.909  -5.630  13.525  1.00  0.00     0.075 A 
HETATM   29  C   UNL     1      39.984  -6.948  14.018  1.00  0.00    -0.021 A 
HETATM   30  C   UNL     1      40.662  -7.194  15.223  1.00  0.00     0.010 A 
HETATM   31  C   UNL     1      41.241  -6.147  15.937  1.00  0.00     0.001 A 
HETATM   32  C   UNL     1      41.152  -4.845  15.451  1.00  0.00     0.003 A 
HETATM   33  C   UNL     1      40.488  -4.585  14.249  1.00  0.00     0.037 A 
BRANCH  29  34
HETATM   34  C   UNL     1      39.357  -8.110  13.272  1.00  0.00     0.067 C 
BRANCH  34  35
HETATM   35  C   UNL     1      39.947  -9.475  13.514  1.00  0.00    -0.032 C 
HETATM   36  C   UNL     1      39.624 -10.631  12.916  1.00  0.00     0.007 C 
ENDBRANCH  34  35
ENDBRANCH  29  34
ENDBRANCH  27  28
ENDBRANCH  26  27
ENDBRANCH  25  26
ENDBRANCH  21  25
ENDBRANCH  14  16
BRANCH   9  37
HETATM   37  O   UNL     1      41.842 -15.534   3.579  1.00  0.00    -0.320 OA
BRANCH  37  38
HETATM   38  C   UNL     1      42.451 -16.574   4.245  1.00  0.00     0.081 A 
HETATM   39  C   UNL     1      43.206 -17.475   3.478  1.00  0.00    -0.028 A 
HETATM   40  C   UNL     1      43.321 -17.318   1.988  1.00  0.00     0.051 C 
HETATM   41  C   UNL     1      43.901 -18.503   4.130  1.00  0.00     0.009 A 
HETATM   42  C   UNL     1      43.840 -18.632   5.519  1.00  0.00     0.001 A 
HETATM   43  C   UNL     1      43.098 -17.724   6.272  1.00  0.00     0.003 A 
HETATM   44  C   UNL     1      42.414 -16.687   5.639  1.00  0.00     0.038 A 
ENDBRANCH  37  38
ENDBRANCH   9  37
TORSDOF 9
ENDMDL
MODEL 8
REMARK VINA RESULT:      -8.9      2.159      3.041
REMARK  9 active torsions:
REMARK  status: ('A' for Active; 'I' for Inactive)
REMARK    1  A    between atoms: C_9  and  O_10 
REMARK    2  A    between atoms: O_10  and  C_11 
REMARK    3  A    between atoms: C_22  and  C_23 
REMARK    4  A    between atoms: N_30  and  C_31 
REMARK    5  A    between atoms: C_31  and  C_32 
REMARK    6  A    between atoms: C_32  and  O_33 
REMARK    7  A    between atoms: O_33  and  C_34 
REMARK    8  A    between atoms: C_35  and  C_36 
REMARK    9  A    between atoms: C_36  and  C_37 
ROOT
HETATM    1  H   UNL     1      40.861  -7.170   5.475  1.00  0.00     0.188 HD
HETATM    2  N   UNL     1      40.957  -7.977   4.851  1.00  0.00    -0.282 NA
HETATM    3  C   UNL     1      40.511  -9.035   5.464  1.00  0.00     0.155 C 
HETATM    4  N   UNL     1      40.080  -9.030   6.772  1.00  0.00    -0.230 N 
HETATM    5  C   UNL     1      39.565 -10.170   7.363  1.00  0.00     0.195 A 
HETATM    6  N   UNL     1      39.342 -11.309   6.809  1.00  0.00    -0.183 NA
HETATM    7  N   UNL     1      40.234  -7.949   7.643  1.00  0.00    -0.186 NA
HETATM    8  C   UNL     1      39.904  -8.279   8.956  1.00  0.00     0.094 A 
HETATM    9  C   UNL     1      40.104  -7.515  10.039  1.00  0.00     0.175 C 
HETATM   10  S   UNL     1      39.243  -9.917   9.089  1.00  0.00    -0.035 SA
HETATM   11  C   UNL     1      40.437 -10.378   4.791  1.00  0.00     0.082 C 
HETATM   12  C   UNL     1      39.581 -11.436   5.453  1.00  0.00     0.283 C 
HETATM   13  O   UNL     1      39.087 -12.355   4.814  1.00  0.00    -0.265 OA
HETATM   14  C   UNL     1      41.161 -10.554   3.668  1.00  0.00     0.034 C 
HETATM   15  H   UNL     1      41.136  -7.474   7.596  1.00  0.00     0.154 HD
ENDROOT
BRANCH  14  16
HETATM   16  C   UNL     1      41.390 -11.747   2.916  1.00  0.00    -0.007 A 
HETATM   17  C   UNL     1      40.644 -12.198   1.789  1.00  0.00     0.002 A 
HETATM   18  C   UNL     1      41.278 -13.350   1.298  1.00  0.00     0.045 A 
HETATM   19  C   UNL     1      39.488 -11.719   1.130  1.00  0.00     0.014 A 
HETATM   20  C   UNL     1      40.785 -14.017   0.163  1.00  0.00     0.030 A 
HETATM   21  N   UNL     1      42.362 -13.595   2.120  1.00  0.00    -0.353 N 
HETATM   22  C   UNL     1      39.636 -13.525  -0.465  1.00  0.00     0.002 A 
HETATM   23  C   UNL     1      38.993 -12.391   0.011  1.00  0.00     0.001 A 
HETATM   24  C   UNL     1      42.450 -12.607   3.076  1.00  0.00     0.103 A 
BRANCH  21  25
HETATM   25  C   UNL     1      43.384 -14.628   1.992  1.00  0.00     0.155 C 
BRANCH  25  26
HETATM   26  C   UNL     1      42.902 -16.078   1.935  1.00  0.00     0.196 C 
BRANCH  26  27
HETATM   27  O   UNL     1      43.284 -16.702   3.163  1.00  0.00    -0.349 OA
BRANCH  27  28
HETATM   28  C   UNL     1      43.457 -18.055   3.198  1.00  0.00     0.075 A 
HETATM   29  C   UNL     1      43.968 -18.569   4.406  1.00  0.00    -0.021 A 
HETATM   30  C   UNL     1      44.146 -19.956   4.543  1.00  0.00     0.010 A 
HETATM   31  C   UNL     1      43.838 -20.817   3.492  1.00  0.00     0.001 A 
HETATM   32  C   UNL     1      43.347 -20.302   2.297  1.00  0.00     0.003 A 
HETATM   33  C   UNL     1      43.155 -18.926   2.147  1.00  0.00     0.037 A 
BRANCH  29  34
HETATM   34  C   UNL     1      44.322 -17.660   5.567  1.00  0.00     0.067 C 
BRANCH  34  35
HETATM   35  C   UNL     1      43.278 -17.484   6.640  1.00  0.00    -0.032 C 
HETATM   36  C   UNL     1      42.290 -16.580   6.689  1.00  0.00     0.007 C 
ENDBRANCH  34  35
ENDBRANCH  29  34
ENDBRANCH  27  28
ENDBRANCH  26  27
ENDBRANCH  25  26
ENDBRANCH  21  25
ENDBRANCH  14  16
BRANCH   9  37
HETATM   37  O   UNL     1      39.798  -7.928  11.317  1.00  0.00    -0.320 OA
BRANCH  37  38
HETATM   38  C   UNL     1      40.759  -7.826  12.297  1.00  0.00     0.081 A 
HETATM   39  C   UNL     1      40.945  -8.937  13.135  1.00  0.00    -0.028 A 
HETATM   40  C   UNL     1      40.108 -10.174  12.978  1.00  0.00     0.051 C 
HETATM   41  C   UNL     1      41.964  -8.898  14.096  1.00  0.00     0.009 A 
HETATM   42  C   UNL     1      42.779  -7.771  14.221  1.00  0.00     0.001 A 
HETATM   43  C   UNL     1      42.596  -6.679  13.375  1.00  0.00     0.003 A 
HETATM   44  C   UNL     1      41.595  -6.709  12.404  1.00  0.00     0.038 A 
ENDBRANCH  37  38
ENDBRANCH   9  37
TORSDOF 9
ENDMDL
MODEL 9
REMARK VINA RESULT:      -8.9      2.989     11.061
REMARK  9 active torsions:
REMARK  status: ('A' for Active; 'I' for Inactive)
REMARK    1  A    between atoms: C_9  and  O_10 
REMARK    2  A    between atoms: O_10  and  C_11 
REMARK    3  A    between atoms: C_22  and  C_23 
REMARK    4  A    between atoms: N_30  and  C_31 
REMARK    5  A    between atoms: C_31  and  C_32 
REMARK    6  A    between atoms: C_32  and  O_33 
REMARK    7  A    between atoms: O_33  and  C_34 
REMARK    8  A    between atoms: C_35  and  C_36 
REMARK    9  A    between atoms: C_36  and  C_37 
ROOT
HETATM    1  H   UNL     1      38.499 -14.141   2.394  1.00  0.00     0.188 HD
HETATM    2  N   UNL     1      38.497 -13.265   2.926  1.00  0.00    -0.282 NA
HETATM    3  C   UNL     1      39.720 -12.981   3.265  1.00  0.00     0.155 C 
HETATM    4  N   UNL     1      40.792 -13.805   3.007  1.00  0.00    -0.230 N 
HETATM    5  C   UNL     1      42.083 -13.433   3.341  1.00  0.00     0.195 A 
HETATM    6  N   UNL     1      42.474 -12.310   3.831  1.00  0.00    -0.183 NA
HETATM    7  N   UNL     1      40.677 -15.109   2.520  1.00  0.00    -0.186 NA
HETATM    8  C   UNL     1      41.892 -15.791   2.547  1.00  0.00     0.094 A 
HETATM    9  C   UNL     1      42.074 -17.097   2.304  1.00  0.00     0.175 C 
HETATM   10  S   UNL     1      43.235 -14.748   3.043  1.00  0.00    -0.035 SA
HETATM   11  C   UNL     1      40.075 -11.710   3.990  1.00  0.00     0.082 C 
HETATM   12  C   UNL     1      41.534 -11.311   4.010  1.00  0.00     0.283 C 
HETATM   13  O   UNL     1      41.879 -10.145   4.146  1.00  0.00    -0.265 OA
HETATM   14  C   UNL     1      39.076 -11.038   4.595  1.00  0.00     0.034 C 
HETATM   15  H   UNL     1      39.930 -15.667   2.933  1.00  0.00     0.154 HD
ENDROOT
BRANCH  14  16
HETATM   16  C   UNL     1      39.142  -9.904   5.460  1.00  0.00    -0.007 A 
HETATM   17  C   UNL     1      38.610  -8.607   5.205  1.00  0.00     0.002 A 
HETATM   18  C   UNL     1      38.805  -7.836   6.362  1.00  0.00     0.045 A 
HETATM   19  C   UNL     1      37.963  -8.021   4.093  1.00  0.00     0.014 A 
HETATM   20  C   UNL     1      38.357  -6.505   6.426  1.00  0.00     0.030 A 
HETATM   21  N   UNL     1      39.455  -8.641   7.278  1.00  0.00    -0.353 N 
HETATM   22  C   UNL     1      37.726  -5.949   5.309  1.00  0.00     0.002 A 
HETATM   23  C   UNL     1      37.530  -6.694   4.154  1.00  0.00     0.001 A 
HETATM   24  C   UNL     1      39.627  -9.900   6.746  1.00  0.00     0.103 A 
BRANCH  21  25
HETATM   25  C   UNL     1      39.816  -8.338   8.658  1.00  0.00     0.155 C 
BRANCH  25  26
HETATM   26  C   UNL     1      39.816  -9.504   9.648  1.00  0.00     0.196 C 
BRANCH  26  27
HETATM   27  O   UNL     1      41.145  -9.631  10.157  1.00  0.00    -0.349 OA
BRANCH  27  28
HETATM   28  C   UNL     1      41.380  -9.378  11.478  1.00  0.00     0.075 A 
HETATM   29  C   UNL     1      42.618  -8.770  11.767  1.00  0.00    -0.021 A 
HETATM   30  C   UNL     1      42.930  -8.443  13.097  1.00  0.00     0.010 A 
HETATM   31  C   UNL     1      42.035  -8.729  14.126  1.00  0.00     0.001 A 
HETATM   32  C   UNL     1      40.820  -9.342  13.836  1.00  0.00     0.003 A 
HETATM   33  C   UNL     1      40.491  -9.666  12.516  1.00  0.00     0.037 A 
BRANCH  29  34
HETATM   34  C   UNL     1      43.619  -8.452  10.673  1.00  0.00     0.067 C 
BRANCH  34  35
HETATM   35  C   UNL     1      44.637  -9.515  10.348  1.00  0.00    -0.032 C 
HETATM   36  C   UNL     1      45.681  -9.429   9.513  1.00  0.00     0.007 C 
ENDBRANCH  34  35
ENDBRANCH  29  34
ENDBRANCH  27  28
ENDBRANCH  26  27
ENDBRANCH  25  26
ENDBRANCH  21  25
ENDBRANCH  14  16
BRANCH   9  37
HETATM   37  O   UNL     1      43.299 -17.716   2.399  1.00  0.00    -0.320 OA
BRANCH  37  38
HETATM   38  C   UNL     1      43.501 -18.643   3.396  1.00  0.00     0.081 A 
HETATM   39  C   UNL     1      43.649 -19.984   3.009  1.00  0.00    -0.028 A 
HETATM   40  C   UNL     1      43.565 -20.387   1.564  1.00  0.00     0.051 C 
HETATM   41  C   UNL     1      43.929 -20.946   3.989  1.00  0.00     0.009 A 
HETATM   42  C   UNL     1      44.056 -20.577   5.330  1.00  0.00     0.001 A 
HETATM   43  C   UNL     1      43.921 -19.241   5.702  1.00  0.00     0.003 A 
HETATM   44  C   UNL     1      43.657 -18.271   4.736  1.00  0.00     0.038 A 
ENDBRANCH  37  38
ENDBRANCH   9  37
TORSDOF 9
ENDMDL
MODEL 10
REMARK VINA RESULT:      -8.8      2.389      3.656
REMARK  9 active torsions:
REMARK  status: ('A' for Active; 'I' for Inactive)
REMARK    1  A    between atoms: C_9  and  O_10 
REMARK    2  A    between atoms: O_10  and  C_11 
REMARK    3  A    between atoms: C_22  and  C_23 
REMARK    4  A    between atoms: N_30  and  C_31 
REMARK    5  A    between atoms: C_31  and  C_32 
REMARK    6  A    between atoms: C_32  and  O_33 
REMARK    7  A    between atoms: O_33  and  C_34 
REMARK    8  A    between atoms: C_35  and  C_36 
REMARK    9  A    between atoms: C_36  and  C_37 
ROOT
HETATM    1  H   UNL     1      38.025 -10.772   7.898  1.00  0.00     0.188 HD
HETATM    2  N   UNL     1      38.258 -11.208   7.000  1.00  0.00    -0.282 NA
HETATM    3  C   UNL     1      39.498 -10.936   6.714  1.00  0.00     0.155 C 
HETATM    4  N   UNL     1      40.293 -10.115   7.482  1.00  0.00    -0.230 N 
HETATM    5  C   UNL     1      41.623  -9.900   7.164  1.00  0.00     0.195 A 
HETATM    6  N   UNL     1      42.304 -10.452   6.224  1.00  0.00    -0.183 NA
HETATM    7  N   UNL     1      39.822  -9.341   8.546  1.00  0.00    -0.186 NA
HETATM    8  C   UNL     1      40.784  -8.450   9.015  1.00  0.00     0.094 A 
HETATM    9  C   UNL     1      40.588  -7.468   9.906  1.00  0.00     0.175 C 
HETATM   10  S   UNL     1      42.353  -8.681   8.225  1.00  0.00    -0.035 SA
HETATM   11  C   UNL     1      40.179 -11.495   5.494  1.00  0.00     0.082 C 
HETATM   12  C   UNL     1      41.689 -11.420   5.452  1.00  0.00     0.283 C 
HETATM   13  O   UNL     1      42.353 -12.204   4.786  1.00  0.00    -0.265 OA
HETATM   14  C   UNL     1      39.397 -11.992   4.516  1.00  0.00     0.034 C 
HETATM   15  H   UNL     1      38.930  -8.873   8.385  1.00  0.00     0.154 HD
ENDROOT
BRANCH  14  16
HETATM   16  C   UNL     1      39.758 -12.445   3.210  1.00  0.00    -0.007 A 
HETATM   17  C   UNL     1      40.102 -11.630   2.093  1.00  0.00     0.002 A 
HETATM   18  C   UNL     1      40.491 -12.487   1.051  1.00  0.00     0.045 A 
HETATM   19  C   UNL     1      40.130 -10.233   1.877  1.00  0.00     0.014 A 
HETATM   20  C   UNL     1      40.915 -11.972  -0.186  1.00  0.00     0.030 A 
HETATM   21  N   UNL     1      40.364 -13.779   1.524  1.00  0.00    -0.353 N 
HETATM   22  C   UNL     1      40.927 -10.586  -0.374  1.00  0.00     0.002 A 
HETATM   23  C   UNL     1      40.539  -9.725   0.643  1.00  0.00     0.001 A 
HETATM   24  C   UNL     1      39.955 -13.753   2.839  1.00  0.00     0.103 A 
BRANCH  21  25
HETATM   25  C   UNL     1      40.716 -15.029   0.857  1.00  0.00     0.155 C 
BRANCH  25  26
HETATM   26  C   UNL     1      40.989 -16.239   1.751  1.00  0.00     0.196 C 
BRANCH  26  27
HETATM   27  O   UNL     1      42.286 -16.061   2.325  1.00  0.00    -0.349 OA
BRANCH  27  28
HETATM   28  C   UNL     1      42.921 -17.133   2.883  1.00  0.00     0.075 A 
HETATM   29  C   UNL     1      43.341 -16.960   4.217  1.00  0.00    -0.021 A 
HETATM   30  C   UNL     1      43.974 -18.023   4.882  1.00  0.00     0.010 A 
HETATM   31  C   UNL     1      44.201 -19.233   4.229  1.00  0.00     0.001 A 
HETATM   32  C   UNL     1      43.795 -19.393   2.907  1.00  0.00     0.003 A 
HETATM   33  C   UNL     1      43.157 -18.348   2.234  1.00  0.00     0.037 A 
BRANCH  29  34
HETATM   34  C   UNL     1      43.119 -15.654   4.955  1.00  0.00     0.067 C 
BRANCH  34  35
HETATM   35  C   UNL     1      41.875 -15.549   5.798  1.00  0.00    -0.032 C 
HETATM   36  C   UNL     1      40.700 -16.168   5.616  1.00  0.00     0.007 C 
ENDBRANCH  34  35
ENDBRANCH  29  34
ENDBRANCH  27  28
ENDBRANCH  26  27
ENDBRANCH  25  26
ENDBRANCH  21  25
ENDBRANCH  14  16
BRANCH   9  37
HETATM   37  O   UNL     1      41.577  -6.590  10.288  1.00  0.00    -0.320 OA
BRANCH  37  38
HETATM   38  C   UNL     1      42.144  -6.726  11.534  1.00  0.00     0.081 A 
HETATM   39  C   UNL     1      41.987  -5.660  12.434  1.00  0.00    -0.028 A 
HETATM   40  C   UNL     1      41.247  -4.414  12.037  1.00  0.00     0.051 C 
HETATM   41  C   UNL     1      42.487  -5.793  13.736  1.00  0.00     0.009 A 
HETATM   42  C   UNL     1      43.135  -6.965  14.132  1.00  0.00     0.001 A 
HETATM   43  C   UNL     1      43.274  -8.023  13.235  1.00  0.00     0.003 A 
HETATM   44  C   UNL     1      42.768  -7.911  11.940  1.00  0.00     0.038 A 
ENDBRANCH  37  38
ENDBRANCH   9  37
TORSDOF 9
ENDMDL
