MODEL 1
REMARK VINA RESULT:      -8.5      0.000      0.000
REMARK  6 active torsions:
REMARK  status: ('A' for Active; 'I' for Inactive)
REMARK    1  A    between atoms: C_7  and  S_8 
REMARK    2  A    between atoms: S_8  and  C_9 
REMARK    3  A    between atoms: C_9  and  C_10 
REMARK    4  A    between atoms: C_18  and  C_19 
REMARK    5  A    between atoms: C_27  and  C_28 
REMARK    6  A    between atoms: C_28  and  O_29 
ROOT
HETATM    1  C   UNL     1      42.937 -11.108   6.846  1.00  0.00     0.070 C 
HETATM    2  C   UNL     1      42.044 -11.819   5.862  1.00  0.00     0.037 A 
HETATM    3  N   UNL     1      41.210 -11.000   5.106  1.00  0.00    -0.192 N 
HETATM    4  C   UNL     1      40.358 -11.464   4.174  1.00  0.00     0.726 A 
HETATM    5  N   UNL     1      40.253 -12.812   3.976  1.00  0.00    -0.082 N 
HETATM    6  N   UNL     1      39.327 -13.103   3.041  1.00  0.00    -0.128 NA
HETATM    7  C   UNL     1      38.969 -11.870   2.654  1.00  0.00     0.226 A 
HETATM    8  N   UNL     1      39.558 -10.842   3.350  1.00  0.00    -0.035 NA
HETATM    9  C   UNL     1      41.047 -13.819   4.698  1.00  0.00     0.208 A 
HETATM   10  C   UNL     1      41.996 -13.165   5.697  1.00  0.00     0.070 A 
HETATM   11  H   UNL     1      41.315  -9.994   5.213  1.00  0.00     0.184 HD
ENDROOT
BRANCH   7  12
HETATM   12  S   UNL     1      37.868 -11.567   1.341  1.00  0.00    -0.083 SA
BRANCH  12  13
HETATM   13  C   UNL     1      39.002 -11.513  -0.074  1.00  0.00     0.123 C 
BRANCH  13  14
HETATM   14  C   UNL     1      38.684 -12.602  -1.075  1.00  0.00    -0.027 A 
HETATM   15  C   UNL     1      39.378 -13.824  -1.117  1.00  0.00     0.041 A 
HETATM   16 CL   UNL     1      40.649 -14.201  -0.007  1.00  0.00    -0.084 Cl
HETATM   17  C   UNL     1      39.058 -14.791  -2.076  1.00  0.00     0.024 A 
HETATM   18  C   UNL     1      38.052 -14.550  -3.010  1.00  0.00     0.002 A 
HETATM   19  C   UNL     1      37.363 -13.341  -2.990  1.00  0.00     0.001 A 
HETATM   20  C   UNL     1      37.675 -12.375  -2.030  1.00  0.00     0.009 A 
ENDBRANCH  13  14
ENDBRANCH  12  13
ENDBRANCH   7  12
BRANCH   9  21
HETATM   21  C   UNL     1      41.734 -14.731   3.691  1.00  0.00     0.032 A 
HETATM   22  C   UNL     1      42.792 -14.305   2.871  1.00  0.00     0.045 A 
HETATM   23 CL   UNL     1      43.388 -12.683   2.895  1.00  0.00    -0.084 Cl
HETATM   24  C   UNL     1      43.415 -15.194   1.984  1.00  0.00     0.024 A 
HETATM   25  C   UNL     1      42.998 -16.521   1.901  1.00  0.00     0.005 A 
HETATM   26  C   UNL     1      41.955 -16.962   2.706  1.00  0.00     0.043 A 
HETATM   27  C   UNL     1      41.341 -16.074   3.586  1.00  0.00     0.126 A 
HETATM   28  F   UNL     1      40.343 -16.538   4.353  1.00  0.00    -0.205 F 
ENDBRANCH   9  21
BRANCH  10  29
HETATM   29  C   UNL     1      42.888 -14.069   6.449  1.00  0.00     0.293 C 
HETATM   30  O   UNL     1      44.106 -14.058   6.379  1.00  0.00    -0.259 OA
BRANCH  29  31
HETATM   31  O   UNL     1      42.139 -14.907   7.205  1.00  0.00    -0.323 OA
HETATM   32  C   UNL     1      42.573 -16.268   7.162  1.00  0.00     0.213 C 
ENDBRANCH  29  31
ENDBRANCH  10  29
TORSDOF 6
ENDMDL
MODEL 2
REMARK VINA RESULT:      -8.2      1.342      1.593
REMARK  6 active torsions:
REMARK  status: ('A' for Active; 'I' for Inactive)
REMARK    1  A    between atoms: C_7  and  S_8 
REMARK    2  A    between atoms: S_8  and  C_9 
REMARK    3  A    between atoms: C_9  and  C_10 
REMARK    4  A    between atoms: C_18  and  C_19 
REMARK    5  A    between atoms: C_27  and  C_28 
REMARK    6  A    between atoms: C_28  and  O_29 
ROOT
HETATM    1  C   UNL     1      43.268 -10.743   6.666  1.00  0.00     0.070 C 
HETATM    2  C   UNL     1      42.340 -11.506   5.756  1.00  0.00     0.037 A 
HETATM    3  N   UNL     1      41.506 -10.728   4.958  1.00  0.00    -0.192 N 
HETATM    4  C   UNL     1      40.625 -11.243   4.081  1.00  0.00     0.726 A 
HETATM    5  N   UNL     1      40.491 -12.599   3.986  1.00  0.00    -0.082 N 
HETATM    6  N   UNL     1      39.539 -12.939   3.094  1.00  0.00    -0.128 NA
HETATM    7  C   UNL     1      39.197 -11.732   2.623  1.00  0.00     0.226 A 
HETATM    8  N   UNL     1      39.820 -10.667   3.228  1.00  0.00    -0.035 NA
HETATM    9  C   UNL     1      41.280 -13.566   4.765  1.00  0.00     0.208 A 
HETATM   10  C   UNL     1      42.262 -12.859   5.693  1.00  0.00     0.070 A 
HETATM   11  H   UNL     1      41.633  -9.720   4.987  1.00  0.00     0.184 HD
ENDROOT
BRANCH   7  12
HETATM   12  S   UNL     1      38.074 -11.504   1.313  1.00  0.00    -0.083 SA
BRANCH  12  13
HETATM   13  C   UNL     1      39.186 -11.520  -0.120  1.00  0.00     0.123 C 
BRANCH  13  14
HETATM   14  C   UNL     1      38.798 -12.601  -1.105  1.00  0.00    -0.027 A 
HETATM   15  C   UNL     1      39.393 -13.874  -1.110  1.00  0.00     0.041 A 
HETATM   16 CL   UNL     1      40.610 -14.328   0.030  1.00  0.00    -0.084 Cl
HETATM   17  C   UNL     1      39.012 -14.833  -2.055  1.00  0.00     0.024 A 
HETATM   18  C   UNL     1      38.045 -14.533  -3.012  1.00  0.00     0.002 A 
HETATM   19  C   UNL     1      37.454 -13.273  -3.028  1.00  0.00     0.001 A 
HETATM   20  C   UNL     1      37.827 -12.315  -2.083  1.00  0.00     0.009 A 
ENDBRANCH  13  14
ENDBRANCH  12  13
ENDBRANCH   7  12
BRANCH   9  21
HETATM   21  C   UNL     1      41.928 -14.565   3.816  1.00  0.00     0.032 A 
HETATM   22  C   UNL     1      41.599 -15.929   3.800  1.00  0.00     0.045 A 
HETATM   23 CL   UNL     1      40.450 -16.618   4.893  1.00  0.00    -0.084 Cl
HETATM   24  C   UNL     1      42.200 -16.803   2.883  1.00  0.00     0.024 A 
HETATM   25  C   UNL     1      43.136 -16.331   1.965  1.00  0.00     0.005 A 
HETATM   26  C   UNL     1      43.473 -14.983   1.963  1.00  0.00     0.043 A 
HETATM   27  C   UNL     1      42.871 -14.121   2.876  1.00  0.00     0.126 A 
HETATM   28  F   UNL     1      43.217 -12.826   2.839  1.00  0.00    -0.205 F 
ENDBRANCH   9  21
BRANCH  10  29
HETATM   29  C   UNL     1      43.153 -13.723   6.493  1.00  0.00     0.293 C 
HETATM   30  O   UNL     1      44.372 -13.698   6.444  1.00  0.00    -0.259 OA
BRANCH  29  31
HETATM   31  O   UNL     1      42.402 -14.544   7.266  1.00  0.00    -0.323 OA
HETATM   32  C   UNL     1      43.059 -15.761   7.624  1.00  0.00     0.213 C 
ENDBRANCH  29  31
ENDBRANCH  10  29
TORSDOF 6
ENDMDL
MODEL 3
REMARK VINA RESULT:      -8.0      4.208      7.976
REMARK  6 active torsions:
REMARK  status: ('A' for Active; 'I' for Inactive)
REMARK    1  A    between atoms: C_7  and  S_8 
REMARK    2  A    between atoms: S_8  and  C_9 
REMARK    3  A    between atoms: C_9  and  C_10 
REMARK    4  A    between atoms: C_18  and  C_19 
REMARK    5  A    between atoms: C_27  and  C_28 
REMARK    6  A    between atoms: C_28  and  O_29 
ROOT
HETATM    1  C   UNL     1      38.640 -14.576  -3.305  1.00  0.00     0.070 C 
HETATM    2  C   UNL     1      38.906 -14.026  -1.926  1.00  0.00     0.037 A 
HETATM    3  N   UNL     1      39.528 -14.900  -1.040  1.00  0.00    -0.192 N 
HETATM    4  C   UNL     1      39.849 -14.572   0.225  1.00  0.00     0.726 A 
HETATM    5  N   UNL     1      39.513 -13.337   0.701  1.00  0.00    -0.082 N 
HETATM    6  N   UNL     1      39.870 -13.192   1.992  1.00  0.00    -0.128 NA
HETATM    7  C   UNL     1      40.496 -14.357   2.210  1.00  0.00     0.226 A 
HETATM    8  N   UNL     1      40.474 -15.240   1.157  1.00  0.00    -0.035 NA
HETATM    9  C   UNL     1      38.841 -12.297  -0.094  1.00  0.00     0.208 A 
HETATM   10  C   UNL     1      38.564 -12.780  -1.514  1.00  0.00     0.070 A 
HETATM   11  H   UNL     1      39.824 -15.804  -1.399  1.00  0.00     0.184 HD
ENDROOT
BRANCH   7  12
HETATM   12  S   UNL     1      41.319 -14.734   3.697  1.00  0.00    -0.083 SA
BRANCH  12  13
HETATM   13  C   UNL     1      42.980 -15.142   3.094  1.00  0.00     0.123 C 
BRANCH  13  14
HETATM   14  C   UNL     1      43.318 -16.593   3.354  1.00  0.00    -0.027 A 
HETATM   15  C   UNL     1      43.821 -17.050   4.585  1.00  0.00     0.041 A 
HETATM   16 CL   UNL     1      44.077 -15.989   5.926  1.00  0.00    -0.084 Cl
HETATM   17  C   UNL     1      44.136 -18.401   4.767  1.00  0.00     0.024 A 
HETATM   18  C   UNL     1      43.966 -19.310   3.726  1.00  0.00     0.002 A 
HETATM   19  C   UNL     1      43.480 -18.873   2.497  1.00  0.00     0.001 A 
HETATM   20  C   UNL     1      43.158 -17.527   2.312  1.00  0.00     0.009 A 
ENDBRANCH  13  14
ENDBRANCH  12  13
ENDBRANCH   7  12
BRANCH   9  21
HETATM   21  C   UNL     1      39.648 -11.009  -0.021  1.00  0.00     0.032 A 
HETATM   22  C   UNL     1      39.182  -9.850   0.622  1.00  0.00     0.045 A 
HETATM   23 CL   UNL     1      37.621  -9.763   1.357  1.00  0.00    -0.084 Cl
HETATM   24  C   UNL     1      39.978  -8.698   0.691  1.00  0.00     0.024 A 
HETATM   25  C   UNL     1      41.252  -8.682   0.126  1.00  0.00     0.005 A 
HETATM   26  C   UNL     1      41.731  -9.820  -0.512  1.00  0.00     0.043 A 
HETATM   27  C   UNL     1      40.936 -10.961  -0.577  1.00  0.00     0.126 A 
HETATM   28  F   UNL     1      41.436 -12.041  -1.193  1.00  0.00    -0.205 F 
ENDBRANCH   9  21
BRANCH  10  29
HETATM   29  C   UNL     1      37.937 -11.806  -2.431  1.00  0.00     0.293 C 
HETATM   30  O   UNL     1      36.758 -11.495  -2.412  1.00  0.00    -0.259 OA
BRANCH  29  31
HETATM   31  O   UNL     1      38.873 -11.337  -3.290  1.00  0.00    -0.323 OA
HETATM   32  C   UNL     1      38.811  -9.924  -3.496  1.00  0.00     0.213 C 
ENDBRANCH  29  31
ENDBRANCH  10  29
TORSDOF 6
ENDMDL
MODEL 4
REMARK VINA RESULT:      -7.7      4.322      6.690
REMARK  6 active torsions:
REMARK  status: ('A' for Active; 'I' for Inactive)
REMARK    1  A    between atoms: C_7  and  S_8 
REMARK    2  A    between atoms: S_8  and  C_9 
REMARK    3  A    between atoms: C_9  and  C_10 
REMARK    4  A    between atoms: C_18  and  C_19 
REMARK    5  A    between atoms: C_27  and  C_28 
REMARK    6  A    between atoms: C_28  and  O_29 
ROOT
HETATM    1  C   UNL     1      39.844 -10.264   3.577  1.00  0.00     0.070 C 
HETATM    2  C   UNL     1      40.596 -11.163   4.526  1.00  0.00     0.037 A 
HETATM    3  N   UNL     1      40.506 -12.526   4.261  1.00  0.00    -0.192 N 
HETATM    4  C   UNL     1      41.122 -13.469   4.998  1.00  0.00     0.726 A 
HETATM    5  N   UNL     1      41.839 -13.094   6.098  1.00  0.00    -0.082 N 
HETATM    6  N   UNL     1      42.351 -14.163   6.740  1.00  0.00    -0.128 NA
HETATM    7  C   UNL     1      41.970 -15.152   5.920  1.00  0.00     0.226 A 
HETATM    8  N   UNL     1      41.188 -14.766   4.859  1.00  0.00    -0.035 NA
HETATM    9  C   UNL     1      42.024 -11.701   6.531  1.00  0.00     0.208 A 
HETATM   10  C   UNL     1      41.308 -10.731   5.596  1.00  0.00     0.070 A 
HETATM   11  H   UNL     1      40.015 -12.811   3.417  1.00  0.00     0.184 HD
ENDROOT
BRANCH   7  12
HETATM   12  S   UNL     1      42.451 -16.811   6.140  1.00  0.00    -0.083 SA
BRANCH  12  13
HETATM   13  C   UNL     1      43.859 -16.930   5.002  1.00  0.00     0.123 C 
BRANCH  13  14
HETATM   14  C   UNL     1      43.802 -18.205   4.190  1.00  0.00    -0.027 A 
HETATM   15  C   UNL     1      43.421 -18.230   2.838  1.00  0.00     0.041 A 
HETATM   16 CL   UNL     1      43.002 -16.794   1.972  1.00  0.00    -0.084 Cl
HETATM   17  C   UNL     1      43.366 -19.440   2.137  1.00  0.00     0.024 A 
HETATM   18  C   UNL     1      43.679 -20.638   2.775  1.00  0.00     0.002 A 
HETATM   19  C   UNL     1      44.048 -20.633   4.117  1.00  0.00     0.001 A 
HETATM   20  C   UNL     1      44.110 -19.427   4.819  1.00  0.00     0.009 A 
ENDBRANCH  13  14
ENDBRANCH  12  13
ENDBRANCH   7  12
BRANCH   9  21
HETATM   21  C   UNL     1      43.511 -11.420   6.699  1.00  0.00     0.032 A 
HETATM   22  C   UNL     1      44.429 -11.505   5.640  1.00  0.00     0.045 A 
HETATM   23 CL   UNL     1      43.964 -11.982   4.045  1.00  0.00    -0.084 Cl
HETATM   24  C   UNL     1      45.784 -11.204   5.839  1.00  0.00     0.024 A 
HETATM   25  C   UNL     1      46.246 -10.810   7.093  1.00  0.00     0.005 A 
HETATM   26  C   UNL     1      45.351 -10.718   8.153  1.00  0.00     0.043 A 
HETATM   27  C   UNL     1      44.007 -11.018   7.948  1.00  0.00     0.126 A 
HETATM   28  F   UNL     1      43.173 -10.909   8.993  1.00  0.00    -0.205 F 
ENDBRANCH   9  21
BRANCH  10  29
HETATM   29  C   UNL     1      41.462  -9.293   5.894  1.00  0.00     0.293 C 
HETATM   30  O   UNL     1      41.978  -8.480   5.144  1.00  0.00    -0.259 OA
BRANCH  29  31
HETATM   31  O   UNL     1      40.954  -9.035   7.123  1.00  0.00    -0.323 OA
HETATM   32  C   UNL     1      39.550  -8.766   7.123  1.00  0.00     0.213 C 
ENDBRANCH  29  31
ENDBRANCH  10  29
TORSDOF 6
ENDMDL
MODEL 5
REMARK VINA RESULT:      -7.7      4.226      7.966
REMARK  6 active torsions:
REMARK  status: ('A' for Active; 'I' for Inactive)
REMARK    1  A    between atoms: C_7  and  S_8 
REMARK    2  A    between atoms: S_8  and  C_9 
REMARK    3  A    between atoms: C_9  and  C_10 
REMARK    4  A    between atoms: C_18  and  C_19 
REMARK    5  A    between atoms: C_27  and  C_28 
REMARK    6  A    between atoms: C_28  and  O_29 
ROOT
HETATM    1  C   UNL     1      37.731 -13.952  -2.925  1.00  0.00     0.070 C 
HETATM    2  C   UNL     1      38.532 -13.431  -1.759  1.00  0.00     0.037 A 
HETATM    3  N   UNL     1      39.342 -14.365  -1.120  1.00  0.00    -0.192 N 
HETATM    4  C   UNL     1      40.131 -14.070  -0.071  1.00  0.00     0.726 A 
HETATM    5  N   UNL     1      40.117 -12.805   0.442  1.00  0.00    -0.082 N 
HETATM    6  N   UNL     1      40.930 -12.696   1.511  1.00  0.00    -0.128 NA
HETATM    7  C   UNL     1      41.472 -13.922   1.537  1.00  0.00     0.226 A 
HETATM    8  N   UNL     1      40.981 -14.800   0.601  1.00  0.00    -0.035 NA
HETATM    9  C   UNL     1      39.310 -11.701  -0.101  1.00  0.00     0.208 A 
HETATM   10  C   UNL     1      38.490 -12.154  -1.304  1.00  0.00     0.070 A 
HETATM   11  H   UNL     1      39.395 -15.297  -1.524  1.00  0.00     0.184 HD
ENDROOT
BRANCH   7  12
HETATM   12  S   UNL     1      42.735 -14.382   2.642  1.00  0.00    -0.083 SA
BRANCH  12  13
HETATM   13  C   UNL     1      41.931 -15.716   3.571  1.00  0.00     0.123 C 
BRANCH  13  14
HETATM   14  C   UNL     1      42.696 -17.014   3.444  1.00  0.00    -0.027 A 
HETATM   15  C   UNL     1      43.671 -17.418   4.372  1.00  0.00     0.041 A 
HETATM   16 CL   UNL     1      44.067 -16.471   5.763  1.00  0.00    -0.084 Cl
HETATM   17  C   UNL     1      44.366 -18.620   4.197  1.00  0.00     0.024 A 
HETATM   18  C   UNL     1      44.107 -19.428   3.092  1.00  0.00     0.002 A 
HETATM   19  C   UNL     1      43.153 -19.038   2.157  1.00  0.00     0.001 A 
HETATM   20  C   UNL     1      42.453 -17.842   2.330  1.00  0.00     0.009 A 
ENDBRANCH  13  14
ENDBRANCH  12  13
ENDBRANCH   7  12
BRANCH   9  21
HETATM   21  C   UNL     1      40.214 -10.507  -0.377  1.00  0.00     0.032 A 
HETATM   22  C   UNL     1      41.179 -10.499  -1.397  1.00  0.00     0.045 A 
HETATM   23 CL   UNL     1      41.465 -11.867  -2.413  1.00  0.00    -0.084 Cl
HETATM   24  C   UNL     1      41.964  -9.362  -1.633  1.00  0.00     0.024 A 
HETATM   25  C   UNL     1      41.798  -8.213  -0.860  1.00  0.00     0.005 A 
HETATM   26  C   UNL     1      40.846  -8.202   0.152  1.00  0.00     0.043 A 
HETATM   27  C   UNL     1      40.069  -9.335   0.380  1.00  0.00     0.126 A 
HETATM   28  F   UNL     1      39.156  -9.282   1.360  1.00  0.00    -0.205 F 
ENDBRANCH   9  21
BRANCH  10  29
HETATM   29  C   UNL     1      37.674 -11.121  -1.974  1.00  0.00     0.293 C 
HETATM   30  O   UNL     1      37.930 -10.634  -3.063  1.00  0.00    -0.259 OA
BRANCH  29  31
HETATM   31  O   UNL     1      36.622 -10.801  -1.183  1.00  0.00    -0.323 OA
HETATM   32  C   UNL     1      36.401  -9.395  -1.057  1.00  0.00     0.213 C 
ENDBRANCH  29  31
ENDBRANCH  10  29
TORSDOF 6
ENDMDL
MODEL 6
REMARK VINA RESULT:      -7.7      3.601      7.116
REMARK  6 active torsions:
REMARK  status: ('A' for Active; 'I' for Inactive)
REMARK    1  A    between atoms: C_7  and  S_8 
REMARK    2  A    between atoms: S_8  and  C_9 
REMARK    3  A    between atoms: C_9  and  C_10 
REMARK    4  A    between atoms: C_18  and  C_19 
REMARK    5  A    between atoms: C_27  and  C_28 
REMARK    6  A    between atoms: C_28  and  O_29 
ROOT
HETATM    1  C   UNL     1      39.687 -13.196  -0.231  1.00  0.00     0.070 C 
HETATM    2  C   UNL     1      39.889 -13.368   1.253  1.00  0.00     0.037 A 
HETATM    3  N   UNL     1      40.504 -14.554   1.643  1.00  0.00    -0.192 N 
HETATM    4  C   UNL     1      40.772 -14.866   2.924  1.00  0.00     0.726 A 
HETATM    5  N   UNL     1      40.384 -14.011   3.915  1.00  0.00    -0.082 N 
HETATM    6  N   UNL     1      40.691 -14.497   5.134  1.00  0.00    -0.128 NA
HETATM    7  C   UNL     1      41.343 -15.619   4.798  1.00  0.00     0.226 A 
HETATM    8  N   UNL     1      41.383 -15.893   3.452  1.00  0.00    -0.035 NA
HETATM    9  C   UNL     1      39.710 -12.724   3.683  1.00  0.00     0.208 A 
HETATM   10  C   UNL     1      39.496 -12.473   2.193  1.00  0.00     0.070 A 
HETATM   11  H   UNL     1      40.839 -15.174   0.910  1.00  0.00     0.184 HD
ENDROOT
BRANCH   7  12
HETATM   12  S   UNL     1      42.124 -16.652   5.961  1.00  0.00    -0.083 SA
BRANCH  12  13
HETATM   13  C   UNL     1      43.713 -16.972   5.147  1.00  0.00     0.123 C 
BRANCH  13  14
HETATM   14  C   UNL     1      43.788 -18.389   4.623  1.00  0.00    -0.027 A 
HETATM   15  C   UNL     1      43.737 -18.698   3.254  1.00  0.00     0.041 A 
HETATM   16 CL   UNL     1      43.607 -17.477   2.037  1.00  0.00    -0.084 Cl
HETATM   17  C   UNL     1      43.790 -20.029   2.822  1.00  0.00     0.024 A 
HETATM   18  C   UNL     1      43.883 -21.066   3.748  1.00  0.00     0.002 A 
HETATM   19  C   UNL     1      43.923 -20.777   5.109  1.00  0.00     0.001 A 
HETATM   20  C   UNL     1      43.876 -19.451   5.544  1.00  0.00     0.009 A 
ENDBRANCH  13  14
ENDBRANCH  12  13
ENDBRANCH   7  12
BRANCH   9  21
HETATM   21  C   UNL     1      40.476 -11.620   4.397  1.00  0.00     0.032 A 
HETATM   22  C   UNL     1      41.778 -11.236   4.038  1.00  0.00     0.045 A 
HETATM   23 CL   UNL     1      42.657 -12.016   2.771  1.00  0.00    -0.084 Cl
HETATM   24  C   UNL     1      42.428 -10.189   4.705  1.00  0.00     0.024 A 
HETATM   25  C   UNL     1      41.792  -9.505   5.739  1.00  0.00     0.005 A 
HETATM   26  C   UNL     1      40.502  -9.868   6.107  1.00  0.00     0.043 A 
HETATM   27  C   UNL     1      39.861 -10.909   5.439  1.00  0.00     0.126 A 
HETATM   28  F   UNL     1      38.614 -11.224   5.818  1.00  0.00    -0.205 F 
ENDBRANCH   9  21
BRANCH  10  29
HETATM   29  C   UNL     1      38.874 -11.186   1.824  1.00  0.00     0.293 C 
HETATM   30  O   UNL     1      39.491 -10.187   1.491  1.00  0.00    -0.259 OA
BRANCH  29  31
HETATM   31  O   UNL     1      37.528 -11.295   1.929  1.00  0.00    -0.323 OA
HETATM   32  C   UNL     1      36.821 -10.864   0.764  1.00  0.00     0.213 C 
ENDBRANCH  29  31
ENDBRANCH  10  29
TORSDOF 6
ENDMDL
MODEL 7
REMARK VINA RESULT:      -7.6      4.044      7.498
REMARK  6 active torsions:
REMARK  status: ('A' for Active; 'I' for Inactive)
REMARK    1  A    between atoms: C_7  and  S_8 
REMARK    2  A    between atoms: S_8  and  C_9 
REMARK    3  A    between atoms: C_9  and  C_10 
REMARK    4  A    between atoms: C_18  and  C_19 
REMARK    5  A    between atoms: C_27  and  C_28 
REMARK    6  A    between atoms: C_28  and  O_29 
ROOT
HETATM    1  C   UNL     1      40.952  -8.123   0.269  1.00  0.00     0.070 C 
HETATM    2  C   UNL     1      40.961  -9.630   0.229  1.00  0.00     0.037 A 
HETATM    3  N   UNL     1      41.070 -10.263   1.463  1.00  0.00    -0.192 N 
HETATM    4  C   UNL     1      41.082 -11.601   1.613  1.00  0.00     0.726 A 
HETATM    5  N   UNL     1      41.035 -12.398   0.506  1.00  0.00    -0.082 N 
HETATM    6  N   UNL     1      41.098 -13.704   0.834  1.00  0.00    -0.128 NA
HETATM    7  C   UNL     1      41.099 -13.624   2.172  1.00  0.00     0.226 A 
HETATM    8  N   UNL     1      41.122 -12.348   2.684  1.00  0.00    -0.035 NA
HETATM    9  C   UNL     1      40.933 -11.895  -0.873  1.00  0.00     0.208 A 
HETATM   10  C   UNL     1      40.893 -10.371  -0.905  1.00  0.00     0.070 A 
HETATM   11  H   UNL     1      41.058  -9.680   2.295  1.00  0.00     0.184 HD
ENDROOT
BRANCH   7  12
HETATM   12  S   UNL     1      41.037 -15.019   3.211  1.00  0.00    -0.083 SA
BRANCH  12  13
HETATM   13  C   UNL     1      42.791 -15.246   3.612  1.00  0.00     0.123 C 
BRANCH  13  14
HETATM   14  C   UNL     1      43.192 -16.702   3.521  1.00  0.00    -0.027 A 
HETATM   15  C   UNL     1      43.978 -17.338   4.497  1.00  0.00     0.041 A 
HETATM   16 CL   UNL     1      44.540 -16.514   5.908  1.00  0.00    -0.084 Cl
HETATM   17  C   UNL     1      44.339 -18.682   4.354  1.00  0.00     0.024 A 
HETATM   18  C   UNL     1      43.931 -19.406   3.235  1.00  0.00     0.002 A 
HETATM   19  C   UNL     1      43.162 -18.788   2.254  1.00  0.00     0.001 A 
HETATM   20  C   UNL     1      42.795 -17.448   2.394  1.00  0.00     0.009 A 
ENDBRANCH  13  14
ENDBRANCH  12  13
ENDBRANCH   7  12
BRANCH   9  21
HETATM   21  C   UNL     1      39.753 -12.564  -1.566  1.00  0.00     0.032 A 
HETATM   22  C   UNL     1      38.421 -12.366  -1.168  1.00  0.00     0.045 A 
HETATM   23 CL   UNL     1      37.994 -11.373   0.181  1.00  0.00    -0.084 Cl
HETATM   24  C   UNL     1      37.367 -12.978  -1.860  1.00  0.00     0.024 A 
HETATM   25  C   UNL     1      37.621 -13.794  -2.961  1.00  0.00     0.005 A 
HETATM   26  C   UNL     1      38.933 -13.999  -3.371  1.00  0.00     0.043 A 
HETATM   27  C   UNL     1      39.976 -13.387  -2.680  1.00  0.00     0.126 A 
HETATM   28  F   UNL     1      41.227 -13.604  -3.110  1.00  0.00    -0.205 F 
ENDBRANCH   9  21
BRANCH  10  29
HETATM   29  C   UNL     1      40.738  -9.742  -2.232  1.00  0.00     0.293 C 
HETATM   30  O   UNL     1      41.648  -9.564  -3.026  1.00  0.00    -0.259 OA
BRANCH  29  31
HETATM   31  O   UNL     1      39.442  -9.391  -2.411  1.00  0.00    -0.323 OA
HETATM   32  C   UNL     1      38.941  -9.678  -3.718  1.00  0.00     0.213 C 
ENDBRANCH  29  31
ENDBRANCH  10  29
TORSDOF 6
ENDMDL
MODEL 8
REMARK VINA RESULT:      -7.6      4.033      7.613
REMARK  6 active torsions:
REMARK  status: ('A' for Active; 'I' for Inactive)
REMARK    1  A    between atoms: C_7  and  S_8 
REMARK    2  A    between atoms: S_8  and  C_9 
REMARK    3  A    between atoms: C_9  and  C_10 
REMARK    4  A    between atoms: C_18  and  C_19 
REMARK    5  A    between atoms: C_27  and  C_28 
REMARK    6  A    between atoms: C_28  and  O_29 
ROOT
HETATM    1  C   UNL     1      40.798 -12.601  -2.965  1.00  0.00     0.070 C 
HETATM    2  C   UNL     1      40.355 -12.780  -1.535  1.00  0.00     0.037 A 
HETATM    3  N   UNL     1      40.947 -13.838  -0.851  1.00  0.00    -0.192 N 
HETATM    4  C   UNL     1      40.678 -14.135   0.434  1.00  0.00     0.726 A 
HETATM    5  N   UNL     1      39.742 -13.403   1.107  1.00  0.00    -0.082 N 
HETATM    6  N   UNL     1      39.568 -13.861   2.363  1.00  0.00    -0.128 NA
HETATM    7  C   UNL     1      40.498 -14.825   2.408  1.00  0.00     0.226 A 
HETATM    8  N   UNL     1      41.176 -15.041   1.232  1.00  0.00    -0.035 NA
HETATM    9  C   UNL     1      39.011 -12.264   0.532  1.00  0.00     0.208 A 
HETATM   10  C   UNL     1      39.430 -12.008  -0.912  1.00  0.00     0.070 A 
HETATM   11  H   UNL     1      41.679 -14.357  -1.328  1.00  0.00     0.184 HD
ENDROOT
BRANCH   7  12
HETATM   12  S   UNL     1      40.867 -15.727   3.850  1.00  0.00    -0.083 SA
BRANCH  12  13
HETATM   13  C   UNL     1      42.669 -15.890   3.720  1.00  0.00     0.123 C 
BRANCH  13  14
HETATM   14  C   UNL     1      43.082 -17.339   3.589  1.00  0.00    -0.027 A 
HETATM   15  C   UNL     1      43.730 -18.042   4.619  1.00  0.00     0.041 A 
HETATM   16 CL   UNL     1      44.093 -17.315   6.144  1.00  0.00    -0.084 Cl
HETATM   17  C   UNL     1      44.109 -19.377   4.440  1.00  0.00     0.024 A 
HETATM   18  C   UNL     1      43.858 -20.024   3.231  1.00  0.00     0.002 A 
HETATM   19  C   UNL     1      43.228 -19.339   2.197  1.00  0.00     0.001 A 
HETATM   20  C   UNL     1      42.842 -18.008   2.373  1.00  0.00     0.009 A 
ENDBRANCH  13  14
ENDBRANCH  12  13
ENDBRANCH   7  12
BRANCH   9  21
HETATM   21  C   UNL     1      39.163 -11.056   1.447  1.00  0.00     0.032 A 
HETATM   22  C   UNL     1      40.408 -10.490   1.765  1.00  0.00     0.045 A 
HETATM   23 CL   UNL     1      41.899 -11.140   1.179  1.00  0.00    -0.084 Cl
HETATM   24  C   UNL     1      40.493  -9.357   2.586  1.00  0.00     0.024 A 
HETATM   25  C   UNL     1      39.340  -8.767   3.101  1.00  0.00     0.005 A 
HETATM   26  C   UNL     1      38.099  -9.312   2.796  1.00  0.00     0.043 A 
HETATM   27  C   UNL     1      38.022 -10.437   1.979  1.00  0.00     0.126 A 
HETATM   28  F   UNL     1      36.806 -10.928   1.700  1.00  0.00    -0.205 F 
ENDBRANCH   9  21
BRANCH  10  29
HETATM   29  C   UNL     1      38.804 -10.854  -1.586  1.00  0.00     0.293 C 
HETATM   30  O   UNL     1      39.330  -9.762  -1.723  1.00  0.00    -0.259 OA
BRANCH  29  31
HETATM   31  O   UNL     1      37.565 -11.201  -2.008  1.00  0.00    -0.323 OA
HETATM   32  C   UNL     1      36.549 -10.260  -1.653  1.00  0.00     0.213 C 
ENDBRANCH  29  31
ENDBRANCH  10  29
TORSDOF 6
ENDMDL
MODEL 9
REMARK VINA RESULT:      -7.0      3.832      6.900
REMARK  6 active torsions:
REMARK  status: ('A' for Active; 'I' for Inactive)
REMARK    1  A    between atoms: C_7  and  S_8 
REMARK    2  A    between atoms: S_8  and  C_9 
REMARK    3  A    between atoms: C_9  and  C_10 
REMARK    4  A    between atoms: C_18  and  C_19 
REMARK    5  A    between atoms: C_27  and  C_28 
REMARK    6  A    between atoms: C_28  and  O_29 
ROOT
HETATM    1  C   UNL     1      36.909  -8.748   1.531  1.00  0.00     0.070 C 
HETATM    2  C   UNL     1      38.241  -9.401   1.259  1.00  0.00     0.037 A 
HETATM    3  N   UNL     1      39.027  -9.652   2.379  1.00  0.00    -0.192 N 
HETATM    4  C   UNL     1      40.237 -10.238   2.321  1.00  0.00     0.726 A 
HETATM    5  N   UNL     1      40.762 -10.568   1.105  1.00  0.00    -0.082 N 
HETATM    6  N   UNL     1      41.993 -11.105   1.228  1.00  0.00    -0.128 NA
HETATM    7  C   UNL     1      42.115 -11.144   2.562  1.00  0.00     0.226 A 
HETATM    8  N   UNL     1      41.070 -10.592   3.263  1.00  0.00    -0.035 NA
HETATM    9  C   UNL     1      40.074 -10.360  -0.178  1.00  0.00     0.208 A 
HETATM   10  C   UNL     1      38.703  -9.723   0.025  1.00  0.00     0.070 A 
HETATM   11  H   UNL     1      38.625  -9.453   3.292  1.00  0.00     0.184 HD
ENDROOT
BRANCH   7  12
HETATM   12  S   UNL     1      43.471 -11.873   3.374  1.00  0.00    -0.083 SA
BRANCH  12  13
HETATM   13  C   UNL     1      42.667 -13.230   4.269  1.00  0.00     0.123 C 
BRANCH  13  14
HETATM   14  C   UNL     1      42.887 -14.555   3.572  1.00  0.00    -0.027 A 
HETATM   15  C   UNL     1      42.907 -15.781   4.258  1.00  0.00     0.041 A 
HETATM   16 CL   UNL     1      42.659 -15.887   5.965  1.00  0.00    -0.084 Cl
HETATM   17  C   UNL     1      43.135 -16.978   3.568  1.00  0.00     0.024 A 
HETATM   18  C   UNL     1      43.354 -16.967   2.192  1.00  0.00     0.002 A 
HETATM   19  C   UNL     1      43.348 -15.759   1.500  1.00  0.00     0.001 A 
HETATM   20  C   UNL     1      43.116 -14.563   2.183  1.00  0.00     0.009 A 
ENDBRANCH  13  14
ENDBRANCH  12  13
ENDBRANCH   7  12
BRANCH   9  21
HETATM   21  C   UNL     1      40.043 -11.672  -0.950  1.00  0.00     0.032 A 
HETATM   22  C   UNL     1      40.507 -11.795  -2.269  1.00  0.00     0.045 A 
HETATM   23 CL   UNL     1      41.123 -10.450  -3.164  1.00  0.00    -0.084 Cl
HETATM   24  C   UNL     1      40.488 -13.033  -2.925  1.00  0.00     0.024 A 
HETATM   25  C   UNL     1      40.009 -14.171  -2.277  1.00  0.00     0.005 A 
HETATM   26  C   UNL     1      39.548 -14.070  -0.970  1.00  0.00     0.043 A 
HETATM   27  C   UNL     1      39.571 -12.836  -0.324  1.00  0.00     0.126 A 
HETATM   28  F   UNL     1      39.124 -12.781   0.939  1.00  0.00    -0.205 F 
ENDBRANCH   9  21
BRANCH  10  29
HETATM   29  C   UNL     1      37.888  -9.510  -1.187  1.00  0.00     0.293 C 
HETATM   30  O   UNL     1      38.070  -8.617  -1.998  1.00  0.00    -0.259 OA
BRANCH  29  31
HETATM   31  O   UNL     1      36.912 -10.449  -1.239  1.00  0.00    -0.323 OA
HETATM   32  C   UNL     1      36.829 -11.126  -2.494  1.00  0.00     0.213 C 
ENDBRANCH  29  31
ENDBRANCH  10  29
TORSDOF 6
ENDMDL
MODEL 10
REMARK VINA RESULT:      -6.9      4.741      6.803
REMARK  6 active torsions:
REMARK  status: ('A' for Active; 'I' for Inactive)
REMARK    1  A    between atoms: C_7  and  S_8 
REMARK    2  A    between atoms: S_8  and  C_9 
REMARK    3  A    between atoms: C_9  and  C_10 
REMARK    4  A    between atoms: C_18  and  C_19 
REMARK    5  A    between atoms: C_27  and  C_28 
REMARK    6  A    between atoms: C_28  and  O_29 
ROOT
HETATM    1  C   UNL     1      43.391  -9.725   9.617  1.00  0.00     0.070 C 
HETATM    2  C   UNL     1      43.039  -9.999   8.177  1.00  0.00     0.037 A 
HETATM    3  N   UNL     1      43.374 -11.265   7.706  1.00  0.00    -0.192 N 
HETATM    4  C   UNL     1      43.122 -11.681   6.452  1.00  0.00     0.726 A 
HETATM    5  N   UNL     1      42.552 -10.816   5.562  1.00  0.00    -0.082 N 
HETATM    6  N   UNL     1      42.411 -11.382   4.346  1.00  0.00    -0.128 NA
HETATM    7  C   UNL     1      42.842 -12.625   4.598  1.00  0.00     0.226 A 
HETATM    8  N   UNL     1      43.315 -12.835   5.871  1.00  0.00    -0.035 NA
HETATM    9  C   UNL     1      42.150  -9.439   5.886  1.00  0.00     0.208 A 
HETATM   10  C   UNL     1      42.456  -9.102   7.342  1.00  0.00     0.070 A 
HETATM   11  H   UNL     1      43.753 -11.930   8.374  1.00  0.00     0.184 HD
ENDROOT
BRANCH   7  12
HETATM   12  S   UNL     1      42.782 -13.911   3.426  1.00  0.00    -0.083 SA
BRANCH  12  13
HETATM   13  C   UNL     1      42.232 -15.304   4.450  1.00  0.00     0.123 C 
BRANCH  13  14
HETATM   14  C   UNL     1      42.874 -16.600   4.004  1.00  0.00    -0.027 A 
HETATM   15  C   UNL     1      43.921 -17.213   4.712  1.00  0.00     0.041 A 
HETATM   16 CL   UNL     1      44.557 -16.550   6.176  1.00  0.00    -0.084 Cl
HETATM   17  C   UNL     1      44.494 -18.402   4.247  1.00  0.00     0.024 A 
HETATM   18  C   UNL     1      44.039 -18.988   3.067  1.00  0.00     0.002 A 
HETATM   19  C   UNL     1      43.011 -18.387   2.347  1.00  0.00     0.001 A 
HETATM   20  C   UNL     1      42.432 -17.204   2.811  1.00  0.00     0.009 A 
ENDBRANCH  13  14
ENDBRANCH  12  13
ENDBRANCH   7  12
BRANCH   9  21
HETATM   21  C   UNL     1      40.694  -9.235   5.493  1.00  0.00     0.032 A 
HETATM   22  C   UNL     1      40.275  -8.231   4.606  1.00  0.00     0.045 A 
HETATM   23 CL   UNL     1      41.373  -7.095   3.906  1.00  0.00    -0.084 Cl
HETATM   24  C   UNL     1      38.925  -8.106   4.248  1.00  0.00     0.024 A 
HETATM   25  C   UNL     1      37.971  -8.981   4.765  1.00  0.00     0.005 A 
HETATM   26  C   UNL     1      38.367  -9.983   5.643  1.00  0.00     0.043 A 
HETATM   27  C   UNL     1      39.710 -10.102   5.993  1.00  0.00     0.126 A 
HETATM   28  F   UNL     1      40.054 -11.087   6.836  1.00  0.00    -0.205 F 
ENDBRANCH   9  21
BRANCH  10  29
HETATM   29  C   UNL     1      42.049  -7.761   7.808  1.00  0.00     0.293 C 
HETATM   30  O   UNL     1      42.648  -6.728   7.556  1.00  0.00    -0.259 OA
BRANCH  29  31
HETATM   31  O   UNL     1      40.928  -7.872   8.561  1.00  0.00    -0.323 OA
HETATM   32  C   UNL     1      40.581  -6.673   9.258  1.00  0.00     0.213 C 
ENDBRANCH  29  31
ENDBRANCH  10  29
TORSDOF 6
ENDMDL
