MODEL 1
REMARK VINA RESULT:      -8.8      0.000      0.000
REMARK  5 active torsions:
REMARK  status: ('A' for Active; 'I' for Inactive)
REMARK    1  A    between atoms: C_3  and  N_4 
REMARK       I    between atoms: N_4  and  C_5 
REMARK    2  A    between atoms: C_5  and  C_6 
REMARK    3  A    between atoms: C_6  and  C_7 
REMARK    4  A    between atoms: C_9  and  N_10 
REMARK       I    between atoms: N_10  and  C_11 
REMARK       I    between atoms: C_11  and  N_12 
REMARK    5  A    between atoms: N_12  and  C_13 
ROOT
HETATM    1  C   UNL     1      43.139 -13.346   5.471  1.00  0.00     0.052 A 
HETATM    2  N   UNL     1      42.278 -13.761   4.459  1.00  0.00    -0.228 NA
HETATM    3  C   UNL     1      41.962 -12.739   3.698  1.00  0.00     0.174 A 
HETATM    4  S   UNL     1      42.704 -11.258   4.092  1.00  0.00    -0.062 SA
HETATM    5  C   UNL     1      43.478 -12.008   5.424  1.00  0.00     0.081 A 
ENDROOT
BRANCH   1   6
HETATM    6  C   UNL     1      43.537 -14.346   6.509  1.00  0.00     0.163 C 
BRANCH   6   7
HETATM    7  C   UNL     1      43.184 -15.776   6.108  1.00  0.00     0.227 C 
HETATM    8  N   UNL     1      43.909 -16.251   5.032  1.00  0.00    -0.326 N 
HETATM    9  H   UNL     1      44.733 -15.693   4.812  1.00  0.00     0.169 HD
HETATM   10  O   UNL     1      42.391 -16.421   6.788  1.00  0.00    -0.273 OA
BRANCH   8  11
HETATM   11  C   UNL     1      43.764 -17.432   4.272  1.00  0.00     0.042 A 
HETATM   12  C   UNL     1      43.375 -17.528   2.923  1.00  0.00    -0.035 A 
HETATM   13  C   UNL     1      43.085 -16.361   2.023  1.00  0.00     0.050 C 
HETATM   14  C   UNL     1      43.282 -18.808   2.331  1.00  0.00     0.011 A 
HETATM   15  C   UNL     1      43.617 -19.964   3.034  1.00  0.00     0.024 A 
HETATM   16  C   UNL     1      44.049 -19.856   4.345  1.00  0.00     0.036 A 
HETATM   17  C   UNL     1      44.126 -18.607   4.959  1.00  0.00     0.053 A 
HETATM   18 CL   UNL     1      44.493 -21.269   5.222  1.00  0.00    -0.084 Cl
ENDBRANCH   8  11
ENDBRANCH   6   7
ENDBRANCH   1   6
BRANCH   3  19
HETATM   19  N   UNL     1      41.130 -12.891   2.621  1.00  0.00    -0.287 N 
HETATM   20  C   UNL     1      39.768 -12.840   2.639  1.00  0.00     0.326 C 
HETATM   21  N   UNL     1      39.148 -13.038   1.429  1.00  0.00    -0.309 N 
HETATM   22  O   UNL     1      39.056 -12.743   3.635  1.00  0.00    -0.247 OA
HETATM   23  H   UNL     1      38.175 -13.293   1.549  1.00  0.00     0.170 HD
HETATM   24  H   UNL     1      41.553 -13.384   1.850  1.00  0.00     0.172 HD
BRANCH  21  25
HETATM   25  C   UNL     1      39.614 -12.899   0.110  1.00  0.00     0.036 A 
HETATM   26  C   UNL     1      39.932 -11.605  -0.324  1.00  0.00     0.032 A 
HETATM   27  C   UNL     1      40.408 -11.390  -1.619  1.00  0.00     0.044 A 
HETATM   28  C   UNL     1      40.594 -12.473  -2.468  1.00  0.00     0.116 A 
HETATM   29  F   UNL     1      41.059 -12.268  -3.707  1.00  0.00    -0.206 F 
HETATM   30  C   UNL     1      40.317 -13.765  -2.043  1.00  0.00     0.044 A 
HETATM   31  C   UNL     1      39.829 -13.981  -0.751  1.00  0.00     0.032 A 
ENDBRANCH  21  25
ENDBRANCH   3  19
TORSDOF 5
ENDMDL
MODEL 2
REMARK VINA RESULT:      -8.8      3.487      6.240
REMARK  5 active torsions:
REMARK  status: ('A' for Active; 'I' for Inactive)
REMARK    1  A    between atoms: C_3  and  N_4 
REMARK       I    between atoms: N_4  and  C_5 
REMARK    2  A    between atoms: C_5  and  C_6 
REMARK    3  A    between atoms: C_6  and  C_7 
REMARK    4  A    between atoms: C_9  and  N_10 
REMARK       I    between atoms: N_10  and  C_11 
REMARK       I    between atoms: C_11  and  N_12 
REMARK    5  A    between atoms: N_12  and  C_13 
ROOT
HETATM    1  C   UNL     1      41.213 -12.866   1.598  1.00  0.00     0.052 A 
HETATM    2  N   UNL     1      41.709 -12.880   2.897  1.00  0.00    -0.228 NA
HETATM    3  C   UNL     1      41.753 -11.655   3.370  1.00  0.00     0.174 A 
HETATM    4  S   UNL     1      41.160 -10.437   2.339  1.00  0.00    -0.062 SA
HETATM    5  C   UNL     1      40.861 -11.614   1.130  1.00  0.00     0.081 A 
ENDROOT
BRANCH   1   6
HETATM    6  C   UNL     1      41.179 -14.157   0.844  1.00  0.00     0.163 C 
BRANCH   6   7
HETATM    7  C   UNL     1      41.293 -15.371   1.762  1.00  0.00     0.227 C 
HETATM    8  N   UNL     1      42.568 -15.590   2.246  1.00  0.00    -0.326 N 
HETATM    9  H   UNL     1      43.194 -14.793   2.131  1.00  0.00     0.169 HD
HETATM   10  O   UNL     1      40.282 -15.992   2.079  1.00  0.00    -0.273 OA
BRANCH   8  11
HETATM   11  C   UNL     1      43.107 -16.676   2.969  1.00  0.00     0.042 A 
HETATM   12  C   UNL     1      43.471 -16.692   4.328  1.00  0.00    -0.035 A 
HETATM   13  C   UNL     1      43.302 -15.542   5.280  1.00  0.00     0.050 C 
HETATM   14  C   UNL     1      43.999 -17.881   4.877  1.00  0.00     0.011 A 
HETATM   15  C   UNL     1      44.118 -19.046   4.121  1.00  0.00     0.024 A 
HETATM   16  C   UNL     1      43.708 -19.037   2.797  1.00  0.00     0.036 A 
HETATM   17  C   UNL     1      43.206 -17.869   2.227  1.00  0.00     0.053 A 
HETATM   18 CL   UNL     1      43.820 -20.471   1.854  1.00  0.00    -0.084 Cl
ENDBRANCH   8  11
ENDBRANCH   6   7
ENDBRANCH   1   6
BRANCH   3  19
HETATM   19  N   UNL     1      42.198 -11.403   4.640  1.00  0.00    -0.287 N 
HETATM   20  C   UNL     1      41.691 -11.926   5.792  1.00  0.00     0.326 C 
HETATM   21  N   UNL     1      42.298 -11.511   6.952  1.00  0.00    -0.309 N 
HETATM   22  O   UNL     1      40.694 -12.636   5.892  1.00  0.00    -0.247 OA
HETATM   23  H   UNL     1      41.706 -11.676   7.759  1.00  0.00     0.170 HD
HETATM   24  H   UNL     1      42.712 -10.540   4.724  1.00  0.00     0.172 HD
BRANCH  21  25
HETATM   25  C   UNL     1      43.570 -10.966   7.195  1.00  0.00     0.036 A 
HETATM   26  C   UNL     1      43.623  -9.731   7.855  1.00  0.00     0.032 A 
HETATM   27  C   UNL     1      44.852  -9.131   8.138  1.00  0.00     0.044 A 
HETATM   28  C   UNL     1      46.028  -9.782   7.788  1.00  0.00     0.116 A 
HETATM   29  F   UNL     1      47.206  -9.212   8.068  1.00  0.00    -0.206 F 
HETATM   30  C   UNL     1      45.995 -11.022   7.165  1.00  0.00     0.044 A 
HETATM   31  C   UNL     1      44.766 -11.619   6.870  1.00  0.00     0.032 A 
ENDBRANCH  21  25
ENDBRANCH   3  19
TORSDOF 5
ENDMDL
MODEL 3
REMARK VINA RESULT:      -8.6      1.869      2.029
REMARK  5 active torsions:
REMARK  status: ('A' for Active; 'I' for Inactive)
REMARK    1  A    between atoms: C_3  and  N_4 
REMARK       I    between atoms: N_4  and  C_5 
REMARK    2  A    between atoms: C_5  and  C_6 
REMARK    3  A    between atoms: C_6  and  C_7 
REMARK    4  A    between atoms: C_9  and  N_10 
REMARK       I    between atoms: N_10  and  C_11 
REMARK       I    between atoms: C_11  and  N_12 
REMARK    5  A    between atoms: N_12  and  C_13 
ROOT
HETATM    1  C   UNL     1      40.748 -13.295   5.456  1.00  0.00     0.052 A 
HETATM    2  N   UNL     1      40.963 -13.410   4.086  1.00  0.00    -0.228 NA
HETATM    3  C   UNL     1      40.336 -12.443   3.456  1.00  0.00     0.174 A 
HETATM    4  S   UNL     1      39.518 -11.320   4.439  1.00  0.00    -0.062 SA
HETATM    5  C   UNL     1      39.980 -12.209   5.829  1.00  0.00     0.081 A 
ENDROOT
BRANCH   1   6
HETATM    6  C   UNL     1      41.297 -14.365   6.345  1.00  0.00     0.163 C 
BRANCH   6   7
HETATM    7  C   UNL     1      41.345 -15.727   5.658  1.00  0.00     0.227 C 
HETATM    8  N   UNL     1      42.575 -16.033   5.108  1.00  0.00    -0.326 N 
HETATM    9  H   UNL     1      43.333 -15.438   5.438  1.00  0.00     0.169 HD
HETATM   10  O   UNL     1      40.372 -16.474   5.717  1.00  0.00    -0.273 OA
BRANCH   8  11
HETATM   11  C   UNL     1      42.968 -17.095   4.265  1.00  0.00     0.042 A 
HETATM   12  C   UNL     1      42.928 -17.119   2.858  1.00  0.00    -0.035 A 
HETATM   13  C   UNL     1      42.492 -15.974   1.988  1.00  0.00     0.050 C 
HETATM   14  C   UNL     1      43.365 -18.281   2.184  1.00  0.00     0.011 A 
HETATM   15  C   UNL     1      43.880 -19.377   2.876  1.00  0.00     0.024 A 
HETATM   16  C   UNL     1      43.965 -19.324   4.257  1.00  0.00     0.036 A 
HETATM   17  C   UNL     1      43.518 -18.198   4.946  1.00  0.00     0.053 A 
HETATM   18 CL   UNL     1      44.623 -20.655   5.128  1.00  0.00    -0.084 Cl
ENDBRANCH   8  11
ENDBRANCH   6   7
ENDBRANCH   1   6
BRANCH   3  19
HETATM   19  N   UNL     1      40.400 -12.330   2.092  1.00  0.00    -0.287 N 
HETATM   20  C   UNL     1      41.352 -11.664   1.380  1.00  0.00     0.326 C 
HETATM   21  N   UNL     1      41.196 -11.679   0.016  1.00  0.00    -0.309 N 
HETATM   22  O   UNL     1      42.258 -10.975   1.844  1.00  0.00    -0.247 OA
HETATM   23  H   UNL     1      41.728 -10.938  -0.426  1.00  0.00     0.170 HD
HETATM   24  H   UNL     1      39.515 -12.480   1.633  1.00  0.00     0.172 HD
BRANCH  21  25
HETATM   25  C   UNL     1      40.489 -12.549  -0.831  1.00  0.00     0.036 A 
HETATM   26  C   UNL     1      40.176 -12.080  -2.114  1.00  0.00     0.032 A 
HETATM   27  C   UNL     1      39.483 -12.891  -3.015  1.00  0.00     0.044 A 
HETATM   28  C   UNL     1      39.128 -14.181  -2.642  1.00  0.00     0.116 A 
HETATM   29  F   UNL     1      38.472 -14.962  -3.508  1.00  0.00    -0.206 F 
HETATM   30  C   UNL     1      39.460 -14.674  -1.387  1.00  0.00     0.044 A 
HETATM   31  C   UNL     1      40.144 -13.860  -0.480  1.00  0.00     0.032 A 
ENDBRANCH  21  25
ENDBRANCH   3  19
TORSDOF 5
ENDMDL
MODEL 4
REMARK VINA RESULT:      -8.6      4.964      8.013
REMARK  5 active torsions:
REMARK  status: ('A' for Active; 'I' for Inactive)
REMARK    1  A    between atoms: C_3  and  N_4 
REMARK       I    between atoms: N_4  and  C_5 
REMARK    2  A    between atoms: C_5  and  C_6 
REMARK    3  A    between atoms: C_6  and  C_7 
REMARK    4  A    between atoms: C_9  and  N_10 
REMARK       I    between atoms: N_10  and  C_11 
REMARK       I    between atoms: C_11  and  N_12 
REMARK    5  A    between atoms: N_12  and  C_13 
ROOT
HETATM    1  C   UNL     1      40.737 -12.818   5.619  1.00  0.00     0.052 A 
HETATM    2  N   UNL     1      41.773 -13.598   5.115  1.00  0.00    -0.228 NA
HETATM    3  C   UNL     1      41.627 -14.841   5.516  1.00  0.00     0.174 A 
HETATM    4  S   UNL     1      40.241 -15.167   6.448  1.00  0.00    -0.062 SA
HETATM    5  C   UNL     1      39.807 -13.511   6.370  1.00  0.00     0.081 A 
ENDROOT
BRANCH   1   6
HETATM    6  C   UNL     1      40.775 -11.346   5.359  1.00  0.00     0.163 C 
BRANCH   6   7
HETATM    7  C   UNL     1      42.099 -10.713   5.783  1.00  0.00     0.227 C 
HETATM    8  N   UNL     1      42.542 -11.122   7.026  1.00  0.00    -0.326 N 
HETATM    9  H   UNL     1      42.071 -11.955   7.377  1.00  0.00     0.169 HD
HETATM   10  O   UNL     1      42.708  -9.993   4.997  1.00  0.00    -0.273 OA
BRANCH   8  11
HETATM   11  C   UNL     1      43.607 -10.652   7.824  1.00  0.00     0.042 A 
HETATM   12  C   UNL     1      44.984 -10.816   7.582  1.00  0.00    -0.035 A 
HETATM   13  C   UNL     1      45.573 -11.494   6.378  1.00  0.00     0.050 C 
HETATM   14  C   UNL     1      45.907 -10.273   8.504  1.00  0.00     0.011 A 
HETATM   15  C   UNL     1      45.486  -9.540   9.613  1.00  0.00     0.024 A 
HETATM   16  C   UNL     1      44.131  -9.340   9.816  1.00  0.00     0.036 A 
HETATM   17  C   UNL     1      43.201  -9.885   8.933  1.00  0.00     0.053 A 
HETATM   18 CL   UNL     1      43.592  -8.415  11.164  1.00  0.00    -0.084 Cl
ENDBRANCH   8  11
ENDBRANCH   6   7
ENDBRANCH   1   6
BRANCH   3  19
HETATM   19  N   UNL     1      42.519 -15.811   5.144  1.00  0.00    -0.287 N 
HETATM   20  C   UNL     1      43.567 -16.273   5.884  1.00  0.00     0.326 C 
HETATM   21  N   UNL     1      44.334 -17.244   5.290  1.00  0.00    -0.309 N 
HETATM   22  O   UNL     1      43.942 -15.832   6.968  1.00  0.00    -0.247 OA
HETATM   23  H   UNL     1      45.242 -17.321   5.733  1.00  0.00     0.170 HD
HETATM   24  H   UNL     1      42.578 -15.944   4.147  1.00  0.00     0.172 HD
BRANCH  21  25
HETATM   25  C   UNL     1      44.056 -18.142   4.245  1.00  0.00     0.036 A 
HETATM   26  C   UNL     1      44.208 -19.508   4.518  1.00  0.00     0.032 A 
HETATM   27  C   UNL     1      43.942 -20.461   3.532  1.00  0.00     0.044 A 
HETATM   28  C   UNL     1      43.495 -20.047   2.284  1.00  0.00     0.116 A 
HETATM   29  F   UNL     1      43.231 -20.960   1.341  1.00  0.00    -0.206 F 
HETATM   30  C   UNL     1      43.306 -18.700   2.007  1.00  0.00     0.044 A 
HETATM   31  C   UNL     1      43.583 -17.744   2.989  1.00  0.00     0.032 A 
ENDBRANCH  21  25
ENDBRANCH   3  19
TORSDOF 5
ENDMDL
MODEL 5
REMARK VINA RESULT:      -8.5      4.464      7.273
REMARK  5 active torsions:
REMARK  status: ('A' for Active; 'I' for Inactive)
REMARK    1  A    between atoms: C_3  and  N_4 
REMARK       I    between atoms: N_4  and  C_5 
REMARK    2  A    between atoms: C_5  and  C_6 
REMARK    3  A    between atoms: C_6  and  C_7 
REMARK    4  A    between atoms: C_9  and  N_10 
REMARK       I    between atoms: N_10  and  C_11 
REMARK       I    between atoms: C_11  and  N_12 
REMARK    5  A    between atoms: N_12  and  C_13 
ROOT
HETATM    1  C   UNL     1      41.449 -13.029   3.850  1.00  0.00     0.052 A 
HETATM    2  N   UNL     1      42.403 -12.495   4.711  1.00  0.00    -0.228 NA
HETATM    3  C   UNL     1      41.836 -12.155   5.847  1.00  0.00     0.174 A 
HETATM    4  S   UNL     1      40.175 -12.499   5.983  1.00  0.00    -0.062 SA
HETATM    5  C   UNL     1      40.176 -13.107   4.380  1.00  0.00     0.081 A 
ENDROOT
BRANCH   1   6
HETATM    6  C   UNL     1      41.876 -13.386   2.463  1.00  0.00     0.163 C 
BRANCH   6   7
HETATM    7  C   UNL     1      42.823 -14.584   2.434  1.00  0.00     0.227 C 
HETATM    8  N   UNL     1      42.406 -15.646   3.213  1.00  0.00    -0.326 N 
HETATM    9  H   UNL     1      41.429 -15.589   3.497  1.00  0.00     0.169 HD
HETATM   10  O   UNL     1      43.795 -14.574   1.684  1.00  0.00    -0.273 OA
BRANCH   8  11
HETATM   11  C   UNL     1      43.068 -16.839   3.575  1.00  0.00     0.042 A 
HETATM   12  C   UNL     1      43.736 -17.102   4.785  1.00  0.00    -0.035 A 
HETATM   13  C   UNL     1      43.824 -16.153   5.947  1.00  0.00     0.050 C 
HETATM   14  C   UNL     1      44.346 -18.364   4.965  1.00  0.00     0.011 A 
HETATM   15  C   UNL     1      44.255 -19.364   3.999  1.00  0.00     0.024 A 
HETATM   16  C   UNL     1      43.550 -19.115   2.833  1.00  0.00     0.036 A 
HETATM   17  C   UNL     1      42.960 -17.870   2.622  1.00  0.00     0.053 A 
HETATM   18 CL   UNL     1      43.402 -20.345   1.639  1.00  0.00    -0.084 Cl
ENDBRANCH   8  11
ENDBRANCH   6   7
ENDBRANCH   1   6
BRANCH   3  19
HETATM   19  N   UNL     1      42.569 -11.611   6.867  1.00  0.00    -0.287 N 
HETATM   20  C   UNL     1      43.860 -11.914   7.185  1.00  0.00     0.326 C 
HETATM   21  N   UNL     1      44.380 -11.246   8.266  1.00  0.00    -0.309 N 
HETATM   22  O   UNL     1      44.550 -12.790   6.669  1.00  0.00    -0.247 OA
HETATM   23  H   UNL     1      45.197 -11.718   8.635  1.00  0.00     0.170 HD
HETATM   24  H   UNL     1      42.006 -11.212   7.601  1.00  0.00     0.172 HD
BRANCH  21  25
HETATM   25  C   UNL     1      44.007 -10.039   8.883  1.00  0.00     0.036 A 
HETATM   26  C   UNL     1      43.467 -10.121  10.174  1.00  0.00     0.032 A 
HETATM   27  C   UNL     1      43.081  -8.963  10.853  1.00  0.00     0.044 A 
HETATM   28  C   UNL     1      43.263  -7.724  10.254  1.00  0.00     0.116 A 
HETATM   29  F   UNL     1      42.902  -6.614  10.909  1.00  0.00    -0.206 F 
HETATM   30  C   UNL     1      43.829  -7.623   8.990  1.00  0.00     0.044 A 
HETATM   31  C   UNL     1      44.206  -8.780   8.303  1.00  0.00     0.032 A 
ENDBRANCH  21  25
ENDBRANCH   3  19
TORSDOF 5
ENDMDL
MODEL 6
REMARK VINA RESULT:      -8.4      5.018      7.918
REMARK  5 active torsions:
REMARK  status: ('A' for Active; 'I' for Inactive)
REMARK    1  A    between atoms: C_3  and  N_4 
REMARK       I    between atoms: N_4  and  C_5 
REMARK    2  A    between atoms: C_5  and  C_6 
REMARK    3  A    between atoms: C_6  and  C_7 
REMARK    4  A    between atoms: C_9  and  N_10 
REMARK       I    between atoms: N_10  and  C_11 
REMARK       I    between atoms: C_11  and  N_12 
REMARK    5  A    between atoms: N_12  and  C_13 
ROOT
HETATM    1  C   UNL     1      40.908 -12.076   4.757  1.00  0.00     0.052 A 
HETATM    2  N   UNL     1      41.584 -12.159   5.971  1.00  0.00    -0.228 NA
HETATM    3  C   UNL     1      42.146 -11.004   6.247  1.00  0.00     0.174 A 
HETATM    4  S   UNL     1      41.860  -9.750   5.132  1.00  0.00    -0.062 SA
HETATM    5  C   UNL     1      40.954 -10.832   4.159  1.00  0.00     0.081 A 
ENDROOT
BRANCH   1   6
HETATM    6  C   UNL     1      40.284 -13.320   4.214  1.00  0.00     0.163 C 
BRANCH   6   7
HETATM    7  C   UNL     1      40.926 -14.588   4.772  1.00  0.00     0.227 C 
HETATM    8  N   UNL     1      42.134 -14.909   4.182  1.00  0.00    -0.326 N 
HETATM    9  H   UNL     1      42.545 -14.147   3.645  1.00  0.00     0.169 HD
HETATM   10  O   UNL     1      40.411 -15.162   5.727  1.00  0.00    -0.273 OA
BRANCH   8  11
HETATM   11  C   UNL     1      42.937 -16.064   4.298  1.00  0.00     0.042 A 
HETATM   12  C   UNL     1      43.837 -16.369   5.335  1.00  0.00    -0.035 A 
HETATM   13  C   UNL     1      44.070 -15.521   6.553  1.00  0.00     0.050 C 
HETATM   14  C   UNL     1      44.561 -17.582   5.275  1.00  0.00     0.011 A 
HETATM   15  C   UNL     1      44.364 -18.499   4.243  1.00  0.00     0.024 A 
HETATM   16  C   UNL     1      43.438 -18.214   3.253  1.00  0.00     0.036 A 
HETATM   17  C   UNL     1      42.730 -17.014   3.279  1.00  0.00     0.053 A 
HETATM   18 CL   UNL     1      43.161 -19.345   1.986  1.00  0.00    -0.084 Cl
ENDBRANCH   8  11
ENDBRANCH   6   7
ENDBRANCH   1   6
BRANCH   3  19
HETATM   19  N   UNL     1      42.865 -10.826   7.399  1.00  0.00    -0.287 N 
HETATM   20  C   UNL     1      44.224 -10.829   7.512  1.00  0.00     0.326 C 
HETATM   21  N   UNL     1      44.717 -10.644   8.780  1.00  0.00    -0.309 N 
HETATM   22  O   UNL     1      45.027 -11.085   6.618  1.00  0.00    -0.247 OA
HETATM   23  H   UNL     1      45.678 -10.957   8.852  1.00  0.00     0.170 HD
HETATM   24  H   UNL     1      42.342 -11.028   8.236  1.00  0.00     0.172 HD
BRANCH  21  25
HETATM   25  C   UNL     1      44.144 -10.069   9.927  1.00  0.00     0.036 A 
HETATM   26  C   UNL     1      43.785 -10.937  10.967  1.00  0.00     0.032 A 
HETATM   27  C   UNL     1      43.218 -10.438  12.142  1.00  0.00     0.044 A 
HETATM   28  C   UNL     1      43.039  -9.069  12.287  1.00  0.00     0.116 A 
HETATM   29  F   UNL     1      42.505  -8.588  13.417  1.00  0.00    -0.206 F 
HETATM   30  C   UNL     1      43.421  -8.191  11.281  1.00  0.00     0.044 A 
HETATM   31  C   UNL     1      43.978  -8.690  10.100  1.00  0.00     0.032 A 
ENDBRANCH  21  25
ENDBRANCH   3  19
TORSDOF 5
ENDMDL
MODEL 7
REMARK VINA RESULT:      -8.2      3.471      7.146
REMARK  5 active torsions:
REMARK  status: ('A' for Active; 'I' for Inactive)
REMARK    1  A    between atoms: C_3  and  N_4 
REMARK       I    between atoms: N_4  and  C_5 
REMARK    2  A    between atoms: C_5  and  C_6 
REMARK    3  A    between atoms: C_6  and  C_7 
REMARK    4  A    between atoms: C_9  and  N_10 
REMARK       I    between atoms: N_10  and  C_11 
REMARK       I    between atoms: C_11  and  N_12 
REMARK    5  A    between atoms: N_12  and  C_13 
ROOT
HETATM    1  C   UNL     1      42.184 -12.094   5.256  1.00  0.00     0.052 A 
HETATM    2  N   UNL     1      42.231 -13.457   4.981  1.00  0.00    -0.228 NA
HETATM    3  C   UNL     1      43.150 -14.029   5.725  1.00  0.00     0.174 A 
HETATM    4  S   UNL     1      43.958 -13.012   6.825  1.00  0.00    -0.062 SA
HETATM    5  C   UNL     1      43.060 -11.676   6.239  1.00  0.00     0.081 A 
ENDROOT
BRANCH   1   6
HETATM    6  C   UNL     1      41.268 -11.243   4.437  1.00  0.00     0.163 C 
BRANCH   6   7
HETATM    7  C   UNL     1      41.258 -11.646   2.964  1.00  0.00     0.227 C 
HETATM    8  N   UNL     1      40.262 -12.545   2.636  1.00  0.00    -0.326 N 
HETATM    9  H   UNL     1      39.533 -12.627   3.344  1.00  0.00     0.169 HD
HETATM   10  O   UNL     1      42.031 -11.102   2.180  1.00  0.00    -0.273 OA
BRANCH   8  11
HETATM   11  C   UNL     1      40.030 -13.270   1.448  1.00  0.00     0.042 A 
HETATM   12  C   UNL     1      40.184 -14.656   1.258  1.00  0.00    -0.035 A 
HETATM   13  C   UNL     1      40.585 -15.634   2.326  1.00  0.00     0.050 C 
HETATM   14  C   UNL     1      39.905 -15.204  -0.014  1.00  0.00     0.011 A 
HETATM   15  C   UNL     1      39.434 -14.415  -1.062  1.00  0.00     0.024 A 
HETATM   16  C   UNL     1      39.236 -13.060  -0.852  1.00  0.00     0.036 A 
HETATM   17  C   UNL     1      39.527 -12.493   0.387  1.00  0.00     0.053 A 
HETATM   18 CL   UNL     1      38.629 -12.073  -2.125  1.00  0.00    -0.084 Cl
ENDBRANCH   8  11
ENDBRANCH   6   7
ENDBRANCH   1   6
BRANCH   3  19
HETATM   19  N   UNL     1      43.385 -15.376   5.647  1.00  0.00    -0.287 N 
HETATM   20  C   UNL     1      43.214 -16.286   6.647  1.00  0.00     0.326 C 
HETATM   21  N   UNL     1      43.532 -17.584   6.333  1.00  0.00    -0.309 N 
HETATM   22  O   UNL     1      42.910 -16.039   7.812  1.00  0.00    -0.247 OA
HETATM   23  H   UNL     1      43.681 -18.141   7.166  1.00  0.00     0.170 HD
HETATM   24  H   UNL     1      44.021 -15.632   4.908  1.00  0.00     0.172 HD
BRANCH  21  25
HETATM   25  C   UNL     1      43.629 -18.247   5.097  1.00  0.00     0.036 A 
HETATM   26  C   UNL     1      43.935 -19.614   5.126  1.00  0.00     0.032 A 
HETATM   27  C   UNL     1      44.039 -20.341   3.938  1.00  0.00     0.044 A 
HETATM   28  C   UNL     1      43.809 -19.707   2.724  1.00  0.00     0.116 A 
HETATM   29  F   UNL     1      43.900 -20.405   1.586  1.00  0.00    -0.206 F 
HETATM   30  C   UNL     1      43.471 -18.361   2.679  1.00  0.00     0.044 A 
HETATM   31  C   UNL     1      43.377 -17.628   3.866  1.00  0.00     0.032 A 
ENDBRANCH  21  25
ENDBRANCH   3  19
TORSDOF 5
ENDMDL
MODEL 8
REMARK VINA RESULT:      -8.1      4.796      7.397
REMARK  5 active torsions:
REMARK  status: ('A' for Active; 'I' for Inactive)
REMARK    1  A    between atoms: C_3  and  N_4 
REMARK       I    between atoms: N_4  and  C_5 
REMARK    2  A    between atoms: C_5  and  C_6 
REMARK    3  A    between atoms: C_6  and  C_7 
REMARK    4  A    between atoms: C_9  and  N_10 
REMARK       I    between atoms: N_10  and  C_11 
REMARK       I    between atoms: C_11  and  N_12 
REMARK    5  A    between atoms: N_12  and  C_13 
ROOT
HETATM    1  C   UNL     1      41.634 -13.406   4.273  1.00  0.00     0.052 A 
HETATM    2  N   UNL     1      42.354 -12.543   5.094  1.00  0.00    -0.228 NA
HETATM    3  C   UNL     1      41.545 -11.975   5.960  1.00  0.00     0.174 A 
HETATM    4  S   UNL     1      39.917 -12.469   5.894  1.00  0.00    -0.062 SA
HETATM    5  C   UNL     1      40.287 -13.490   4.568  1.00  0.00     0.081 A 
ENDROOT
BRANCH   1   6
HETATM    6  C   UNL     1      42.359 -14.076   3.151  1.00  0.00     0.163 C 
BRANCH   6   7
HETATM    7  C   UNL     1      42.230 -15.597   3.199  1.00  0.00     0.227 C 
HETATM    8  N   UNL     1      43.141 -16.210   4.036  1.00  0.00    -0.326 N 
HETATM    9  H   UNL     1      43.601 -15.570   4.682  1.00  0.00     0.169 HD
HETATM   10  O   UNL     1      41.310 -16.149   2.600  1.00  0.00    -0.273 OA
BRANCH   8  11
HETATM   11  C   UNL     1      43.450 -17.575   4.221  1.00  0.00     0.042 A 
HETATM   12  C   UNL     1      43.638 -18.242   5.446  1.00  0.00    -0.035 A 
HETATM   13  C   UNL     1      43.494 -17.612   6.802  1.00  0.00     0.050 C 
HETATM   14  C   UNL     1      43.946 -19.621   5.430  1.00  0.00     0.011 A 
HETATM   15  C   UNL     1      44.014 -20.341   4.238  1.00  0.00     0.024 A 
HETATM   16  C   UNL     1      43.776 -19.687   3.040  1.00  0.00     0.036 A 
HETATM   17  C   UNL     1      43.494 -18.323   3.029  1.00  0.00     0.053 A 
HETATM   18 CL   UNL     1      43.829 -20.563   1.559  1.00  0.00    -0.084 Cl
ENDBRANCH   8  11
ENDBRANCH   6   7
ENDBRANCH   1   6
BRANCH   3  19
HETATM   19  N   UNL     1      42.016 -11.086   6.889  1.00  0.00    -0.287 N 
HETATM   20  C   UNL     1      42.117  -9.735   6.736  1.00  0.00     0.326 C 
HETATM   21  N   UNL     1      42.637  -9.052   7.807  1.00  0.00    -0.309 N 
HETATM   22  O   UNL     1      41.890  -9.100   5.709  1.00  0.00    -0.247 OA
HETATM   23  H   UNL     1      42.969  -8.134   7.535  1.00  0.00     0.170 HD
HETATM   24  H   UNL     1      42.611 -11.507   7.584  1.00  0.00     0.172 HD
BRANCH  21  25
HETATM   25  C   UNL     1      42.731  -9.386   9.169  1.00  0.00     0.036 A 
HETATM   26  C   UNL     1      41.577  -9.228   9.949  1.00  0.00     0.032 A 
HETATM   27  C   UNL     1      41.592  -9.548  11.308  1.00  0.00     0.044 A 
HETATM   28  C   UNL     1      42.752 -10.054  11.880  1.00  0.00     0.116 A 
HETATM   29  F   UNL     1      42.765 -10.370  13.181  1.00  0.00    -0.206 F 
HETATM   30  C   UNL     1      43.894 -10.250  11.114  1.00  0.00     0.044 A 
HETATM   31  C   UNL     1      43.885  -9.920   9.756  1.00  0.00     0.032 A 
ENDBRANCH  21  25
ENDBRANCH   3  19
TORSDOF 5
ENDMDL
MODEL 9
REMARK VINA RESULT:      -8.0      1.810      2.424
REMARK  5 active torsions:
REMARK  status: ('A' for Active; 'I' for Inactive)
REMARK    1  A    between atoms: C_3  and  N_4 
REMARK       I    between atoms: N_4  and  C_5 
REMARK    2  A    between atoms: C_5  and  C_6 
REMARK    3  A    between atoms: C_6  and  C_7 
REMARK    4  A    between atoms: C_9  and  N_10 
REMARK       I    between atoms: N_10  and  C_11 
REMARK       I    between atoms: C_11  and  N_12 
REMARK    5  A    between atoms: N_12  and  C_13 
ROOT
HETATM    1  C   UNL     1      42.340 -13.958   4.775  1.00  0.00     0.052 A 
HETATM    2  N   UNL     1      42.062 -14.362   3.473  1.00  0.00    -0.228 NA
HETATM    3  C   UNL     1      41.152 -13.574   2.948  1.00  0.00     0.174 A 
HETATM    4  S   UNL     1      40.624 -12.287   3.929  1.00  0.00    -0.062 SA
HETATM    5  C   UNL     1      41.645 -12.839   5.190  1.00  0.00     0.081 A 
ENDROOT
BRANCH   1   6
HETATM    6  C   UNL     1      43.281 -14.791   5.584  1.00  0.00     0.163 C 
BRANCH   6   7
HETATM    7  C   UNL     1      42.893 -16.267   5.594  1.00  0.00     0.227 C 
HETATM    8  N   UNL     1      43.885 -17.110   5.131  1.00  0.00    -0.326 N 
HETATM    9  H   UNL     1      44.805 -16.674   5.081  1.00  0.00     0.169 HD
HETATM   10  O   UNL     1      41.818 -16.611   6.078  1.00  0.00    -0.273 OA
BRANCH   8  11
HETATM   11  C   UNL     1      43.857 -18.490   4.833  1.00  0.00     0.042 A 
HETATM   12  C   UNL     1      43.758 -19.553   5.750  1.00  0.00    -0.035 A 
HETATM   13  C   UNL     1      43.616 -19.398   7.237  1.00  0.00     0.050 C 
HETATM   14  C   UNL     1      43.749 -20.877   5.258  1.00  0.00     0.011 A 
HETATM   15  C   UNL     1      43.781 -21.150   3.892  1.00  0.00     0.024 A 
HETATM   16  C   UNL     1      43.826 -20.096   2.994  1.00  0.00     0.036 A 
HETATM   17  C   UNL     1      43.860 -18.781   3.455  1.00  0.00     0.053 A 
HETATM   18 CL   UNL     1      43.839 -20.410   1.302  1.00  0.00    -0.084 Cl
ENDBRANCH   8  11
ENDBRANCH   6   7
ENDBRANCH   1   6
BRANCH   3  19
HETATM   19  N   UNL     1      40.712 -13.760   1.664  1.00  0.00    -0.287 N 
HETATM   20  C   UNL     1      40.005 -14.829   1.199  1.00  0.00     0.326 C 
HETATM   21  N   UNL     1      39.689 -14.798  -0.136  1.00  0.00    -0.309 N 
HETATM   22  O   UNL     1      39.725 -15.845   1.829  1.00  0.00    -0.247 OA
HETATM   23  H   UNL     1      39.450 -15.721  -0.482  1.00  0.00     0.170 HD
HETATM   24  H   UNL     1      41.226 -13.227   0.980  1.00  0.00     0.172 HD
BRANCH  21  25
HETATM   25  C   UNL     1      39.597 -13.733  -1.048  1.00  0.00     0.036 A 
HETATM   26  C   UNL     1      38.400 -13.605  -1.766  1.00  0.00     0.032 A 
HETATM   27  C   UNL     1      38.232 -12.565  -2.683  1.00  0.00     0.044 A 
HETATM   28  C   UNL     1      39.250 -11.638  -2.861  1.00  0.00     0.116 A 
HETATM   29  F   UNL     1      39.086 -10.636  -3.733  1.00  0.00    -0.206 F 
HETATM   30  C   UNL     1      40.429 -11.729  -2.133  1.00  0.00     0.044 A 
HETATM   31  C   UNL     1      40.604 -12.775  -1.222  1.00  0.00     0.032 A 
ENDBRANCH  21  25
ENDBRANCH   3  19
TORSDOF 5
ENDMDL
MODEL 10
REMARK VINA RESULT:      -8.0      3.834      7.156
REMARK  5 active torsions:
REMARK  status: ('A' for Active; 'I' for Inactive)
REMARK    1  A    between atoms: C_3  and  N_4 
REMARK       I    between atoms: N_4  and  C_5 
REMARK    2  A    between atoms: C_5  and  C_6 
REMARK    3  A    between atoms: C_6  and  C_7 
REMARK    4  A    between atoms: C_9  and  N_10 
REMARK       I    between atoms: N_10  and  C_11 
REMARK       I    between atoms: C_11  and  N_12 
REMARK    5  A    between atoms: N_12  and  C_13 
ROOT
HETATM    1  C   UNL     1      41.357 -10.254   3.987  1.00  0.00     0.052 A 
HETATM    2  N   UNL     1      41.291 -11.644   3.956  1.00  0.00    -0.228 NA
HETATM    3  C   UNL     1      41.779 -12.137   5.071  1.00  0.00     0.174 A 
HETATM    4  S   UNL     1      42.280 -10.999   6.234  1.00  0.00    -0.062 SA
HETATM    5  C   UNL     1      41.871  -9.729   5.157  1.00  0.00     0.081 A 
ENDROOT
BRANCH   1   6
HETATM    6  C   UNL     1      40.942  -9.503   2.763  1.00  0.00     0.163 C 
BRANCH   6   7
HETATM    7  C   UNL     1      41.038 -10.351   1.497  1.00  0.00     0.227 C 
HETATM    8  N   UNL     1      39.964 -11.199   1.309  1.00  0.00    -0.326 N 
HETATM    9  H   UNL     1      39.156 -10.975   1.889  1.00  0.00     0.169 HD
HETATM   10  O   UNL     1      41.964 -10.169   0.712  1.00  0.00    -0.273 OA
BRANCH   8  11
HETATM   11  C   UNL     1      39.763 -12.237   0.374  1.00  0.00     0.042 A 
HETATM   12  C   UNL     1      40.439 -13.470   0.319  1.00  0.00    -0.035 A 
HETATM   13  C   UNL     1      41.484 -13.925   1.297  1.00  0.00     0.050 C 
HETATM   14  C   UNL     1      40.099 -14.388  -0.700  1.00  0.00     0.011 A 
HETATM   15  C   UNL     1      39.079 -14.122  -1.612  1.00  0.00     0.024 A 
HETATM   16  C   UNL     1      38.384 -12.928  -1.519  1.00  0.00     0.036 A 
HETATM   17  C   UNL     1      38.716 -11.997  -0.538  1.00  0.00     0.053 A 
HETATM   18 CL   UNL     1      37.103 -12.592  -2.619  1.00  0.00    -0.084 Cl
ENDBRANCH   8  11
ENDBRANCH   6   7
ENDBRANCH   1   6
BRANCH   3  19
HETATM   19  N   UNL     1      41.817 -13.489   5.289  1.00  0.00    -0.287 N 
HETATM   20  C   UNL     1      40.838 -14.242   5.866  1.00  0.00     0.326 C 
HETATM   21  N   UNL     1      41.113 -15.582   5.991  1.00  0.00    -0.309 N 
HETATM   22  O   UNL     1      39.800 -13.822   6.372  1.00  0.00    -0.247 OA
HETATM   23  H   UNL     1      40.513 -16.020   6.680  1.00  0.00     0.170 HD
HETATM   24  H   UNL     1      42.750 -13.868   5.311  1.00  0.00     0.172 HD
BRANCH  21  25
HETATM   25  C   UNL     1      42.017 -16.415   5.309  1.00  0.00     0.036 A 
HETATM   26  C   UNL     1      41.887 -16.496   3.916  1.00  0.00     0.032 A 
HETATM   27  C   UNL     1      42.755 -17.296   3.170  1.00  0.00     0.044 A 
HETATM   28  C   UNL     1      43.769 -17.992   3.815  1.00  0.00     0.116 A 
HETATM   29  F   UNL     1      44.607 -18.753   3.100  1.00  0.00    -0.206 F 
HETATM   30  C   UNL     1      43.934 -17.896   5.190  1.00  0.00     0.044 A 
HETATM   31  C   UNL     1      43.059 -17.104   5.940  1.00  0.00     0.032 A 
ENDBRANCH  21  25
ENDBRANCH   3  19
TORSDOF 5
ENDMDL
