MODEL 1
REMARK VINA RESULT:      -9.1      0.000      0.000
REMARK  6 active torsions:
REMARK  status: ('A' for Active; 'I' for Inactive)
REMARK    1  A    between atoms: C_7  and  S_8 
REMARK    2  A    between atoms: S_8  and  C_9 
REMARK    3  A    between atoms: C_9  and  C_10 
REMARK    4  A    between atoms: C_18  and  C_19 
REMARK    5  A    between atoms: C_26  and  C_27 
REMARK    6  A    between atoms: C_27  and  O_28 
ROOT
HETATM    1  C   UNL     1      39.284 -11.111   5.477  1.00  0.00     0.070 C 
HETATM    2  C   UNL     1      40.565 -11.871   5.715  1.00  0.00     0.037 C 
HETATM    3  N   UNL     1      40.426 -13.097   6.361  1.00  0.00    -0.192 N 
HETATM    4  C   UNL     1      41.414 -14.013   6.409  1.00  0.00     0.726 A 
HETATM    5  N   UNL     1      42.672 -13.666   6.004  1.00  0.00    -0.082 N 
HETATM    6  N   UNL     1      43.503 -14.728   6.019  1.00  0.00    -0.128 NA
HETATM    7  C   UNL     1      42.680 -15.683   6.476  1.00  0.00     0.226 A 
HETATM    8  N   UNL     1      41.395 -15.275   6.741  1.00  0.00    -0.035 NA
HETATM    9  C   UNL     1      43.033 -12.330   5.516  1.00  0.00     0.203 C 
HETATM   10  C   UNL     1      41.791 -11.471   5.291  1.00  0.00     0.070 C 
HETATM   11  H   UNL     1      39.481 -13.409   6.573  1.00  0.00     0.184 HD
ENDROOT
BRANCH   7  12
HETATM   12  S   UNL     1      43.149 -17.349   6.663  1.00  0.00    -0.083 SA
BRANCH  12  13
HETATM   13  C   UNL     1      44.472 -17.493   5.431  1.00  0.00     0.123 C 
BRANCH  13  14
HETATM   14  C   UNL     1      44.069 -18.433   4.317  1.00  0.00    -0.027 A 
HETATM   15  C   UNL     1      43.475 -17.993   3.123  1.00  0.00     0.041 A 
HETATM   16 CL   UNL     1      43.182 -16.319   2.804  1.00  0.00    -0.084 Cl
HETATM   17  C   UNL     1      43.088 -18.911   2.139  1.00  0.00     0.024 A 
HETATM   18  C   UNL     1      43.279 -20.278   2.337  1.00  0.00     0.002 A 
HETATM   19  C   UNL     1      43.859 -20.731   3.518  1.00  0.00     0.001 A 
HETATM   20  C   UNL     1      44.250 -19.818   4.499  1.00  0.00     0.009 A 
ENDBRANCH  13  14
ENDBRANCH  12  13
ENDBRANCH   7  12
BRANCH   9  21
HETATM   21  C   UNL     1      44.018 -11.665   6.478  1.00  0.00    -0.026 A 
HETATM   22  C   UNL     1      43.591 -11.287   7.762  1.00  0.00     0.033 A 
HETATM   23  C   UNL     1      44.486 -10.704   8.660  1.00  0.00     0.034 A 
HETATM   24 CL   UNL     1      43.948 -10.250  10.231  1.00  0.00    -0.084 Cl
HETATM   25  C   UNL     1      45.814 -10.492   8.299  1.00  0.00     0.024 A 
HETATM   26  C   UNL     1      46.255 -10.869   7.031  1.00  0.00     0.002 A 
HETATM   27  C   UNL     1      45.365 -11.454   6.128  1.00  0.00     0.010 A 
ENDBRANCH   9  21
BRANCH  10  28
HETATM   28  C   UNL     1      42.065 -10.238   4.523  1.00  0.00     0.293 C 
HETATM   29  O   UNL     1      41.832  -9.122   4.967  1.00  0.00    -0.259 OA
BRANCH  28  30
HETATM   30  O   UNL     1      42.530 -10.518   3.283  1.00  0.00    -0.323 OA
HETATM   31  C   UNL     1      41.518 -10.536   2.274  1.00  0.00     0.213 C 
ENDBRANCH  28  30
ENDBRANCH  10  28
TORSDOF 6
ENDMDL
MODEL 2
REMARK VINA RESULT:      -8.7      5.150      6.713
REMARK  6 active torsions:
REMARK  status: ('A' for Active; 'I' for Inactive)
REMARK    1  A    between atoms: C_7  and  S_8 
REMARK    2  A    between atoms: S_8  and  C_9 
REMARK    3  A    between atoms: C_9  and  C_10 
REMARK    4  A    between atoms: C_18  and  C_19 
REMARK    5  A    between atoms: C_26  and  C_27 
REMARK    6  A    between atoms: C_27  and  O_28 
ROOT
HETATM    1  C   UNL     1      38.549 -15.156  -3.024  1.00  0.00     0.070 C 
HETATM    2  C   UNL     1      39.197 -14.604  -1.779  1.00  0.00     0.037 C 
HETATM    3  N   UNL     1      39.125 -15.418  -0.651  1.00  0.00    -0.192 N 
HETATM    4  C   UNL     1      39.872 -15.207   0.451  1.00  0.00     0.726 A 
HETATM    5  N   UNL     1      40.574 -14.041   0.573  1.00  0.00    -0.082 N 
HETATM    6  N   UNL     1      41.344 -14.045   1.681  1.00  0.00    -0.128 NA
HETATM    7  C   UNL     1      41.031 -15.243   2.197  1.00  0.00     0.226 A 
HETATM    8  N   UNL     1      40.118 -15.974   1.477  1.00  0.00    -0.035 NA
HETATM    9  C   UNL     1      40.564 -12.973  -0.433  1.00  0.00     0.203 C 
HETATM   10  C   UNL     1      39.880 -13.432  -1.718  1.00  0.00     0.070 C 
HETATM   11  H   UNL     1      38.694 -16.334  -0.763  1.00  0.00     0.184 HD
ENDROOT
BRANCH   7  12
HETATM   12  S   UNL     1      41.763 -15.889   3.638  1.00  0.00    -0.083 SA
BRANCH  12  13
HETATM   13  C   UNL     1      43.353 -16.484   3.002  1.00  0.00     0.123 C 
BRANCH  13  14
HETATM   14  C   UNL     1      43.489 -17.976   3.204  1.00  0.00    -0.027 A 
HETATM   15  C   UNL     1      43.946 -18.547   4.404  1.00  0.00     0.041 A 
HETATM   16 CL   UNL     1      44.364 -17.586   5.779  1.00  0.00    -0.084 Cl
HETATM   17  C   UNL     1      44.088 -19.934   4.523  1.00  0.00     0.024 A 
HETATM   18  C   UNL     1      43.785 -20.769   3.448  1.00  0.00     0.002 A 
HETATM   19  C   UNL     1      43.338 -20.219   2.250  1.00  0.00     0.001 A 
HETATM   20  C   UNL     1      43.192 -18.836   2.129  1.00  0.00     0.009 A 
ENDBRANCH  13  14
ENDBRANCH  12  13
ENDBRANCH   7  12
BRANCH   9  21
HETATM   21  C   UNL     1      39.912 -11.714   0.140  1.00  0.00    -0.026 A 
HETATM   22  C   UNL     1      40.614 -10.496   0.121  1.00  0.00     0.033 A 
HETATM   23  C   UNL     1      40.023  -9.333   0.615  1.00  0.00     0.034 A 
HETATM   24 CL   UNL     1      40.894  -7.849   0.582  1.00  0.00    -0.084 Cl
HETATM   25  C   UNL     1      38.729  -9.360   1.130  1.00  0.00     0.024 A 
HETATM   26  C   UNL     1      38.017 -10.559   1.148  1.00  0.00     0.002 A 
HETATM   27  C   UNL     1      38.602 -11.727   0.654  1.00  0.00     0.010 A 
ENDBRANCH   9  21
BRANCH  10  28
HETATM   28  C   UNL     1      40.104 -12.518  -2.858  1.00  0.00     0.293 C 
HETATM   29  O   UNL     1      41.172 -12.455  -3.450  1.00  0.00    -0.259 OA
BRANCH  28  30
HETATM   30  O   UNL     1      39.018 -11.745  -3.095  1.00  0.00    -0.323 OA
HETATM   31  C   UNL     1      39.325 -10.371  -3.341  1.00  0.00     0.213 C 
ENDBRANCH  28  30
ENDBRANCH  10  28
TORSDOF 6
ENDMDL
MODEL 3
REMARK VINA RESULT:      -8.1      2.857      7.581
REMARK  6 active torsions:
REMARK  status: ('A' for Active; 'I' for Inactive)
REMARK    1  A    between atoms: C_7  and  S_8 
REMARK    2  A    between atoms: S_8  and  C_9 
REMARK    3  A    between atoms: C_9  and  C_10 
REMARK    4  A    between atoms: C_18  and  C_19 
REMARK    5  A    between atoms: C_26  and  C_27 
REMARK    6  A    between atoms: C_27  and  O_28 
ROOT
HETATM    1  C   UNL     1      41.910 -11.708   1.910  1.00  0.00     0.070 C 
HETATM    2  C   UNL     1      42.431 -12.075   3.277  1.00  0.00     0.037 C 
HETATM    3  N   UNL     1      43.703 -11.598   3.585  1.00  0.00    -0.192 N 
HETATM    4  C   UNL     1      44.200 -11.601   4.837  1.00  0.00     0.726 A 
HETATM    5  N   UNL     1      43.541 -12.283   5.820  1.00  0.00    -0.082 N 
HETATM    6  N   UNL     1      44.119 -12.090   7.024  1.00  0.00    -0.128 NA
HETATM    7  C   UNL     1      45.146 -11.299   6.684  1.00  0.00     0.226 A 
HETATM    8  N   UNL     1      45.236 -10.993   5.348  1.00  0.00    -0.035 NA
HETATM    9  C   UNL     1      42.302 -13.039   5.600  1.00  0.00     0.203 C 
HETATM   10  C   UNL     1      41.727 -12.762   4.213  1.00  0.00     0.070 C 
HETATM   11  H   UNL     1      44.157 -11.002   2.896  1.00  0.00     0.184 HD
ENDROOT
BRANCH   7  12
HETATM   12  S   UNL     1      46.266 -10.629   7.836  1.00  0.00    -0.083 SA
BRANCH  12  13
HETATM   13  C   UNL     1      45.448  -9.071   8.273  1.00  0.00     0.123 C 
BRANCH  13  14
HETATM   14  C   UNL     1      44.580  -9.245   9.499  1.00  0.00    -0.027 A 
HETATM   15  C   UNL     1      43.715  -8.245   9.972  1.00  0.00     0.041 A 
HETATM   16 CL   UNL     1      43.536  -6.726   9.165  1.00  0.00    -0.084 Cl
HETATM   17  C   UNL     1      42.962  -8.446  11.134  1.00  0.00     0.024 A 
HETATM   18  C   UNL     1      43.068  -9.641  11.845  1.00  0.00     0.002 A 
HETATM   19  C   UNL     1      43.927 -10.639  11.395  1.00  0.00     0.001 A 
HETATM   20  C   UNL     1      44.676 -10.443  10.233  1.00  0.00     0.009 A 
ENDBRANCH  13  14
ENDBRANCH  12  13
ENDBRANCH   7  12
BRANCH   9  21
HETATM   21  C   UNL     1      42.546 -14.531   5.827  1.00  0.00    -0.026 A 
HETATM   22  C   UNL     1      43.020 -15.329   4.771  1.00  0.00     0.033 A 
HETATM   23  C   UNL     1      43.272 -16.686   4.971  1.00  0.00     0.034 A 
HETATM   24 CL   UNL     1      43.855 -17.649   3.668  1.00  0.00    -0.084 Cl
HETATM   25  C   UNL     1      43.064 -17.269   6.219  1.00  0.00     0.024 A 
HETATM   26  C   UNL     1      42.602 -16.489   7.278  1.00  0.00     0.002 A 
HETATM   27  C   UNL     1      42.348 -15.129   7.086  1.00  0.00     0.010 A 
ENDBRANCH   9  21
BRANCH  10  28
HETATM   28  C   UNL     1      40.341 -13.249   4.047  1.00  0.00     0.293 C 
HETATM   29  O   UNL     1      40.039 -14.105   3.228  1.00  0.00    -0.259 OA
BRANCH  28  30
HETATM   30  O   UNL     1      39.482 -12.588   4.857  1.00  0.00    -0.323 OA
HETATM   31  C   UNL     1      39.120 -11.289   4.383  1.00  0.00     0.213 C 
ENDBRANCH  28  30
ENDBRANCH  10  28
TORSDOF 6
ENDMDL
MODEL 4
REMARK VINA RESULT:      -7.8      4.298      6.761
REMARK  6 active torsions:
REMARK  status: ('A' for Active; 'I' for Inactive)
REMARK    1  A    between atoms: C_7  and  S_8 
REMARK    2  A    between atoms: S_8  and  C_9 
REMARK    3  A    between atoms: C_9  and  C_10 
REMARK    4  A    between atoms: C_18  and  C_19 
REMARK    5  A    between atoms: C_26  and  C_27 
REMARK    6  A    between atoms: C_27  and  O_28 
ROOT
HETATM    1  C   UNL     1      39.124  -8.694   2.526  1.00  0.00     0.070 C 
HETATM    2  C   UNL     1      39.326 -10.145   2.169  1.00  0.00     0.037 C 
HETATM    3  N   UNL     1      40.280 -10.824   2.923  1.00  0.00    -0.192 N 
HETATM    4  C   UNL     1      40.392 -12.167   2.922  1.00  0.00     0.726 A 
HETATM    5  N   UNL     1      39.701 -12.897   1.997  1.00  0.00    -0.082 N 
HETATM    6  N   UNL     1      39.846 -14.222   2.208  1.00  0.00    -0.128 NA
HETATM    7  C   UNL     1      40.668 -14.216   3.268  1.00  0.00     0.226 A 
HETATM    8  N   UNL     1      41.036 -12.973   3.720  1.00  0.00    -0.035 NA
HETATM    9  C   UNL     1      38.830 -12.305   0.974  1.00  0.00     0.203 C 
HETATM   10  C   UNL     1      38.608 -10.817   1.233  1.00  0.00     0.070 C 
HETATM   11  H   UNL     1      40.725 -10.312   3.683  1.00  0.00     0.184 HD
ENDROOT
BRANCH   7  12
HETATM   12  S   UNL     1      41.195 -15.661   4.083  1.00  0.00    -0.083 SA
BRANCH  12  13
HETATM   13  C   UNL     1      42.840 -15.906   3.361  1.00  0.00     0.123 C 
BRANCH  13  14
HETATM   14  C   UNL     1      43.210 -17.372   3.350  1.00  0.00    -0.027 A 
HETATM   15  C   UNL     1      43.935 -17.985   4.385  1.00  0.00     0.041 A 
HETATM   16 CL   UNL     1      44.440 -17.118   5.793  1.00  0.00    -0.084 Cl
HETATM   17  C   UNL     1      44.282 -19.339   4.306  1.00  0.00     0.024 A 
HETATM   18  C   UNL     1      43.921 -20.095   3.192  1.00  0.00     0.002 A 
HETATM   19  C   UNL     1      43.210 -19.501   2.154  1.00  0.00     0.001 A 
HETATM   20  C   UNL     1      42.858 -18.152   2.231  1.00  0.00     0.009 A 
ENDBRANCH  13  14
ENDBRANCH  12  13
ENDBRANCH   7  12
BRANCH   9  21
HETATM   21  C   UNL     1      39.403 -12.562  -0.420  1.00  0.00    -0.026 A 
HETATM   22  C   UNL     1      38.715 -13.402  -1.313  1.00  0.00     0.033 A 
HETATM   23  C   UNL     1      39.211 -13.624  -2.598  1.00  0.00     0.034 A 
HETATM   24 CL   UNL     1      38.355 -14.653  -3.679  1.00  0.00    -0.084 Cl
HETATM   25  C   UNL     1      40.391 -13.013  -3.017  1.00  0.00     0.024 A 
HETATM   26  C   UNL     1      41.080 -12.171  -2.146  1.00  0.00     0.002 A 
HETATM   27  C   UNL     1      40.589 -11.943  -0.858  1.00  0.00     0.010 A 
ENDBRANCH   9  21
BRANCH  10  28
HETATM   28  C   UNL     1      37.513 -10.241   0.424  1.00  0.00     0.293 C 
HETATM   29  O   UNL     1      36.334 -10.404   0.704  1.00  0.00    -0.259 OA
BRANCH  28  30
HETATM   30  O   UNL     1      37.989  -9.590  -0.663  1.00  0.00    -0.323 OA
HETATM   31  C   UNL     1      37.272  -9.870  -1.867  1.00  0.00     0.213 C 
ENDBRANCH  28  30
ENDBRANCH  10  28
TORSDOF 6
ENDMDL
MODEL 5
REMARK VINA RESULT:      -7.8      3.833      6.180
REMARK  6 active torsions:
REMARK  status: ('A' for Active; 'I' for Inactive)
REMARK    1  A    between atoms: C_7  and  S_8 
REMARK    2  A    between atoms: S_8  and  C_9 
REMARK    3  A    between atoms: C_9  and  C_10 
REMARK    4  A    between atoms: C_18  and  C_19 
REMARK    5  A    between atoms: C_26  and  C_27 
REMARK    6  A    between atoms: C_27  and  O_28 
ROOT
HETATM    1  C   UNL     1      42.713  -9.444   7.511  1.00  0.00     0.070 C 
HETATM    2  C   UNL     1      42.582 -10.268   6.254  1.00  0.00     0.037 C 
HETATM    3  N   UNL     1      41.731  -9.749   5.280  1.00  0.00    -0.192 N 
HETATM    4  C   UNL     1      41.708 -10.205   4.013  1.00  0.00     0.726 A 
HETATM    5  N   UNL     1      42.379 -11.354   3.700  1.00  0.00    -0.082 N 
HETATM    6  N   UNL     1      42.336 -11.603   2.375  1.00  0.00    -0.128 NA
HETATM    7  C   UNL     1      41.594 -10.570   1.951  1.00  0.00     0.226 A 
HETATM    8  N   UNL     1      41.177  -9.703   2.932  1.00  0.00    -0.035 NA
HETATM    9  C   UNL     1      43.133 -12.150   4.675  1.00  0.00     0.203 C 
HETATM   10  C   UNL     1      43.274 -11.408   6.002  1.00  0.00     0.070 C 
HETATM   11  H   UNL     1      41.309  -8.841   5.465  1.00  0.00     0.184 HD
ENDROOT
BRANCH   7  12
HETATM   12  S   UNL     1      41.223 -10.276   0.276  1.00  0.00    -0.083 SA
BRANCH  12  13
HETATM   13  C   UNL     1      39.652 -11.162   0.091  1.00  0.00     0.123 C 
BRANCH  13  14
HETATM   14  C   UNL     1      39.776 -12.585   0.587  1.00  0.00    -0.027 A 
HETATM   15  C   UNL     1      40.129 -13.658  -0.248  1.00  0.00     0.041 A 
HETATM   16 CL   UNL     1      40.492 -13.438  -1.924  1.00  0.00    -0.084 Cl
HETATM   17  C   UNL     1      40.193 -14.962   0.256  1.00  0.00     0.024 A 
HETATM   18  C   UNL     1      39.897 -15.215   1.595  1.00  0.00     0.002 A 
HETATM   19  C   UNL     1      39.538 -14.165   2.434  1.00  0.00     0.001 A 
HETATM   20  C   UNL     1      39.477 -12.862   1.935  1.00  0.00     0.009 A 
ENDBRANCH  13  14
ENDBRANCH  12  13
ENDBRANCH   7  12
BRANCH   9  21
HETATM   21  C   UNL     1      42.480 -13.521   4.857  1.00  0.00    -0.026 A 
HETATM   22  C   UNL     1      43.000 -14.636   4.176  1.00  0.00     0.033 A 
HETATM   23  C   UNL     1      42.432 -15.898   4.353  1.00  0.00     0.034 A 
HETATM   24 CL   UNL     1      43.083 -17.254   3.515  1.00  0.00    -0.084 Cl
HETATM   25  C   UNL     1      41.346 -16.073   5.208  1.00  0.00     0.024 A 
HETATM   26  C   UNL     1      40.825 -14.978   5.895  1.00  0.00     0.002 A 
HETATM   27  C   UNL     1      41.389 -13.712   5.725  1.00  0.00     0.010 A 
ENDBRANCH   9  21
BRANCH  10  28
HETATM   28  C   UNL     1      44.268 -12.018   6.910  1.00  0.00     0.293 C 
HETATM   29  O   UNL     1      43.947 -12.672   7.892  1.00  0.00    -0.259 OA
BRANCH  28  30
HETATM   30  O   UNL     1      45.532 -11.702   6.546  1.00  0.00    -0.323 OA
HETATM   31  C   UNL     1      46.188 -10.802   7.441  1.00  0.00     0.213 C 
ENDBRANCH  28  30
ENDBRANCH  10  28
TORSDOF 6
ENDMDL
MODEL 6
REMARK VINA RESULT:      -7.8      3.161      7.859
REMARK  6 active torsions:
REMARK  status: ('A' for Active; 'I' for Inactive)
REMARK    1  A    between atoms: C_7  and  S_8 
REMARK    2  A    between atoms: S_8  and  C_9 
REMARK    3  A    between atoms: C_9  and  C_10 
REMARK    4  A    between atoms: C_18  and  C_19 
REMARK    5  A    between atoms: C_26  and  C_27 
REMARK    6  A    between atoms: C_27  and  O_28 
ROOT
HETATM    1  C   UNL     1      41.789 -16.302   6.455  1.00  0.00     0.070 C 
HETATM    2  C   UNL     1      42.353 -14.959   6.062  1.00  0.00     0.037 C 
HETATM    3  N   UNL     1      42.736 -14.135   7.118  1.00  0.00    -0.192 N 
HETATM    4  C   UNL     1      43.495 -13.035   6.948  1.00  0.00     0.726 A 
HETATM    5  N   UNL     1      43.732 -12.572   5.684  1.00  0.00    -0.082 N 
HETATM    6  N   UNL     1      44.592 -11.533   5.695  1.00  0.00    -0.128 NA
HETATM    7  C   UNL     1      44.811 -11.404   7.011  1.00  0.00     0.226 A 
HETATM    8  N   UNL     1      44.140 -12.298   7.809  1.00  0.00    -0.035 NA
HETATM    9  C   UNL     1      43.197 -13.200   4.471  1.00  0.00     0.203 C 
HETATM   10  C   UNL     1      42.561 -14.552   4.784  1.00  0.00     0.070 C 
HETATM   11  H   UNL     1      42.658 -14.515   8.059  1.00  0.00     0.184 HD
ENDROOT
BRANCH   7  12
HETATM   12  S   UNL     1      45.916 -10.244   7.693  1.00  0.00    -0.083 SA
BRANCH  12  13
HETATM   13  C   UNL     1      45.434 -10.268   9.441  1.00  0.00     0.123 C 
BRANCH  13  14
HETATM   14  C   UNL     1      44.487  -9.131   9.753  1.00  0.00    -0.027 A 
HETATM   15  C   UNL     1      43.581  -9.162  10.826  1.00  0.00     0.041 A 
HETATM   16 CL   UNL     1      43.491 -10.502  11.914  1.00  0.00    -0.084 Cl
HETATM   17  C   UNL     1      42.702  -8.096  11.046  1.00  0.00     0.024 A 
HETATM   18  C   UNL     1      42.708  -6.990  10.197  1.00  0.00     0.002 A 
HETATM   19  C   UNL     1      43.595  -6.946   9.126  1.00  0.00     0.001 A 
HETATM   20  C   UNL     1      44.476  -8.006   8.905  1.00  0.00     0.009 A 
ENDBRANCH  13  14
ENDBRANCH  12  13
ENDBRANCH   7  12
BRANCH   9  21
HETATM   21  C   UNL     1      42.214 -12.257   3.776  1.00  0.00    -0.026 A 
HETATM   22  C   UNL     1      41.051 -11.843   4.449  1.00  0.00     0.033 A 
HETATM   23  C   UNL     1      40.158 -10.961   3.839  1.00  0.00     0.034 A 
HETATM   24 CL   UNL     1      38.741 -10.462   4.678  1.00  0.00    -0.084 Cl
HETATM   25  C   UNL     1      40.408 -10.474   2.558  1.00  0.00     0.024 A 
HETATM   26  C   UNL     1      41.562 -10.869   1.881  1.00  0.00     0.002 A 
HETATM   27  C   UNL     1      42.460 -11.751   2.486  1.00  0.00     0.010 A 
ENDBRANCH   9  21
BRANCH  10  28
HETATM   28  C   UNL     1      42.280 -15.359   3.578  1.00  0.00     0.293 C 
HETATM   29  O   UNL     1      41.155 -15.472   3.110  1.00  0.00    -0.259 OA
BRANCH  28  30
HETATM   30  O   UNL     1      43.393 -15.983   3.128  1.00  0.00    -0.323 OA
HETATM   31  C   UNL     1      43.156 -17.295   2.613  1.00  0.00     0.213 C 
ENDBRANCH  28  30
ENDBRANCH  10  28
TORSDOF 6
ENDMDL
MODEL 7
REMARK VINA RESULT:      -7.6      2.879      4.475
REMARK  6 active torsions:
REMARK  status: ('A' for Active; 'I' for Inactive)
REMARK    1  A    between atoms: C_7  and  S_8 
REMARK    2  A    between atoms: S_8  and  C_9 
REMARK    3  A    between atoms: C_9  and  C_10 
REMARK    4  A    between atoms: C_18  and  C_19 
REMARK    5  A    between atoms: C_26  and  C_27 
REMARK    6  A    between atoms: C_27  and  O_28 
ROOT
HETATM    1  C   UNL     1      41.682  -9.256   7.281  1.00  0.00     0.070 C 
HETATM    2  C   UNL     1      41.350 -10.448   6.417  1.00  0.00     0.037 C 
HETATM    3  N   UNL     1      42.196 -11.545   6.555  1.00  0.00    -0.192 N 
HETATM    4  C   UNL     1      41.893 -12.766   6.072  1.00  0.00     0.726 A 
HETATM    5  N   UNL     1      40.825 -12.910   5.232  1.00  0.00    -0.082 N 
HETATM    6  N   UNL     1      40.605 -14.207   4.934  1.00  0.00    -0.128 NA
HETATM    7  C   UNL     1      41.604 -14.791   5.611  1.00  0.00     0.226 A 
HETATM    8  N   UNL     1      42.423 -13.935   6.306  1.00  0.00    -0.035 NA
HETATM    9  C   UNL     1      39.970 -11.798   4.801  1.00  0.00     0.203 C 
HETATM   10  C   UNL     1      40.273 -10.529   5.595  1.00  0.00     0.070 C 
HETATM   11  H   UNL     1      42.932 -11.483   7.255  1.00  0.00     0.184 HD
ENDROOT
BRANCH   7  12
HETATM   12  S   UNL     1      41.836 -16.515   5.686  1.00  0.00    -0.083 SA
BRANCH  12  13
HETATM   13  C   UNL     1      43.490 -16.690   4.965  1.00  0.00     0.123 C 
BRANCH  13  14
HETATM   14  C   UNL     1      43.655 -18.048   4.320  1.00  0.00    -0.027 A 
HETATM   15  C   UNL     1      43.463 -18.271   2.947  1.00  0.00     0.041 A 
HETATM   16 CL   UNL     1      43.053 -16.995   1.856  1.00  0.00    -0.084 Cl
HETATM   17  C   UNL     1      43.593 -19.557   2.409  1.00  0.00     0.024 A 
HETATM   18  C   UNL     1      43.906 -20.637   3.234  1.00  0.00     0.002 A 
HETATM   19  C   UNL     1      44.092 -20.435   4.598  1.00  0.00     0.001 A 
HETATM   20  C   UNL     1      43.967 -19.153   5.137  1.00  0.00     0.009 A 
ENDBRANCH  13  14
ENDBRANCH  12  13
ENDBRANCH   7  12
BRANCH   9  21
HETATM   21  C   UNL     1      40.113 -11.574   3.295  1.00  0.00    -0.026 A 
HETATM   22  C   UNL     1      38.987 -11.697   2.462  1.00  0.00     0.033 A 
HETATM   23  C   UNL     1      39.096 -11.470   1.090  1.00  0.00     0.034 A 
HETATM   24 CL   UNL     1      37.707 -11.621   0.085  1.00  0.00    -0.084 Cl
HETATM   25  C   UNL     1      40.319 -11.113   0.526  1.00  0.00     0.024 A 
HETATM   26  C   UNL     1      41.443 -10.979   1.341  1.00  0.00     0.002 A 
HETATM   27  C   UNL     1      41.341 -11.204   2.715  1.00  0.00     0.010 A 
ENDBRANCH   9  21
BRANCH  10  28
HETATM   28  C   UNL     1      39.253  -9.474   5.421  1.00  0.00     0.293 C 
HETATM   29  O   UNL     1      38.107  -9.594   5.829  1.00  0.00    -0.259 OA
BRANCH  28  30
HETATM   30  O   UNL     1      39.739  -8.426   4.714  1.00  0.00    -0.323 OA
HETATM   31  C   UNL     1      38.945  -8.073   3.580  1.00  0.00     0.213 C 
ENDBRANCH  28  30
ENDBRANCH  10  28
TORSDOF 6
ENDMDL
MODEL 8
REMARK VINA RESULT:      -7.5      4.285      5.670
REMARK  6 active torsions:
REMARK  status: ('A' for Active; 'I' for Inactive)
REMARK    1  A    between atoms: C_7  and  S_8 
REMARK    2  A    between atoms: S_8  and  C_9 
REMARK    3  A    between atoms: C_9  and  C_10 
REMARK    4  A    between atoms: C_18  and  C_19 
REMARK    5  A    between atoms: C_26  and  C_27 
REMARK    6  A    between atoms: C_27  and  O_28 
ROOT
HETATM    1  C   UNL     1      39.797 -11.955  -2.955  1.00  0.00     0.070 C 
HETATM    2  C   UNL     1      40.117 -12.178  -1.498  1.00  0.00     0.037 C 
HETATM    3  N   UNL     1      39.753 -13.420  -0.985  1.00  0.00    -0.192 N 
HETATM    4  C   UNL     1      40.200 -13.881   0.199  1.00  0.00     0.726 A 
HETATM    5  N   UNL     1      40.863 -13.034   1.042  1.00  0.00    -0.082 N 
HETATM    6  N   UNL     1      41.329 -13.686   2.128  1.00  0.00    -0.128 NA
HETATM    7  C   UNL     1      40.881 -14.927   1.885  1.00  0.00     0.226 A 
HETATM    8  N   UNL     1      40.170 -15.078   0.719  1.00  0.00    -0.035 NA
HETATM    9  C   UNL     1      41.120 -11.621   0.743  1.00  0.00     0.203 C 
HETATM   10  C   UNL     1      40.777 -11.293  -0.708  1.00  0.00     0.070 C 
HETATM   11  H   UNL     1      39.352 -14.094  -1.635  1.00  0.00     0.184 HD
ENDROOT
BRANCH   7  12
HETATM   12  S   UNL     1      41.218 -16.289   2.914  1.00  0.00    -0.083 SA
BRANCH  12  13
HETATM   13  C   UNL     1      42.923 -16.688   2.441  1.00  0.00     0.123 C 
BRANCH  13  14
HETATM   14  C   UNL     1      43.317 -18.055   2.954  1.00  0.00    -0.027 A 
HETATM   15  C   UNL     1      43.908 -18.258   4.212  1.00  0.00     0.041 A 
HETATM   16 CL   UNL     1      44.206 -16.956   5.310  1.00  0.00    -0.084 Cl
HETATM   17  C   UNL     1      44.288 -19.542   4.621  1.00  0.00     0.024 A 
HETATM   18  C   UNL     1      44.092 -20.636   3.780  1.00  0.00     0.002 A 
HETATM   19  C   UNL     1      43.515 -20.451   2.527  1.00  0.00     0.001 A 
HETATM   20  C   UNL     1      43.132 -19.173   2.117  1.00  0.00     0.009 A 
ENDBRANCH  13  14
ENDBRANCH  12  13
ENDBRANCH   7  12
BRANCH   9  21
HETATM   21  C   UNL     1      40.362 -10.726   1.724  1.00  0.00    -0.026 A 
HETATM   22  C   UNL     1      41.073  -9.854   2.566  1.00  0.00     0.033 A 
HETATM   23  C   UNL     1      40.394  -9.012   3.447  1.00  0.00     0.034 A 
HETATM   24 CL   UNL     1      41.280  -7.948   4.468  1.00  0.00    -0.084 Cl
HETATM   25  C   UNL     1      39.002  -9.020   3.502  1.00  0.00     0.024 A 
HETATM   26  C   UNL     1      38.282  -9.874   2.668  1.00  0.00     0.002 A 
HETATM   27  C   UNL     1      38.956 -10.719   1.783  1.00  0.00     0.010 A 
ENDBRANCH   9  21
BRANCH  10  28
HETATM   28  C   UNL     1      41.292  -9.979  -1.147  1.00  0.00     0.293 C 
HETATM   29  O   UNL     1      42.486  -9.715  -1.168  1.00  0.00    -0.259 OA
BRANCH  28  30
HETATM   30  O   UNL     1      40.285  -9.126  -1.447  1.00  0.00    -0.323 OA
HETATM   31  C   UNL     1      40.713  -7.928  -2.099  1.00  0.00     0.213 C 
ENDBRANCH  28  30
ENDBRANCH  10  28
TORSDOF 6
ENDMDL
MODEL 9
REMARK VINA RESULT:      -7.5      3.143      4.090
REMARK  6 active torsions:
REMARK  status: ('A' for Active; 'I' for Inactive)
REMARK    1  A    between atoms: C_7  and  S_8 
REMARK    2  A    between atoms: S_8  and  C_9 
REMARK    3  A    between atoms: C_9  and  C_10 
REMARK    4  A    between atoms: C_18  and  C_19 
REMARK    5  A    between atoms: C_26  and  C_27 
REMARK    6  A    between atoms: C_27  and  O_28 
ROOT
HETATM    1  C   UNL     1      39.020  -6.885   8.171  1.00  0.00     0.070 C 
HETATM    2  C   UNL     1      40.005  -7.973   7.825  1.00  0.00     0.037 C 
HETATM    3  N   UNL     1      39.455  -9.232   7.594  1.00  0.00    -0.192 N 
HETATM    4  C   UNL     1      40.145 -10.236   7.019  1.00  0.00     0.726 A 
HETATM    5  N   UNL     1      41.494 -10.107   6.839  1.00  0.00    -0.082 N 
HETATM    6  N   UNL     1      42.001 -11.155   6.156  1.00  0.00    -0.128 NA
HETATM    7  C   UNL     1      40.897 -11.896   5.981  1.00  0.00     0.226 A 
HETATM    8  N   UNL     1      39.745 -11.370   6.512  1.00  0.00    -0.035 NA
HETATM    9  C   UNL     1      42.263  -8.926   7.248  1.00  0.00     0.203 C 
HETATM   10  C   UNL     1      41.340  -7.784   7.664  1.00  0.00     0.070 C 
HETATM   11  H   UNL     1      38.441  -9.311   7.625  1.00  0.00     0.184 HD
ENDROOT
BRANCH   7  12
HETATM   12  S   UNL     1      40.874 -13.389   5.087  1.00  0.00    -0.083 SA
BRANCH  12  13
HETATM   13  C   UNL     1      42.640 -13.647   4.766  1.00  0.00     0.123 C 
BRANCH  13  14
HETATM   14  C   UNL     1      42.854 -14.853   3.879  1.00  0.00    -0.027 A 
HETATM   15  C   UNL     1      42.872 -16.169   4.369  1.00  0.00     0.041 A 
HETATM   16 CL   UNL     1      42.611 -16.533   6.038  1.00  0.00    -0.084 Cl
HETATM   17  C   UNL     1      43.112 -17.246   3.507  1.00  0.00     0.024 A 
HETATM   18  C   UNL     1      43.346 -17.025   2.151  1.00  0.00     0.002 A 
HETATM   19  C   UNL     1      43.340 -15.727   1.650  1.00  0.00     0.001 A 
HETATM   20  C   UNL     1      43.097 -14.650   2.506  1.00  0.00     0.009 A 
ENDBRANCH  13  14
ENDBRANCH  12  13
ENDBRANCH   7  12
BRANCH   9  21
HETATM   21  C   UNL     1      43.248  -9.295   8.359  1.00  0.00    -0.026 A 
HETATM   22  C   UNL     1      42.764  -9.638   9.633  1.00  0.00     0.033 A 
HETATM   23  C   UNL     1      43.649 -10.003  10.649  1.00  0.00     0.034 A 
HETATM   24 CL   UNL     1      43.040 -10.423  12.203  1.00  0.00    -0.084 Cl
HETATM   25  C   UNL     1      45.021 -10.038  10.414  1.00  0.00     0.024 A 
HETATM   26  C   UNL     1      45.515  -9.709   9.152  1.00  0.00     0.002 A 
HETATM   27  C   UNL     1      44.636  -9.343   8.131  1.00  0.00     0.010 A 
ENDBRANCH   9  21
BRANCH  10  28
HETATM   28  C   UNL     1      42.037  -6.487   7.794  1.00  0.00     0.293 C 
HETATM   29  O   UNL     1      42.203  -5.935   8.873  1.00  0.00    -0.259 OA
BRANCH  28  30
HETATM   30  O   UNL     1      42.390  -5.990   6.586  1.00  0.00    -0.323 OA
HETATM   31  C   UNL     1      41.502  -4.988   6.087  1.00  0.00     0.213 C 
ENDBRANCH  28  30
ENDBRANCH  10  28
TORSDOF 6
ENDMDL
MODEL 10
REMARK VINA RESULT:      -7.5      3.276      4.491
REMARK  6 active torsions:
REMARK  status: ('A' for Active; 'I' for Inactive)
REMARK    1  A    between atoms: C_7  and  S_8 
REMARK    2  A    between atoms: S_8  and  C_9 
REMARK    3  A    between atoms: C_9  and  C_10 
REMARK    4  A    between atoms: C_18  and  C_19 
REMARK    5  A    between atoms: C_26  and  C_27 
REMARK    6  A    between atoms: C_27  and  O_28 
ROOT
HETATM    1  C   UNL     1      37.615 -11.397  -0.250  1.00  0.00     0.070 C 
HETATM    2  C   UNL     1      38.774 -11.834   0.610  1.00  0.00     0.037 C 
HETATM    3  N   UNL     1      39.079 -13.192   0.564  1.00  0.00    -0.192 N 
HETATM    4  C   UNL     1      40.230 -13.699   1.047  1.00  0.00     0.726 A 
HETATM    5  N   UNL     1      41.048 -12.906   1.802  1.00  0.00    -0.082 N 
HETATM    6  N   UNL     1      42.199 -13.540   2.110  1.00  0.00    -0.128 NA
HETATM    7  C   UNL     1      41.992 -14.730   1.528  1.00  0.00     0.226 A 
HETATM    8  N   UNL     1      40.787 -14.867   0.882  1.00  0.00    -0.035 NA
HETATM    9  C   UNL     1      40.748 -11.510   2.139  1.00  0.00     0.203 C 
HETATM   10  C   UNL     1      39.550 -10.996   1.345  1.00  0.00     0.070 C 
HETATM   11  H   UNL     1      38.539 -13.770  -0.077  1.00  0.00     0.184 HD
ENDROOT
BRANCH   7  12
HETATM   12  S   UNL     1      43.171 -16.009   1.509  1.00  0.00    -0.083 SA
BRANCH  12  13
HETATM   13  C   UNL     1      43.153 -16.545   3.241  1.00  0.00     0.123 C 
BRANCH  13  14
HETATM   14  C   UNL     1      43.389 -18.035   3.346  1.00  0.00    -0.027 A 
HETATM   15  C   UNL     1      43.861 -18.654   4.515  1.00  0.00     0.041 A 
HETATM   16 CL   UNL     1      44.184 -17.764   5.961  1.00  0.00    -0.084 Cl
HETATM   17  C   UNL     1      44.097 -20.034   4.544  1.00  0.00     0.024 A 
HETATM   18  C   UNL     1      43.873 -20.811   3.408  1.00  0.00     0.002 A 
HETATM   19  C   UNL     1      43.413 -20.212   2.240  1.00  0.00     0.001 A 
HETATM   20  C   UNL     1      43.173 -18.837   2.208  1.00  0.00     0.009 A 
ENDBRANCH  13  14
ENDBRANCH  12  13
ENDBRANCH   7  12
BRANCH   9  21
HETATM   21  C   UNL     1      40.536 -11.364   3.647  1.00  0.00    -0.026 A 
HETATM   22  C   UNL     1      41.404 -10.552   4.397  1.00  0.00     0.033 A 
HETATM   23  C   UNL     1      41.208 -10.387   5.768  1.00  0.00     0.034 A 
HETATM   24 CL   UNL     1      42.278  -9.387   6.672  1.00  0.00    -0.084 Cl
HETATM   25  C   UNL     1      40.148 -11.020   6.413  1.00  0.00     0.024 A 
HETATM   26  C   UNL     1      39.273 -11.822   5.681  1.00  0.00     0.002 A 
HETATM   27  C   UNL     1      39.463 -11.990   4.307  1.00  0.00     0.010 A 
ENDBRANCH   9  21
BRANCH  10  28
HETATM   28  C   UNL     1      39.389  -9.529   1.414  1.00  0.00     0.293 C 
HETATM   29  O   UNL     1      38.440  -8.997   1.973  1.00  0.00    -0.259 OA
BRANCH  28  30
HETATM   30  O   UNL     1      40.371  -8.890   0.736  1.00  0.00    -0.323 OA
HETATM   31  C   UNL     1      40.035  -8.576  -0.617  1.00  0.00     0.213 C 
ENDBRANCH  28  30
ENDBRANCH  10  28
TORSDOF 6
ENDMDL
