MODEL 1
REMARK VINA RESULT:      -8.0      0.000      0.000
REMARK  4 active torsions:
REMARK  status: ('A' for Active; 'I' for Inactive)
REMARK    1  A    between atoms: C_9  and  C_10 
REMARK       I    between atoms: C_10  and  N_11 
REMARK    2  A    between atoms: N_11  and  C_12 
REMARK    3  A    between atoms: C_12  and  C_13 
REMARK    4  A    between atoms: C_14  and  O_15 
ROOT
HETATM    1  C   UNL     1      43.497 -13.160   6.782  1.00  0.00     0.273 C 
HETATM    2  N   UNL     1      42.632 -13.031   5.718  1.00  0.00    -0.347 N 
HETATM    3  O   UNL     1      43.431 -14.060   7.614  1.00  0.00    -0.266 OA
HETATM    4  H   UNL     1      42.918 -12.335   5.035  1.00  0.00     0.163 HD
ENDROOT
BRANCH   1   5
HETATM    5  C   UNL     1      44.528 -12.109   6.816  1.00  0.00     0.157 A 
HETATM    6  C   UNL     1      44.734 -11.132   7.835  1.00  0.00     0.029 A 
HETATM    7  C   UNL     1      44.114 -10.790   9.053  1.00  0.00     0.023 A 
HETATM    8  C   UNL     1      45.832 -10.394   7.411  1.00  0.00     0.063 A 
HETATM    9  C   UNL     1      44.615  -9.713   9.806  1.00  0.00    -0.061 A 
HETATM   10  C   UNL     1      43.957  -9.318  11.096  1.00  0.00     0.048 C 
HETATM   11  C   UNL     1      45.727  -8.999   9.345  1.00  0.00     0.009 A 
HETATM   12  C   UNL     1      46.361  -9.325   8.139  1.00  0.00     0.032 A 
HETATM   13  N   UNL     1      46.201 -10.949   6.217  1.00  0.00    -0.277 N 
HETATM   14  H   UNL     1      46.970 -10.666   5.623  1.00  0.00     0.189 HD
HETATM   15  N   UNL     1      45.432 -11.977   5.818  1.00  0.00    -0.168 NA
ENDBRANCH   1   5
BRANCH   2  16
HETATM   16  C   UNL     1      41.708 -14.074   5.311  1.00  0.00     0.116 C 
HETATM   17  C   UNL     1      40.309 -13.521   5.004  1.00  0.00     0.037 C 
BRANCH  16  18
HETATM   18  C   UNL     1      42.306 -14.837   4.132  1.00  0.00    -0.003 A 
HETATM   19  C   UNL     1      42.558 -16.223   4.219  1.00  0.00     0.076 A 
HETATM   20  C   UNL     1      43.111 -16.901   3.125  1.00  0.00     0.037 A 
HETATM   21  C   UNL     1      43.445 -16.213   1.957  1.00  0.00     0.003 A 
HETATM   22  C   UNL     1      43.236 -14.842   1.874  1.00  0.00     0.001 A 
HETATM   23  C   UNL     1      42.679 -14.159   2.954  1.00  0.00     0.012 A 
BRANCH  19  24
HETATM   24  O   UNL     1      42.221 -16.828   5.402  1.00  0.00    -0.355 OA
HETATM   25  C   UNL     1      43.225 -17.598   6.051  1.00  0.00     0.210 C 
ENDBRANCH  19  24
ENDBRANCH  16  18
ENDBRANCH   2  16
TORSDOF 4
ENDMDL
MODEL 2
REMARK VINA RESULT:      -7.9      1.101      2.005
REMARK  4 active torsions:
REMARK  status: ('A' for Active; 'I' for Inactive)
REMARK    1  A    between atoms: C_9  and  C_10 
REMARK       I    between atoms: C_10  and  N_11 
REMARK    2  A    between atoms: N_11  and  C_12 
REMARK    3  A    between atoms: C_12  and  C_13 
REMARK    4  A    between atoms: C_14  and  O_15 
ROOT
HETATM    1  C   UNL     1      43.532 -13.201   6.829  1.00  0.00     0.273 C 
HETATM    2  N   UNL     1      42.724 -13.157   5.714  1.00  0.00    -0.347 N 
HETATM    3  O   UNL     1      43.436 -14.048   7.712  1.00  0.00    -0.266 OA
HETATM    4  H   UNL     1      43.035 -12.500   5.004  1.00  0.00     0.163 HD
ENDROOT
BRANCH   1   5
HETATM    5  C   UNL     1      44.542 -12.129   6.850  1.00  0.00     0.157 A 
HETATM    6  C   UNL     1      44.734 -11.143   7.863  1.00  0.00     0.029 A 
HETATM    7  C   UNL     1      44.116 -10.808   9.084  1.00  0.00     0.023 A 
HETATM    8  C   UNL     1      45.814 -10.385   7.428  1.00  0.00     0.063 A 
HETATM    9  C   UNL     1      44.600  -9.717   9.828  1.00  0.00    -0.061 A 
HETATM   10  C   UNL     1      43.943  -9.329  11.121  1.00  0.00     0.048 C 
HETATM   11  C   UNL     1      45.694  -8.983   9.356  1.00  0.00     0.009 A 
HETATM   12  C   UNL     1      46.326  -9.302   8.147  1.00  0.00     0.032 A 
HETATM   13  N   UNL     1      46.186 -10.938   6.234  1.00  0.00    -0.277 N 
HETATM   14  H   UNL     1      46.945 -10.642   5.633  1.00  0.00     0.189 HD
HETATM   15  N   UNL     1      45.435 -11.983   5.846  1.00  0.00    -0.168 NA
ENDBRANCH   1   5
BRANCH   2  16
HETATM   16  C   UNL     1      41.842 -14.242   5.326  1.00  0.00     0.116 C 
HETATM   17  C   UNL     1      40.390 -13.774   5.150  1.00  0.00     0.037 C 
BRANCH  16  18
HETATM   18  C   UNL     1      42.396 -14.911   4.070  1.00  0.00    -0.003 A 
HETATM   19  C   UNL     1      42.858 -14.139   2.983  1.00  0.00     0.076 A 
HETATM   20  C   UNL     1      43.359 -14.775   1.840  1.00  0.00     0.037 A 
HETATM   21  C   UNL     1      43.379 -16.168   1.753  1.00  0.00     0.003 A 
HETATM   22  C   UNL     1      42.892 -16.938   2.803  1.00  0.00     0.001 A 
HETATM   23  C   UNL     1      42.398 -16.314   3.948  1.00  0.00     0.012 A 
BRANCH  19  24
HETATM   24  O   UNL     1      42.792 -12.778   3.134  1.00  0.00    -0.355 OA
HETATM   25  C   UNL     1      42.004 -12.056   2.196  1.00  0.00     0.210 C 
ENDBRANCH  19  24
ENDBRANCH  16  18
ENDBRANCH   2  16
TORSDOF 4
ENDMDL
MODEL 3
REMARK VINA RESULT:      -7.8      2.069      7.429
REMARK  4 active torsions:
REMARK  status: ('A' for Active; 'I' for Inactive)
REMARK    1  A    between atoms: C_9  and  C_10 
REMARK       I    between atoms: C_10  and  N_11 
REMARK    2  A    between atoms: N_11  and  C_12 
REMARK    3  A    between atoms: C_12  and  C_13 
REMARK    4  A    between atoms: C_14  and  O_15 
ROOT
HETATM    1  C   UNL     1      43.190 -13.112   6.180  1.00  0.00     0.273 C 
HETATM    2  N   UNL     1      42.800 -12.213   7.148  1.00  0.00    -0.347 N 
HETATM    3  O   UNL     1      43.484 -12.796   5.030  1.00  0.00    -0.266 OA
HETATM    4  H   UNL     1      42.751 -12.609   8.083  1.00  0.00     0.163 HD
ENDROOT
BRANCH   1   5
HETATM    5  C   UNL     1      43.232 -14.501   6.667  1.00  0.00     0.157 A 
HETATM    6  C   UNL     1      43.324 -15.690   5.885  1.00  0.00     0.029 A 
HETATM    7  C   UNL     1      43.380 -15.999   4.511  1.00  0.00     0.023 A 
HETATM    8  C   UNL     1      43.351 -16.728   6.807  1.00  0.00     0.063 A 
HETATM    9  C   UNL     1      43.456 -17.344   4.107  1.00  0.00    -0.061 A 
HETATM   10  C   UNL     1      43.495 -17.697   2.648  1.00  0.00     0.048 C 
HETATM   11  C   UNL     1      43.486 -18.359   5.070  1.00  0.00     0.009 A 
HETATM   12  C   UNL     1      43.436 -18.073   6.440  1.00  0.00     0.032 A 
HETATM   13  N   UNL     1      43.277 -16.125   8.032  1.00  0.00    -0.277 N 
HETATM   14  H   UNL     1      43.275 -16.578   8.937  1.00  0.00     0.189 HD
HETATM   15  N   UNL     1      43.191 -14.785   7.989  1.00  0.00    -0.168 NA
ENDBRANCH   1   5
BRANCH   2  16
HETATM   16  C   UNL     1      42.936 -10.775   7.002  1.00  0.00     0.116 C 
HETATM   17  C   UNL     1      41.659 -10.126   6.449  1.00  0.00     0.037 C 
BRANCH  16  18
HETATM   18  C   UNL     1      43.365 -10.176   8.339  1.00  0.00    -0.003 A 
HETATM   19  C   UNL     1      44.638 -10.453   8.882  1.00  0.00     0.076 A 
HETATM   20  C   UNL     1      45.007  -9.895  10.112  1.00  0.00     0.037 A 
HETATM   21  C   UNL     1      44.116  -9.091  10.824  1.00  0.00     0.003 A 
HETATM   22  C   UNL     1      42.846  -8.842  10.317  1.00  0.00     0.001 A 
HETATM   23  C   UNL     1      42.472  -9.387   9.090  1.00  0.00     0.012 A 
BRANCH  19  24
HETATM   24  O   UNL     1      45.453 -11.264   8.135  1.00  0.00    -0.355 OA
HETATM   25  C   UNL     1      46.528 -10.645   7.439  1.00  0.00     0.210 C 
ENDBRANCH  19  24
ENDBRANCH  16  18
ENDBRANCH   2  16
TORSDOF 4
ENDMDL
MODEL 4
REMARK VINA RESULT:      -7.7      4.107      7.469
REMARK  4 active torsions:
REMARK  status: ('A' for Active; 'I' for Inactive)
REMARK    1  A    between atoms: C_9  and  C_10 
REMARK       I    between atoms: C_10  and  N_11 
REMARK    2  A    between atoms: N_11  and  C_12 
REMARK    3  A    between atoms: C_12  and  C_13 
REMARK    4  A    between atoms: C_14  and  O_15 
ROOT
HETATM    1  C   UNL     1      42.978 -14.813   2.368  1.00  0.00     0.273 C 
HETATM    2  N   UNL     1      41.692 -14.321   2.357  1.00  0.00    -0.347 N 
HETATM    3  O   UNL     1      43.824 -14.542   1.521  1.00  0.00    -0.266 OA
HETATM    4  H   UNL     1      41.171 -14.508   3.209  1.00  0.00     0.163 HD
ENDROOT
BRANCH   1   5
HETATM    5  C   UNL     1      43.246 -15.696   3.516  1.00  0.00     0.157 A 
HETATM    6  C   UNL     1      43.462 -17.106   3.491  1.00  0.00     0.029 A 
HETATM    7  C   UNL     1      43.484 -18.112   2.505  1.00  0.00     0.023 A 
HETATM    8  C   UNL     1      43.690 -17.460   4.815  1.00  0.00     0.063 A 
HETATM    9  C   UNL     1      43.729 -19.445   2.881  1.00  0.00    -0.061 A 
HETATM   10  C   UNL     1      43.734 -20.536   1.849  1.00  0.00     0.048 C 
HETATM   11  C   UNL     1      43.958 -19.757   4.226  1.00  0.00     0.009 A 
HETATM   12  C   UNL     1      43.945 -18.772   5.221  1.00  0.00     0.032 A 
HETATM   13  N   UNL     1      43.600 -16.293   5.521  1.00  0.00    -0.277 N 
HETATM   14  H   UNL     1      43.715 -16.172   6.520  1.00  0.00     0.189 HD
HETATM   15  N   UNL     1      43.321 -15.210   4.776  1.00  0.00    -0.168 NA
ENDBRANCH   1   5
BRANCH   2  16
HETATM   16  C   UNL     1      41.262 -13.234   1.497  1.00  0.00     0.116 C 
HETATM   17  C   UNL     1      40.205 -13.684   0.478  1.00  0.00     0.037 C 
BRANCH  16  18
HETATM   18  C   UNL     1      40.782 -12.073   2.364  1.00  0.00    -0.003 A 
HETATM   19  C   UNL     1      41.702 -11.173   2.943  1.00  0.00     0.076 A 
HETATM   20  C   UNL     1      41.237 -10.117   3.738  1.00  0.00     0.037 A 
HETATM   21  C   UNL     1      39.873  -9.963   3.989  1.00  0.00     0.003 A 
HETATM   22  C   UNL     1      38.961 -10.865   3.454  1.00  0.00     0.001 A 
HETATM   23  C   UNL     1      39.413 -11.914   2.655  1.00  0.00     0.012 A 
BRANCH  19  24
HETATM   24  O   UNL     1      43.026 -11.397   2.667  1.00  0.00    -0.355 OA
HETATM   25  C   UNL     1      43.897 -11.602   3.773  1.00  0.00     0.210 C 
ENDBRANCH  19  24
ENDBRANCH  16  18
ENDBRANCH   2  16
TORSDOF 4
ENDMDL
MODEL 5
REMARK VINA RESULT:      -7.5      4.334      8.412
REMARK  4 active torsions:
REMARK  status: ('A' for Active; 'I' for Inactive)
REMARK    1  A    between atoms: C_9  and  C_10 
REMARK       I    between atoms: C_10  and  N_11 
REMARK    2  A    between atoms: N_11  and  C_12 
REMARK    3  A    between atoms: C_12  and  C_13 
REMARK    4  A    between atoms: C_14  and  O_15 
ROOT
HETATM    1  C   UNL     1      40.687 -15.529   1.379  1.00  0.00     0.273 C 
HETATM    2  N   UNL     1      41.848 -15.793   2.071  1.00  0.00    -0.347 N 
HETATM    3  O   UNL     1      39.711 -16.274   1.370  1.00  0.00    -0.266 OA
HETATM    4  H   UNL     1      42.493 -15.008   2.110  1.00  0.00     0.163 HD
ENDROOT
BRANCH   1   5
HETATM    5  C   UNL     1      40.726 -14.248   0.655  1.00  0.00     0.157 A 
HETATM    6  C   UNL     1      40.118 -13.944  -0.599  1.00  0.00     0.029 A 
HETATM    7  C   UNL     1      39.352 -14.645  -1.552  1.00  0.00     0.023 A 
HETATM    8  C   UNL     1      40.427 -12.611  -0.838  1.00  0.00     0.063 A 
HETATM    9  C   UNL     1      38.926 -13.985  -2.718  1.00  0.00    -0.061 A 
HETATM   10  C   UNL     1      38.128 -14.719  -3.757  1.00  0.00     0.048 C 
HETATM   11  C   UNL     1      39.256 -12.639  -2.916  1.00  0.00     0.009 A 
HETATM   12  C   UNL     1      40.012 -11.923  -1.980  1.00  0.00     0.032 A 
HETATM   13  N   UNL     1      41.170 -12.215   0.240  1.00  0.00    -0.277 N 
HETATM   14  H   UNL     1      41.566 -11.298   0.406  1.00  0.00     0.189 HD
HETATM   15  N   UNL     1      41.382 -13.176   1.155  1.00  0.00    -0.168 NA
ENDBRANCH   1   5
BRANCH   2  16
HETATM   16  C   UNL     1      41.963 -16.842   3.067  1.00  0.00     0.116 C 
HETATM   17  C   UNL     1      42.587 -18.122   2.491  1.00  0.00     0.037 C 
BRANCH  16  18
HETATM   18  C   UNL     1      42.734 -16.306   4.270  1.00  0.00    -0.003 A 
HETATM   19  C   UNL     1      42.359 -15.095   4.890  1.00  0.00     0.076 A 
HETATM   20  C   UNL     1      43.084 -14.622   5.991  1.00  0.00     0.037 A 
HETATM   21  C   UNL     1      44.195 -15.321   6.464  1.00  0.00     0.003 A 
HETATM   22  C   UNL     1      44.596 -16.496   5.838  1.00  0.00     0.001 A 
HETATM   23  C   UNL     1      43.876 -16.980   4.747  1.00  0.00     0.012 A 
BRANCH  19  24
HETATM   24  O   UNL     1      41.269 -14.455   4.360  1.00  0.00    -0.355 OA
HETATM   25  C   UNL     1      40.318 -13.922   5.273  1.00  0.00     0.210 C 
ENDBRANCH  19  24
ENDBRANCH  16  18
ENDBRANCH   2  16
TORSDOF 4
ENDMDL
MODEL 6
REMARK VINA RESULT:      -7.4      5.065      7.881
REMARK  4 active torsions:
REMARK  status: ('A' for Active; 'I' for Inactive)
REMARK    1  A    between atoms: C_9  and  C_10 
REMARK       I    between atoms: C_10  and  N_11 
REMARK    2  A    between atoms: N_11  and  C_12 
REMARK    3  A    between atoms: C_12  and  C_13 
REMARK    4  A    between atoms: C_14  and  O_15 
ROOT
HETATM    1  C   UNL     1      40.767 -14.538   2.145  1.00  0.00     0.273 C 
HETATM    2  N   UNL     1      41.969 -14.717   2.794  1.00  0.00    -0.347 N 
HETATM    3  O   UNL     1      39.751 -15.180   2.394  1.00  0.00    -0.266 OA
HETATM    4  H   UNL     1      42.661 -14.001   2.587  1.00  0.00     0.163 HD
ENDROOT
BRANCH   1   5
HETATM    5  C   UNL     1      40.819 -13.481   1.121  1.00  0.00     0.157 A 
HETATM    6  C   UNL     1      40.276 -13.527  -0.198  1.00  0.00     0.029 A 
HETATM    7  C   UNL     1      39.581 -14.474  -0.977  1.00  0.00     0.023 A 
HETATM    8  C   UNL     1      40.568 -12.288  -0.753  1.00  0.00     0.063 A 
HETATM    9  C   UNL     1      39.207 -14.147  -2.292  1.00  0.00    -0.061 A 
HETATM   10  C   UNL     1      38.486 -15.149  -3.148  1.00  0.00     0.048 C 
HETATM   11  C   UNL     1      39.517 -12.884  -2.811  1.00  0.00     0.009 A 
HETATM   12  C   UNL     1      40.202 -11.927  -2.052  1.00  0.00     0.032 A 
HETATM   13  N   UNL     1      41.239 -11.605   0.223  1.00  0.00    -0.277 N 
HETATM   14  H   UNL     1      41.603 -10.661   0.169  1.00  0.00     0.189 HD
HETATM   15  N   UNL     1      41.421 -12.294   1.362  1.00  0.00    -0.168 NA
ENDBRANCH   1   5
BRANCH   2  16
HETATM   16  C   UNL     1      42.110 -15.495   4.011  1.00  0.00     0.116 C 
HETATM   17  C   UNL     1      40.772 -15.668   4.745  1.00  0.00     0.037 C 
BRANCH  16  18
HETATM   18  C   UNL     1      42.770 -16.830   3.676  1.00  0.00    -0.003 A 
HETATM   19  C   UNL     1      43.768 -17.374   4.512  1.00  0.00     0.076 A 
HETATM   20  C   UNL     1      44.362 -18.599   4.181  1.00  0.00     0.037 A 
HETATM   21  C   UNL     1      43.998 -19.274   3.016  1.00  0.00     0.003 A 
HETATM   22  C   UNL     1      43.042 -18.729   2.166  1.00  0.00     0.001 A 
HETATM   23  C   UNL     1      42.440 -17.515   2.490  1.00  0.00     0.012 A 
BRANCH  19  24
HETATM   24  O   UNL     1      44.086 -16.647   5.629  1.00  0.00    -0.355 OA
HETATM   25  C   UNL     1      43.688 -17.178   6.888  1.00  0.00     0.210 C 
ENDBRANCH  19  24
ENDBRANCH  16  18
ENDBRANCH   2  16
TORSDOF 4
ENDMDL
MODEL 7
REMARK VINA RESULT:      -7.4      5.021      7.736
REMARK  4 active torsions:
REMARK  status: ('A' for Active; 'I' for Inactive)
REMARK    1  A    between atoms: C_9  and  C_10 
REMARK       I    between atoms: C_10  and  N_11 
REMARK    2  A    between atoms: N_11  and  C_12 
REMARK    3  A    between atoms: C_12  and  C_13 
REMARK    4  A    between atoms: C_14  and  O_15 
ROOT
HETATM    1  C   UNL     1      41.112 -14.142   1.989  1.00  0.00     0.273 C 
HETATM    2  N   UNL     1      40.907 -15.306   2.696  1.00  0.00    -0.347 N 
HETATM    3  O   UNL     1      41.759 -13.188   2.411  1.00  0.00    -0.266 OA
HETATM    4  H   UNL     1      40.494 -16.055   2.148  1.00  0.00     0.163 HD
ENDROOT
BRANCH   1   5
HETATM    5  C   UNL     1      40.482 -14.159   0.658  1.00  0.00     0.157 A 
HETATM    6  C   UNL     1      40.539 -13.140  -0.339  1.00  0.00     0.029 A 
HETATM    7  C   UNL     1      41.116 -11.860  -0.450  1.00  0.00     0.023 A 
HETATM    8  C   UNL     1      39.809 -13.641  -1.409  1.00  0.00     0.063 A 
HETATM    9  C   UNL     1      40.937 -11.120  -1.632  1.00  0.00    -0.061 A 
HETATM   10  C   UNL     1      41.525  -9.744  -1.763  1.00  0.00     0.048 C 
HETATM   11  C   UNL     1      40.198 -11.665  -2.689  1.00  0.00     0.009 A 
HETATM   12  C   UNL     1      39.620 -12.937  -2.601  1.00  0.00     0.032 A 
HETATM   13  N   UNL     1      39.378 -14.875  -1.007  1.00  0.00    -0.277 N 
HETATM   14  H   UNL     1      38.819 -15.531  -1.538  1.00  0.00     0.189 HD
HETATM   15  N   UNL     1      39.753 -15.218   0.237  1.00  0.00    -0.168 NA
ENDBRANCH   1   5
BRANCH   2  16
HETATM   16  C   UNL     1      41.638 -15.643   3.904  1.00  0.00     0.116 C 
HETATM   17  C   UNL     1      40.703 -15.872   5.101  1.00  0.00     0.037 C 
BRANCH  16  18
HETATM   18  C   UNL     1      42.535 -16.846   3.626  1.00  0.00    -0.003 A 
HETATM   19  C   UNL     1      43.665 -17.109   4.429  1.00  0.00     0.076 A 
HETATM   20  C   UNL     1      44.476 -18.216   4.151  1.00  0.00     0.037 A 
HETATM   21  C   UNL     1      44.195 -19.049   3.067  1.00  0.00     0.003 A 
HETATM   22  C   UNL     1      43.106 -18.778   2.246  1.00  0.00     0.001 A 
HETATM   23  C   UNL     1      42.288 -17.683   2.519  1.00  0.00     0.012 A 
BRANCH  19  24
HETATM   24  O   UNL     1      43.888 -16.239   5.465  1.00  0.00    -0.355 OA
HETATM   25  C   UNL     1      44.253 -16.799   6.720  1.00  0.00     0.210 C 
ENDBRANCH  19  24
ENDBRANCH  16  18
ENDBRANCH   2  16
TORSDOF 4
ENDMDL
MODEL 8
REMARK VINA RESULT:      -7.3      1.905      7.419
REMARK  4 active torsions:
REMARK  status: ('A' for Active; 'I' for Inactive)
REMARK    1  A    between atoms: C_9  and  C_10 
REMARK       I    between atoms: C_10  and  N_11 
REMARK    2  A    between atoms: N_11  and  C_12 
REMARK    3  A    between atoms: C_12  and  C_13 
REMARK    4  A    between atoms: C_14  and  O_15 
ROOT
HETATM    1  C   UNL     1      43.260 -13.736   6.316  1.00  0.00     0.273 C 
HETATM    2  N   UNL     1      43.955 -12.565   6.112  1.00  0.00    -0.347 N 
HETATM    3  O   UNL     1      43.232 -14.340   7.384  1.00  0.00    -0.266 OA
HETATM    4  H   UNL     1      43.745 -12.108   5.229  1.00  0.00     0.163 HD
ENDROOT
BRANCH   1   5
HETATM    5  C   UNL     1      42.535 -14.191   5.117  1.00  0.00     0.157 A 
HETATM    6  C   UNL     1      42.724 -15.412   4.404  1.00  0.00     0.029 A 
HETATM    7  C   UNL     1      43.575 -16.530   4.512  1.00  0.00     0.023 A 
HETATM    8  C   UNL     1      41.793 -15.377   3.374  1.00  0.00     0.063 A 
HETATM    9  C   UNL     1      43.468 -17.575   3.578  1.00  0.00    -0.061 A 
HETATM   10  C   UNL     1      44.380 -18.765   3.661  1.00  0.00     0.048 C 
HETATM   11  C   UNL     1      42.512 -17.501   2.558  1.00  0.00     0.009 A 
HETATM   12  C   UNL     1      41.653 -16.402   2.435  1.00  0.00     0.032 A 
HETATM   13  N   UNL     1      41.133 -14.189   3.525  1.00  0.00    -0.277 N 
HETATM   14  H   UNL     1      40.381 -13.829   2.950  1.00  0.00     0.189 HD
HETATM   15  N   UNL     1      41.560 -13.441   4.557  1.00  0.00    -0.168 NA
ENDBRANCH   1   5
BRANCH   2  16
HETATM   16  C   UNL     1      44.521 -11.776   7.191  1.00  0.00     0.116 C 
HETATM   17  C   UNL     1      45.905 -11.214   6.834  1.00  0.00     0.037 C 
BRANCH  16  18
HETATM   18  C   UNL     1      43.530 -10.683   7.583  1.00  0.00    -0.003 A 
HETATM   19  C   UNL     1      43.338 -10.330   8.936  1.00  0.00     0.076 A 
HETATM   20  C   UNL     1      42.420  -9.327   9.271  1.00  0.00     0.037 A 
HETATM   21  C   UNL     1      41.668  -8.691   8.281  1.00  0.00     0.003 A 
HETATM   22  C   UNL     1      41.822  -9.057   6.950  1.00  0.00     0.001 A 
HETATM   23  C   UNL     1      42.739 -10.049   6.605  1.00  0.00     0.012 A 
BRANCH  19  24
HETATM   24  O   UNL     1      44.098 -11.009   9.853  1.00  0.00    -0.355 OA
HETATM   25  C   UNL     1      43.936 -10.658  11.222  1.00  0.00     0.210 C 
ENDBRANCH  19  24
ENDBRANCH  16  18
ENDBRANCH   2  16
TORSDOF 4
ENDMDL
MODEL 9
REMARK VINA RESULT:      -7.2      4.688      6.821
REMARK  4 active torsions:
REMARK  status: ('A' for Active; 'I' for Inactive)
REMARK    1  A    between atoms: C_9  and  C_10 
REMARK       I    between atoms: C_10  and  N_11 
REMARK    2  A    between atoms: N_11  and  C_12 
REMARK    3  A    between atoms: C_12  and  C_13 
REMARK    4  A    between atoms: C_14  and  O_15 
ROOT
HETATM    1  C   UNL     1      40.574 -12.726   4.486  1.00  0.00     0.273 C 
HETATM    2  N   UNL     1      40.089 -13.954   4.880  1.00  0.00    -0.347 N 
HETATM    3  O   UNL     1      41.658 -12.272   4.840  1.00  0.00    -0.266 OA
HETATM    4  H   UNL     1      39.260 -14.251   4.374  1.00  0.00     0.163 HD
ENDROOT
BRANCH   1   5
HETATM    5  C   UNL     1      39.661 -12.010   3.579  1.00  0.00     0.157 A 
HETATM    6  C   UNL     1      39.422 -12.284   2.200  1.00  0.00     0.029 A 
HETATM    7  C   UNL     1      39.906 -13.205   1.249  1.00  0.00     0.023 A 
HETATM    8  C   UNL     1      38.472 -11.351   1.806  1.00  0.00     0.063 A 
HETATM    9  C   UNL     1      39.422 -13.155  -0.071  1.00  0.00    -0.061 A 
HETATM   10  C   UNL     1      39.939 -14.112  -1.105  1.00  0.00     0.048 C 
HETATM   11  C   UNL     1      38.460 -12.202  -0.424  1.00  0.00     0.009 A 
HETATM   12  C   UNL     1      37.962 -11.281   0.506  1.00  0.00     0.032 A 
HETATM   13  N   UNL     1      38.210 -10.608   2.923  1.00  0.00    -0.277 N 
HETATM   14  H   UNL     1      37.560  -9.836   3.007  1.00  0.00     0.189 HD
HETATM   15  N   UNL     1      38.916 -10.966   4.009  1.00  0.00    -0.168 NA
ENDBRANCH   1   5
BRANCH   2  16
HETATM   16  C   UNL     1      40.902 -14.956   5.544  1.00  0.00     0.116 C 
HETATM   17  C   UNL     1      40.089 -15.792   6.544  1.00  0.00     0.037 C 
BRANCH  16  18
HETATM   18  C   UNL     1      41.594 -15.816   4.489  1.00  0.00    -0.003 A 
HETATM   19  C   UNL     1      42.894 -16.320   4.705  1.00  0.00     0.076 A 
HETATM   20  C   UNL     1      43.510 -17.104   3.721  1.00  0.00     0.037 A 
HETATM   21  C   UNL     1      42.861 -17.368   2.514  1.00  0.00     0.003 A 
HETATM   22  C   UNL     1      41.595 -16.846   2.276  1.00  0.00     0.001 A 
HETATM   23  C   UNL     1      40.971 -16.071   3.252  1.00  0.00     0.012 A 
BRANCH  19  24
HETATM   24  O   UNL     1      43.475 -16.006   5.906  1.00  0.00    -0.355 OA
HETATM   25  C   UNL     1      43.704 -17.073   6.819  1.00  0.00     0.210 C 
ENDBRANCH  19  24
ENDBRANCH  16  18
ENDBRANCH   2  16
TORSDOF 4
ENDMDL
MODEL 10
REMARK VINA RESULT:      -7.2      2.812      7.290
REMARK  4 active torsions:
REMARK  status: ('A' for Active; 'I' for Inactive)
REMARK    1  A    between atoms: C_9  and  C_10 
REMARK       I    between atoms: C_10  and  N_11 
REMARK    2  A    between atoms: N_11  and  C_12 
REMARK    3  A    between atoms: C_12  and  C_13 
REMARK    4  A    between atoms: C_14  and  O_15 
ROOT
HETATM    1  C   UNL     1      43.229 -15.232   5.060  1.00  0.00     0.273 C 
HETATM    2  N   UNL     1      43.024 -13.909   4.737  1.00  0.00    -0.347 N 
HETATM    3  O   UNL     1      43.388 -15.641   6.207  1.00  0.00    -0.266 OA
HETATM    4  H   UNL     1      42.748 -13.758   3.770  1.00  0.00     0.163 HD
ENDROOT
BRANCH   1   5
HETATM    5  C   UNL     1      43.226 -16.119   3.884  1.00  0.00     0.157 A 
HETATM    6  C   UNL     1      43.461 -17.526   3.861  1.00  0.00     0.029 A 
HETATM    7  C   UNL     1      43.776 -18.518   4.812  1.00  0.00     0.023 A 
HETATM    8  C   UNL     1      43.328 -17.893   2.529  1.00  0.00     0.063 A 
HETATM    9  C   UNL     1      43.952 -19.848   4.391  1.00  0.00    -0.061 A 
HETATM   10  C   UNL     1      44.309 -20.917   5.383  1.00  0.00     0.048 C 
HETATM   11  C   UNL     1      43.803 -20.175   3.038  1.00  0.00     0.009 A 
HETATM   12  C   UNL     1      43.486 -19.206   2.078  1.00  0.00     0.032 A 
HETATM   13  N   UNL     1      43.034 -16.735   1.863  1.00  0.00    -0.277 N 
HETATM   14  H   UNL     1      42.866 -16.626   0.870  1.00  0.00     0.189 HD
HETATM   15  N   UNL     1      42.976 -15.642   2.643  1.00  0.00    -0.168 NA
ENDBRANCH   1   5
BRANCH   2  16
HETATM   16  C   UNL     1      42.717 -12.886   5.720  1.00  0.00     0.116 C 
HETATM   17  C   UNL     1      43.977 -12.374   6.434  1.00  0.00     0.037 C 
BRANCH  16  18
HETATM   18  C   UNL     1      41.931 -11.765   5.046  1.00  0.00    -0.003 A 
HETATM   19  C   UNL     1      40.724 -12.035   4.365  1.00  0.00     0.076 A 
HETATM   20  C   UNL     1      40.022 -10.991   3.750  1.00  0.00     0.037 A 
HETATM   21  C   UNL     1      40.519  -9.687   3.779  1.00  0.00     0.003 A 
HETATM   22  C   UNL     1      41.725  -9.416   4.416  1.00  0.00     0.001 A 
HETATM   23  C   UNL     1      42.427 -10.447   5.036  1.00  0.00     0.012 A 
BRANCH  19  24
HETATM   24  O   UNL     1      40.308 -13.341   4.364  1.00  0.00    -0.355 OA
HETATM   25  C   UNL     1      39.866 -13.884   3.126  1.00  0.00     0.210 C 
ENDBRANCH  19  24
ENDBRANCH  16  18
ENDBRANCH   2  16
TORSDOF 4
ENDMDL
