MODEL 1
REMARK VINA RESULT:      -9.0      0.000      0.000
REMARK  5 active torsions:
REMARK  status: ('A' for Active; 'I' for Inactive)
REMARK    1  A    between atoms: O_2  and  C_3 
REMARK    2  A    between atoms: C_4  and  N_5 
REMARK       I    between atoms: N_5  and  C_6 
REMARK    3  A    between atoms: C_6  and  C_7 
REMARK    4  A    between atoms: C_7  and  N_8 
REMARK    5  A    between atoms: N_8  and  C_9 
ROOT
HETATM    1  C   UNL     1      41.981 -14.423   1.571  1.00  0.00     0.195 C 
ENDROOT
BRANCH   1   2
HETATM    2  C   UNL     1      40.700 -14.682   0.766  1.00  0.00     0.235 C 
HETATM    3  N   UNL     1      40.662 -13.977  -0.420  1.00  0.00    -0.324 N 
HETATM    4  H   UNL     1      41.477 -13.396  -0.616  1.00  0.00     0.169 HD
HETATM    5  O   UNL     1      39.859 -15.484   1.162  1.00  0.00    -0.272 OA
BRANCH   3   6
HETATM    6  C   UNL     1      39.607 -13.875  -1.347  1.00  0.00     0.068 A 
HETATM    7  C   UNL     1      38.678 -12.833  -1.163  1.00  0.00     0.095 A 
HETATM    8  C   UNL     1      37.565 -12.727  -2.002  1.00  0.00     0.039 A 
HETATM    9  C   UNL     1      37.390 -13.634  -3.047  1.00  0.00     0.003 A 
HETATM   10  C   UNL     1      38.325 -14.646  -3.253  1.00  0.00     0.002 A 
HETATM   11  C   UNL     1      39.431 -14.766  -2.407  1.00  0.00     0.032 A 
BRANCH   7  12
HETATM   12  O   UNL     1      38.910 -11.968  -0.118  1.00  0.00    -0.354 OA
HETATM   13  C   UNL     1      37.729 -11.343   0.380  1.00  0.00     0.210 C 
ENDBRANCH   7  12
ENDBRANCH   3   6
ENDBRANCH   1   2
BRANCH   1  14
HETATM   14  N   UNL     1      43.054 -15.396   1.283  1.00  0.00    -0.284 NA
HETATM   15  H   UNL     1      42.922 -15.829   0.370  1.00  0.00     0.128 HD
BRANCH  14  16
HETATM   16  C   UNL     1      43.339 -16.384   2.246  1.00  0.00     0.009 A 
HETATM   17  C   UNL     1      43.389 -17.756   1.965  1.00  0.00     0.035 A 
HETATM   18  C   UNL     1      43.599 -18.719   2.971  1.00  0.00    -0.024 A 
HETATM   19  C   UNL     1      43.744 -18.300   4.310  1.00  0.00    -0.026 A 
HETATM   20  C   UNL     1      43.662 -20.090   2.671  1.00  0.00     0.012 A 
HETATM   21  C   UNL     1      43.655 -16.934   4.605  1.00  0.00     0.014 A 
HETATM   22  C   UNL     1      43.958 -19.262   5.312  1.00  0.00     0.012 A 
HETATM   23  C   UNL     1      43.438 -15.997   3.587  1.00  0.00     0.024 A 
HETATM   24  C   UNL     1      44.024 -20.620   4.996  1.00  0.00     0.001 A 
HETATM   25  C   UNL     1      43.874 -21.033   3.676  1.00  0.00     0.001 A 
ENDBRANCH  14  16
ENDBRANCH   1  14
TORSDOF 5
ENDMDL
MODEL 2
REMARK VINA RESULT:      -8.4      4.845      7.329
REMARK  5 active torsions:
REMARK  status: ('A' for Active; 'I' for Inactive)
REMARK    1  A    between atoms: O_2  and  C_3 
REMARK    2  A    between atoms: C_4  and  N_5 
REMARK       I    between atoms: N_5  and  C_6 
REMARK    3  A    between atoms: C_6  and  C_7 
REMARK    4  A    between atoms: C_7  and  N_8 
REMARK    5  A    between atoms: N_8  and  C_9 
ROOT
HETATM    1  C   UNL     1      42.246 -14.037   4.964  1.00  0.00     0.195 C 
ENDROOT
BRANCH   1   2
HETATM    2  C   UNL     1      43.025 -13.436   6.143  1.00  0.00     0.235 C 
HETATM    3  N   UNL     1      43.399 -12.126   5.926  1.00  0.00    -0.324 N 
HETATM    4  H   UNL     1      43.106 -11.724   5.036  1.00  0.00     0.169 HD
HETATM    5  O   UNL     1      43.216 -14.088   7.166  1.00  0.00    -0.272 OA
BRANCH   3   6
HETATM    6  C   UNL     1      44.216 -11.302   6.725  1.00  0.00     0.068 A 
HETATM    7  C   UNL     1      43.587 -10.275   7.453  1.00  0.00     0.095 A 
HETATM    8  C   UNL     1      44.351  -9.374   8.201  1.00  0.00     0.039 A 
HETATM    9  C   UNL     1      45.738  -9.513   8.255  1.00  0.00     0.003 A 
HETATM   10  C   UNL     1      46.361 -10.548   7.562  1.00  0.00     0.002 A 
HETATM   11  C   UNL     1      45.603 -11.441   6.800  1.00  0.00     0.032 A 
BRANCH   7  12
HETATM   12  O   UNL     1      42.216 -10.195   7.364  1.00  0.00    -0.354 OA
HETATM   13  C   UNL     1      41.754  -9.042   6.663  1.00  0.00     0.210 C 
ENDBRANCH   7  12
ENDBRANCH   3   6
ENDBRANCH   1   2
BRANCH   1  14
HETATM   14  N   UNL     1      43.121 -14.505   3.870  1.00  0.00    -0.284 NA
HETATM   15  H   UNL     1      42.927 -14.003   3.004  1.00  0.00     0.128 HD
BRANCH  14  16
HETATM   16  C   UNL     1      43.194 -15.888   3.616  1.00  0.00     0.009 A 
HETATM   17  C   UNL     1      43.527 -16.844   4.586  1.00  0.00     0.035 A 
HETATM   18  C   UNL     1      43.667 -18.210   4.274  1.00  0.00    -0.024 A 
HETATM   19  C   UNL     1      43.490 -18.637   2.942  1.00  0.00    -0.026 A 
HETATM   20  C   UNL     1      43.984 -19.157   5.261  1.00  0.00     0.012 A 
HETATM   21  C   UNL     1      43.198 -17.683   1.959  1.00  0.00     0.014 A 
HETATM   22  C   UNL     1      43.626 -20.001   2.633  1.00  0.00     0.012 A 
HETATM   23  C   UNL     1      43.072 -16.329   2.293  1.00  0.00     0.024 A 
HETATM   24  C   UNL     1      43.936 -20.931   3.627  1.00  0.00     0.001 A 
HETATM   25  C   UNL     1      44.118 -20.508   4.940  1.00  0.00     0.001 A 
ENDBRANCH  14  16
ENDBRANCH   1  14
TORSDOF 5
ENDMDL
MODEL 3
REMARK VINA RESULT:      -8.1      5.560      7.918
REMARK  5 active torsions:
REMARK  status: ('A' for Active; 'I' for Inactive)
REMARK    1  A    between atoms: O_2  and  C_3 
REMARK    2  A    between atoms: C_4  and  N_5 
REMARK       I    between atoms: N_5  and  C_6 
REMARK    3  A    between atoms: C_6  and  C_7 
REMARK    4  A    between atoms: C_7  and  N_8 
REMARK    5  A    between atoms: N_8  and  C_9 
ROOT
HETATM    1  C   UNL     1      40.980 -12.530   5.891  1.00  0.00     0.195 C 
ENDROOT
BRANCH   1   2
HETATM    2  C   UNL     1      42.251 -11.668   5.878  1.00  0.00     0.235 C 
HETATM    3  N   UNL     1      42.906 -11.663   7.092  1.00  0.00    -0.324 N 
HETATM    4  H   UNL     1      42.483 -12.232   7.826  1.00  0.00     0.169 HD
HETATM    5  O   UNL     1      42.621 -11.108   4.849  1.00  0.00    -0.272 OA
BRANCH   3   6
HETATM    6  C   UNL     1      44.025 -10.902   7.484  1.00  0.00     0.068 A 
HETATM    7  C   UNL     1      43.782  -9.659   8.098  1.00  0.00     0.095 A 
HETATM    8  C   UNL     1      44.849  -8.821   8.437  1.00  0.00     0.039 A 
HETATM    9  C   UNL     1      46.160  -9.231   8.198  1.00  0.00     0.003 A 
HETATM   10  C   UNL     1      46.406 -10.475   7.619  1.00  0.00     0.002 A 
HETATM   11  C   UNL     1      45.342 -11.308   7.265  1.00  0.00     0.032 A 
BRANCH   7  12
HETATM   12  O   UNL     1      42.466  -9.315   8.313  1.00  0.00    -0.354 OA
HETATM   13  C   UNL     1      42.047  -8.168   7.577  1.00  0.00     0.210 C 
ENDBRANCH   7  12
ENDBRANCH   3   6
ENDBRANCH   1   2
BRANCH   1  14
HETATM   14  N   UNL     1      41.212 -13.897   6.400  1.00  0.00    -0.284 NA
HETATM   15  H   UNL     1      41.874 -13.892   7.175  1.00  0.00     0.128 HD
BRANCH  14  16
HETATM   16  C   UNL     1      41.558 -14.905   5.480  1.00  0.00     0.009 A 
HETATM   17  C   UNL     1      42.603 -15.818   5.678  1.00  0.00     0.035 A 
HETATM   18  C   UNL     1      42.968 -16.762   4.699  1.00  0.00    -0.024 A 
HETATM   19  C   UNL     1      42.281 -16.782   3.467  1.00  0.00    -0.026 A 
HETATM   20  C   UNL     1      44.007 -17.681   4.920  1.00  0.00     0.012 A 
HETATM   21  C   UNL     1      41.263 -15.846   3.245  1.00  0.00     0.014 A 
HETATM   22  C   UNL     1      42.645 -17.727   2.493  1.00  0.00     0.012 A 
HETATM   23  C   UNL     1      40.924 -14.913   4.232  1.00  0.00     0.024 A 
HETATM   24  C   UNL     1      43.675 -18.638   2.730  1.00  0.00     0.001 A 
HETATM   25  C   UNL     1      44.358 -18.613   3.943  1.00  0.00     0.001 A 
ENDBRANCH  14  16
ENDBRANCH   1  14
TORSDOF 5
ENDMDL
MODEL 4
REMARK VINA RESULT:      -8.1      1.730      8.347
REMARK  5 active torsions:
REMARK  status: ('A' for Active; 'I' for Inactive)
REMARK    1  A    between atoms: O_2  and  C_3 
REMARK    2  A    between atoms: C_4  and  N_5 
REMARK       I    between atoms: N_5  and  C_6 
REMARK    3  A    between atoms: C_6  and  C_7 
REMARK    4  A    between atoms: C_7  and  N_8 
REMARK    5  A    between atoms: N_8  and  C_9 
ROOT
HETATM    1  C   UNL     1      42.462 -15.021   1.629  1.00  0.00     0.195 C 
ENDROOT
BRANCH   1   2
HETATM    2  C   UNL     1      42.285 -16.281   2.486  1.00  0.00     0.235 C 
HETATM    3  N   UNL     1      43.404 -17.088   2.489  1.00  0.00    -0.324 N 
HETATM    4  H   UNL     1      44.197 -16.747   1.946  1.00  0.00     0.169 HD
HETATM    5  O   UNL     1      41.250 -16.470   3.121  1.00  0.00    -0.272 OA
BRANCH   3   6
HETATM    6  C   UNL     1      43.565 -18.366   3.060  1.00  0.00     0.068 A 
HETATM    7  C   UNL     1      43.887 -18.430   4.429  1.00  0.00     0.095 A 
HETATM    8  C   UNL     1      44.138 -19.665   5.036  1.00  0.00     0.039 A 
HETATM    9  C   UNL     1      44.035 -20.840   4.292  1.00  0.00     0.003 A 
HETATM   10  C   UNL     1      43.684 -20.783   2.945  1.00  0.00     0.002 A 
HETATM   11  C   UNL     1      43.448 -19.550   2.331  1.00  0.00     0.032 A 
BRANCH   7  12
HETATM   12  O   UNL     1      43.966 -17.236   5.108  1.00  0.00    -0.354 OA
HETATM   13  C   UNL     1      43.307 -17.251   6.372  1.00  0.00     0.210 C 
ENDBRANCH   7  12
ENDBRANCH   3   6
ENDBRANCH   1   2
BRANCH   1  14
HETATM   14  N   UNL     1      41.449 -13.983   1.907  1.00  0.00    -0.284 NA
HETATM   15  H   UNL     1      41.006 -14.135   2.812  1.00  0.00     0.128 HD
BRANCH  14  16
HETATM   16  C   UNL     1      40.467 -13.725   0.931  1.00  0.00     0.009 A 
HETATM   17  C   UNL     1      40.255 -14.532  -0.195  1.00  0.00     0.035 A 
HETATM   18  C   UNL     1      39.316 -14.196  -1.190  1.00  0.00    -0.024 A 
HETATM   19  C   UNL     1      38.576 -13.002  -1.069  1.00  0.00    -0.026 A 
HETATM   20  C   UNL     1      39.104 -15.025  -2.305  1.00  0.00     0.012 A 
HETATM   21  C   UNL     1      38.812 -12.169   0.032  1.00  0.00     0.014 A 
HETATM   22  C   UNL     1      37.638 -12.671  -2.061  1.00  0.00     0.012 A 
HETATM   23  C   UNL     1      39.756 -12.521   1.004  1.00  0.00     0.024 A 
HETATM   24  C   UNL     1      37.434 -13.508  -3.160  1.00  0.00     0.001 A 
HETATM   25  C   UNL     1      38.170 -14.683  -3.282  1.00  0.00     0.001 A 
ENDBRANCH  14  16
ENDBRANCH   1  14
TORSDOF 5
ENDMDL
MODEL 5
REMARK VINA RESULT:      -8.0      1.635      2.267
REMARK  5 active torsions:
REMARK  status: ('A' for Active; 'I' for Inactive)
REMARK    1  A    between atoms: O_2  and  C_3 
REMARK    2  A    between atoms: C_4  and  N_5 
REMARK       I    between atoms: N_5  and  C_6 
REMARK    3  A    between atoms: C_6  and  C_7 
REMARK    4  A    between atoms: C_7  and  N_8 
REMARK    5  A    between atoms: N_8  and  C_9 
ROOT
HETATM    1  C   UNL     1      42.212 -13.603   2.292  1.00  0.00     0.195 C 
ENDROOT
BRANCH   1   2
HETATM    2  C   UNL     1      41.277 -12.738   1.435  1.00  0.00     0.235 C 
HETATM    3  N   UNL     1      41.395 -12.997   0.085  1.00  0.00    -0.324 N 
HETATM    4  H   UNL     1      42.063 -13.725  -0.169  1.00  0.00     0.169 HD
HETATM    5  O   UNL     1      40.492 -11.952   1.959  1.00  0.00    -0.272 OA
BRANCH   3   6
HETATM    6  C   UNL     1      40.792 -12.324  -0.995  1.00  0.00     0.068 A 
HETATM    7  C   UNL     1      39.939 -13.070  -1.831  1.00  0.00     0.095 A 
HETATM    8  C   UNL     1      39.374 -12.479  -2.966  1.00  0.00     0.039 A 
HETATM    9  C   UNL     1      39.625 -11.138  -3.252  1.00  0.00     0.003 A 
HETATM   10  C   UNL     1      40.442 -10.387  -2.409  1.00  0.00     0.002 A 
HETATM   11  C   UNL     1      41.023 -10.978  -1.283  1.00  0.00     0.032 A 
BRANCH   7  12
HETATM   12  O   UNL     1      39.726 -14.386  -1.491  1.00  0.00    -0.354 OA
HETATM   13  C   UNL     1      38.831 -15.066  -2.368  1.00  0.00     0.210 C 
ENDBRANCH   7  12
ENDBRANCH   3   6
ENDBRANCH   1   2
BRANCH   1  14
HETATM   14  N   UNL     1      42.670 -14.824   1.598  1.00  0.00    -0.284 NA
HETATM   15  H   UNL     1      41.997 -15.120   0.893  1.00  0.00     0.128 HD
BRANCH  14  16
HETATM   16  C   UNL     1      43.067 -15.928   2.376  1.00  0.00     0.009 A 
HETATM   17  C   UNL     1      43.065 -17.251   1.912  1.00  0.00     0.035 A 
HETATM   18  C   UNL     1      43.394 -18.337   2.747  1.00  0.00    -0.024 A 
HETATM   19  C   UNL     1      43.716 -18.098   4.099  1.00  0.00    -0.026 A 
HETATM   20  C   UNL     1      43.402 -19.656   2.262  1.00  0.00     0.012 A 
HETATM   21  C   UNL     1      43.681 -16.783   4.580  1.00  0.00     0.014 A 
HETATM   22  C   UNL     1      44.048 -19.182   4.928  1.00  0.00     0.012 A 
HETATM   23  C   UNL     1      43.344 -15.721   3.732  1.00  0.00     0.024 A 
HETATM   24  C   UNL     1      44.058 -20.486   4.431  1.00  0.00     0.001 A 
HETATM   25  C   UNL     1      43.732 -20.722   3.098  1.00  0.00     0.001 A 
ENDBRANCH  14  16
ENDBRANCH   1  14
TORSDOF 5
ENDMDL
MODEL 6
REMARK VINA RESULT:      -8.0      1.509      2.163
REMARK  5 active torsions:
REMARK  status: ('A' for Active; 'I' for Inactive)
REMARK    1  A    between atoms: O_2  and  C_3 
REMARK    2  A    between atoms: C_4  and  N_5 
REMARK       I    between atoms: N_5  and  C_6 
REMARK    3  A    between atoms: C_6  and  C_7 
REMARK    4  A    between atoms: C_7  and  N_8 
REMARK    5  A    between atoms: N_8  and  C_9 
ROOT
HETATM    1  C   UNL     1      42.916 -13.657   2.552  1.00  0.00     0.195 C 
ENDROOT
BRANCH   1   2
HETATM    2  C   UNL     1      41.543 -13.543   1.875  1.00  0.00     0.235 C 
HETATM    3  N   UNL     1      41.628 -13.498   0.499  1.00  0.00    -0.324 N 
HETATM    4  H   UNL     1      42.569 -13.559   0.111  1.00  0.00     0.169 HD
HETATM    5  O   UNL     1      40.512 -13.549   2.541  1.00  0.00    -0.272 OA
BRANCH   3   6
HETATM    6  C   UNL     1      40.598 -13.278  -0.438  1.00  0.00     0.068 A 
HETATM    7  C   UNL     1      40.416 -11.964  -0.907  1.00  0.00     0.095 A 
HETATM    8  C   UNL     1      39.361 -11.667  -1.776  1.00  0.00     0.039 A 
HETATM    9  C   UNL     1      38.507 -12.682  -2.207  1.00  0.00     0.003 A 
HETATM   10  C   UNL     1      38.705 -13.991  -1.770  1.00  0.00     0.002 A 
HETATM   11  C   UNL     1      39.748 -14.289  -0.890  1.00  0.00     0.032 A 
BRANCH   7  12
HETATM   12  O   UNL     1      41.296 -11.010  -0.449  1.00  0.00    -0.354 OA
HETATM   13  C   UNL     1      41.398  -9.871  -1.300  1.00  0.00     0.210 C 
ENDBRANCH   7  12
ENDBRANCH   3   6
ENDBRANCH   1   2
BRANCH   1  14
HETATM   14  N   UNL     1      42.910 -14.547   3.731  1.00  0.00    -0.284 NA
HETATM   15  H   UNL     1      43.586 -14.238   4.428  1.00  0.00     0.128 HD
BRANCH  14  16
HETATM   16  C   UNL     1      43.036 -15.934   3.524  1.00  0.00     0.009 A 
HETATM   17  C   UNL     1      43.391 -16.845   4.529  1.00  0.00     0.035 A 
HETATM   18  C   UNL     1      43.584 -18.214   4.264  1.00  0.00    -0.024 A 
HETATM   19  C   UNL     1      43.438 -18.691   2.945  1.00  0.00    -0.026 A 
HETATM   20  C   UNL     1      43.924 -19.117   5.285  1.00  0.00     0.012 A 
HETATM   21  C   UNL     1      43.123 -17.781   1.927  1.00  0.00     0.014 A 
HETATM   22  C   UNL     1      43.626 -20.059   2.683  1.00  0.00     0.012 A 
HETATM   23  C   UNL     1      42.944 -16.422   2.215  1.00  0.00     0.024 A 
HETATM   24  C   UNL     1      43.958 -20.944   3.710  1.00  0.00     0.001 A 
HETATM   25  C   UNL     1      44.109 -20.472   5.010  1.00  0.00     0.001 A 
ENDBRANCH  14  16
ENDBRANCH   1  14
TORSDOF 5
ENDMDL
MODEL 7
REMARK VINA RESULT:      -7.9      7.165      9.444
REMARK  5 active torsions:
REMARK  status: ('A' for Active; 'I' for Inactive)
REMARK    1  A    between atoms: O_2  and  C_3 
REMARK    2  A    between atoms: C_4  and  N_5 
REMARK       I    between atoms: N_5  and  C_6 
REMARK    3  A    between atoms: C_6  and  C_7 
REMARK    4  A    between atoms: C_7  and  N_8 
REMARK    5  A    between atoms: N_8  and  C_9 
ROOT
HETATM    1  C   UNL     1      44.432 -12.018   7.077  1.00  0.00     0.195 C 
ENDROOT
BRANCH   1   2
HETATM    2  C   UNL     1      44.644 -11.146   8.323  1.00  0.00     0.235 C 
HETATM    3  N   UNL     1      43.459 -10.748   8.906  1.00  0.00    -0.324 N 
HETATM    4  H   UNL     1      42.609 -11.086   8.455  1.00  0.00     0.169 HD
HETATM    5  O   UNL     1      45.775 -10.907   8.737  1.00  0.00    -0.272 OA
BRANCH   3   6
HETATM    6  C   UNL     1      43.264  -9.857   9.979  1.00  0.00     0.068 A 
HETATM    7  C   UNL     1      43.130  -8.490   9.672  1.00  0.00     0.095 A 
HETATM    8  C   UNL     1      43.014  -7.546  10.699  1.00  0.00     0.039 A 
HETATM    9  C   UNL     1      42.996  -7.963  12.029  1.00  0.00     0.003 A 
HETATM   10  C   UNL     1      43.095  -9.319  12.335  1.00  0.00     0.002 A 
HETATM   11  C   UNL     1      43.227 -10.263  11.314  1.00  0.00     0.032 A 
BRANCH   7  12
HETATM   12  O   UNL     1      43.149  -8.144   8.340  1.00  0.00    -0.354 OA
HETATM   13  C   UNL     1      42.355  -7.000   8.035  1.00  0.00     0.210 C 
ENDBRANCH   7  12
ENDBRANCH   3   6
ENDBRANCH   1   2
BRANCH   1  14
HETATM   14  N   UNL     1      43.577 -13.195   7.331  1.00  0.00    -0.284 NA
HETATM   15  H   UNL     1      43.855 -13.672   8.188  1.00  0.00     0.128 HD
BRANCH  14  16
HETATM   16  C   UNL     1      43.403 -14.133   6.296  1.00  0.00     0.009 A 
HETATM   17  C   UNL     1      43.855 -15.459   6.358  1.00  0.00     0.035 A 
HETATM   18  C   UNL     1      43.731 -16.344   5.270  1.00  0.00    -0.024 A 
HETATM   19  C   UNL     1      43.156 -15.885   4.067  1.00  0.00    -0.026 A 
HETATM   20  C   UNL     1      44.174 -17.674   5.355  1.00  0.00     0.012 A 
HETATM   21  C   UNL     1      42.740 -14.551   3.982  1.00  0.00     0.014 A 
HETATM   22  C   UNL     1      43.030 -16.771   2.983  1.00  0.00     0.012 A 
HETATM   23  C   UNL     1      42.880 -13.688   5.076  1.00  0.00     0.024 A 
HETATM   24  C   UNL     1      43.469 -18.092   3.085  1.00  0.00     0.001 A 
HETATM   25  C   UNL     1      44.044 -18.542   4.270  1.00  0.00     0.001 A 
ENDBRANCH  14  16
ENDBRANCH   1  14
TORSDOF 5
ENDMDL
MODEL 8
REMARK VINA RESULT:      -7.7      2.164      2.830
REMARK  5 active torsions:
REMARK  status: ('A' for Active; 'I' for Inactive)
REMARK    1  A    between atoms: O_2  and  C_3 
REMARK    2  A    between atoms: C_4  and  N_5 
REMARK       I    between atoms: N_5  and  C_6 
REMARK    3  A    between atoms: C_6  and  C_7 
REMARK    4  A    between atoms: C_7  and  N_8 
REMARK    5  A    between atoms: N_8  and  C_9 
ROOT
HETATM    1  C   UNL     1      39.315 -13.196   3.071  1.00  0.00     0.195 C 
ENDROOT
BRANCH   1   2
HETATM    2  C   UNL     1      38.867 -12.304   1.905  1.00  0.00     0.235 C 
HETATM    3  N   UNL     1      39.146 -12.856   0.672  1.00  0.00    -0.324 N 
HETATM    4  H   UNL     1      39.591 -13.773   0.687  1.00  0.00     0.169 HD
HETATM    5  O   UNL     1      38.280 -11.245   2.113  1.00  0.00    -0.272 OA
BRANCH   3   6
HETATM    6  C   UNL     1      38.989 -12.280  -0.604  1.00  0.00     0.068 A 
HETATM    7  C   UNL     1      40.050 -11.499  -1.100  1.00  0.00     0.095 A 
HETATM    8  C   UNL     1      39.922 -10.835  -2.324  1.00  0.00     0.039 A 
HETATM    9  C   UNL     1      38.755 -10.974  -3.074  1.00  0.00     0.003 A 
HETATM   10  C   UNL     1      37.716 -11.773  -2.602  1.00  0.00     0.002 A 
HETATM   11  C   UNL     1      37.832 -12.425  -1.372  1.00  0.00     0.032 A 
BRANCH   7  12
HETATM   12  O   UNL     1      41.176 -11.406  -0.315  1.00  0.00    -0.354 OA
HETATM   13  C   UNL     1      41.494 -10.072   0.076  1.00  0.00     0.210 C 
ENDBRANCH   7  12
ENDBRANCH   3   6
ENDBRANCH   1   2
BRANCH   1  14
HETATM   14  N   UNL     1      39.426 -14.622   2.702  1.00  0.00    -0.284 NA
HETATM   15  H   UNL     1      38.554 -15.117   2.883  1.00  0.00     0.128 HD
BRANCH  14  16
HETATM   16  C   UNL     1      40.512 -15.363   3.206  1.00  0.00     0.009 A 
HETATM   17  C   UNL     1      41.246 -16.286   2.450  1.00  0.00     0.035 A 
HETATM   18  C   UNL     1      42.275 -17.065   3.013  1.00  0.00    -0.024 A 
HETATM   19  C   UNL     1      42.569 -16.936   4.387  1.00  0.00    -0.026 A 
HETATM   20  C   UNL     1      43.014 -17.974   2.237  1.00  0.00     0.012 A 
HETATM   21  C   UNL     1      41.812 -16.046   5.159  1.00  0.00     0.014 A 
HETATM   22  C   UNL     1      43.598 -17.711   4.946  1.00  0.00     0.012 A 
HETATM   23  C   UNL     1      40.788 -15.287   4.577  1.00  0.00     0.024 A 
HETATM   24  C   UNL     1      44.327 -18.605   4.160  1.00  0.00     0.001 A 
HETATM   25  C   UNL     1      44.032 -18.738   2.806  1.00  0.00     0.001 A 
ENDBRANCH  14  16
ENDBRANCH   1  14
TORSDOF 5
ENDMDL
MODEL 9
REMARK VINA RESULT:      -7.7      5.240      8.533
REMARK  5 active torsions:
REMARK  status: ('A' for Active; 'I' for Inactive)
REMARK    1  A    between atoms: O_2  and  C_3 
REMARK    2  A    between atoms: C_4  and  N_5 
REMARK       I    between atoms: N_5  and  C_6 
REMARK    3  A    between atoms: C_6  and  C_7 
REMARK    4  A    between atoms: C_7  and  N_8 
REMARK    5  A    between atoms: N_8  and  C_9 
ROOT
HETATM    1  C   UNL     1      40.899 -13.594   5.587  1.00  0.00     0.195 C 
ENDROOT
BRANCH   1   2
HETATM    2  C   UNL     1      41.159 -15.082   5.312  1.00  0.00     0.235 C 
HETATM    3  N   UNL     1      42.302 -15.297   4.570  1.00  0.00    -0.324 N 
HETATM    4  H   UNL     1      42.828 -14.461   4.314  1.00  0.00     0.169 HD
HETATM    5  O   UNL     1      40.419 -15.945   5.776  1.00  0.00    -0.272 OA
BRANCH   3   6
HETATM    6  C   UNL     1      42.786 -16.506   4.033  1.00  0.00     0.068 A 
HETATM    7  C   UNL     1      43.765 -17.198   4.771  1.00  0.00     0.095 A 
HETATM    8  C   UNL     1      44.343 -18.362   4.254  1.00  0.00     0.039 A 
HETATM    9  C   UNL     1      43.925 -18.859   3.020  1.00  0.00     0.003 A 
HETATM   10  C   UNL     1      42.932 -18.195   2.302  1.00  0.00     0.002 A 
HETATM   11  C   UNL     1      42.363 -17.023   2.807  1.00  0.00     0.032 A 
BRANCH   7  12
HETATM   12  O   UNL     1      44.130 -16.659   5.984  1.00  0.00    -0.354 OA
HETATM   13  C   UNL     1      43.592 -17.357   7.105  1.00  0.00     0.210 C 
ENDBRANCH   7  12
ENDBRANCH   3   6
ENDBRANCH   1   2
BRANCH   1  14
HETATM   14  N   UNL     1      41.928 -12.708   5.006  1.00  0.00    -0.284 NA
HETATM   15  H   UNL     1      42.452 -13.185   4.273  1.00  0.00     0.128 HD
BRANCH  14  16
HETATM   16  C   UNL     1      42.816 -12.050   5.878  1.00  0.00     0.009 A 
HETATM   17  C   UNL     1      42.549 -10.809   6.474  1.00  0.00     0.035 A 
HETATM   18  C   UNL     1      43.496 -10.146   7.279  1.00  0.00    -0.024 A 
HETATM   19  C   UNL     1      44.764 -10.729   7.478  1.00  0.00    -0.026 A 
HETATM   20  C   UNL     1      43.206  -8.911   7.883  1.00  0.00     0.012 A 
HETATM   21  C   UNL     1      45.054 -11.948   6.852  1.00  0.00     0.014 A 
HETATM   22  C   UNL     1      45.706 -10.068   8.284  1.00  0.00     0.012 A 
HETATM   23  C   UNL     1      44.098 -12.585   6.051  1.00  0.00     0.024 A 
HETATM   24  C   UNL     1      45.401  -8.845   8.883  1.00  0.00     0.001 A 
HETATM   25  C   UNL     1      44.152  -8.266   8.679  1.00  0.00     0.001 A 
ENDBRANCH  14  16
ENDBRANCH   1  14
TORSDOF 5
ENDMDL
MODEL 10
REMARK VINA RESULT:      -7.6      4.952      8.249
REMARK  5 active torsions:
REMARK  status: ('A' for Active; 'I' for Inactive)
REMARK    1  A    between atoms: O_2  and  C_3 
REMARK    2  A    between atoms: C_4  and  N_5 
REMARK       I    between atoms: N_5  and  C_6 
REMARK    3  A    between atoms: C_6  and  C_7 
REMARK    4  A    between atoms: C_7  and  N_8 
REMARK    5  A    between atoms: N_8  and  C_9 
ROOT
HETATM    1  C   UNL     1      40.719 -13.832   5.261  1.00  0.00     0.195 C 
ENDROOT
BRANCH   1   2
HETATM    2  C   UNL     1      41.074 -15.315   5.090  1.00  0.00     0.235 C 
HETATM    3  N   UNL     1      42.213 -15.509   4.335  1.00  0.00    -0.324 N 
HETATM    4  H   UNL     1      42.675 -14.662   4.005  1.00  0.00     0.169 HD
HETATM    5  O   UNL     1      40.405 -16.189   5.635  1.00  0.00    -0.272 OA
BRANCH   3   6
HETATM    6  C   UNL     1      42.767 -16.720   3.877  1.00  0.00     0.068 A 
HETATM    7  C   UNL     1      43.746 -17.333   4.682  1.00  0.00     0.095 A 
HETATM    8  C   UNL     1      44.391 -18.494   4.244  1.00  0.00     0.039 A 
HETATM    9  C   UNL     1      44.041 -19.067   3.021  1.00  0.00     0.003 A 
HETATM   10  C   UNL     1      43.050 -18.481   2.237  1.00  0.00     0.002 A 
HETATM   11  C   UNL     1      42.413 -17.312   2.663  1.00  0.00     0.032 A 
BRANCH   7  12
HETATM   12  O   UNL     1      44.042 -16.722   5.879  1.00  0.00    -0.354 OA
HETATM   13  C   UNL     1      43.557 -17.429   7.018  1.00  0.00     0.210 C 
ENDBRANCH   7  12
ENDBRANCH   3   6
ENDBRANCH   1   2
BRANCH   1  14
HETATM   14  N   UNL     1      41.707 -12.924   4.645  1.00  0.00    -0.284 NA
HETATM   15  H   UNL     1      42.384 -13.442   4.087  1.00  0.00     0.128 HD
BRANCH  14  16
HETATM   16  C   UNL     1      42.376 -12.000   5.472  1.00  0.00     0.009 A 
HETATM   17  C   UNL     1      43.749 -12.052   5.749  1.00  0.00     0.035 A 
HETATM   18  C   UNL     1      44.365 -11.156   6.645  1.00  0.00    -0.024 A 
HETATM   19  C   UNL     1      43.581 -10.188   7.305  1.00  0.00    -0.026 A 
HETATM   20  C   UNL     1      45.746 -11.210   6.899  1.00  0.00     0.012 A 
HETATM   21  C   UNL     1      42.202 -10.156   7.065  1.00  0.00     0.014 A 
HETATM   22  C   UNL     1      44.199  -9.293   8.195  1.00  0.00     0.012 A 
HETATM   23  C   UNL     1      41.611 -11.063   6.176  1.00  0.00     0.024 A 
HETATM   24  C   UNL     1      45.573  -9.355   8.432  1.00  0.00     0.001 A 
HETATM   25  C   UNL     1      46.345 -10.316   7.786  1.00  0.00     0.001 A 
ENDBRANCH  14  16
ENDBRANCH   1  14
TORSDOF 5
ENDMDL
