MODEL 1
REMARK VINA RESULT:      -9.0      0.000      0.000
REMARK  6 active torsions:
REMARK  status: ('A' for Active; 'I' for Inactive)
REMARK    1  A    between atoms: C_2  and  C_3 
REMARK    2  A    between atoms: C_3  and  C_4 
REMARK    3  A    between atoms: C_3  and  C_10 
REMARK    4  A    between atoms: C_10  and  C_11 
REMARK       I    between atoms: C_11  and  N_12 
REMARK    5  A    between atoms: N_12  and  C_13 
REMARK    6  A    between atoms: C_20  and  C_21 
REMARK       I    between atoms: C_21  and  N_22 
ROOT
HETATM    1  C   UNL     1      40.869 -13.824   0.534  1.00  0.00     0.035 A 
HETATM    2  C   UNL     1      40.203 -14.360  -0.576  1.00  0.00     0.046 A 
HETATM    3  C   UNL     1      39.159 -13.627  -1.184  1.00  0.00     0.030 A 
HETATM    4  C   UNL     1      38.809 -12.392  -0.652  1.00  0.00     0.063 A 
HETATM    5  N   UNL     1      37.781 -11.939  -1.431  1.00  0.00    -0.277 N 
HETATM    6  H   UNL     1      37.273 -11.068  -1.330  1.00  0.00     0.189 HD
HETATM    7  N   UNL     1      37.439 -12.762  -2.434  1.00  0.00    -0.168 NA
HETATM    8  C   UNL     1      38.283 -13.810  -2.297  1.00  0.00     0.156 A 
HETATM    9  C   UNL     1      39.447 -11.830   0.453  1.00  0.00     0.034 A 
HETATM   10  C   UNL     1      40.487 -12.569   1.028  1.00  0.00     0.032 A 
ENDROOT
BRANCH   1  11
HETATM   11  N   UNL     1      41.933 -14.468   1.205  1.00  0.00    -0.327 N 
HETATM   12  C   UNL     1      41.862 -15.270   2.329  1.00  0.00     0.223 C 
HETATM   13  O   UNL     1      40.840 -15.589   2.929  1.00  0.00    -0.273 OA
HETATM   14  H   UNL     1      42.852 -14.280   0.831  1.00  0.00     0.169 HD
BRANCH  12  15
HETATM   15  C   UNL     1      43.203 -15.844   2.767  1.00  0.00     0.116 C 
BRANCH  15  16
HETATM   16  C   UNL     1      43.158 -16.759   4.006  1.00  0.00     0.049 C 
BRANCH  16  17
HETATM   17  C   UNL     1      44.037 -16.170   5.102  1.00  0.00    -0.027 C 
HETATM   18  C   UNL     1      43.657 -15.607   6.257  1.00  0.00     0.007 C 
ENDBRANCH  16  17
BRANCH  16  19
HETATM   19  C   UNL     1      43.426 -18.225   3.693  1.00  0.00    -0.050 A 
HETATM   20  C   UNL     1      43.922 -19.112   4.661  1.00  0.00     0.008 A 
HETATM   21  C   UNL     1      44.161 -20.451   4.345  1.00  0.00     0.001 A 
HETATM   22  C   UNL     1      43.904 -20.923   3.059  1.00  0.00     0.000 A 
HETATM   23  C   UNL     1      43.403 -20.058   2.091  1.00  0.00     0.001 A 
HETATM   24  C   UNL     1      43.161 -18.719   2.406  1.00  0.00     0.008 A 
ENDBRANCH  16  19
ENDBRANCH  15  16
ENDBRANCH  12  15
ENDBRANCH   1  11
BRANCH   8  25
HETATM   25  C   UNL     1      38.239 -14.945  -3.230  1.00  0.00     0.270 C 
HETATM   26  N   UNL     1      38.258 -16.170  -2.618  1.00  0.00    -0.365 N 
HETATM   27  H   UNL     1      38.289 -16.205  -1.607  1.00  0.00     0.159 HD
HETATM   28  H   UNL     1      38.215 -17.006  -3.178  1.00  0.00     0.159 HD
HETATM   29  O   UNL     1      38.182 -14.848  -4.451  1.00  0.00    -0.266 OA
ENDBRANCH   8  25
TORSDOF 6
ENDMDL
MODEL 2
REMARK VINA RESULT:      -8.4      1.836      3.302
REMARK  6 active torsions:
REMARK  status: ('A' for Active; 'I' for Inactive)
REMARK    1  A    between atoms: C_2  and  C_3 
REMARK    2  A    between atoms: C_3  and  C_4 
REMARK    3  A    between atoms: C_3  and  C_10 
REMARK    4  A    between atoms: C_10  and  C_11 
REMARK       I    between atoms: C_11  and  N_12 
REMARK    5  A    between atoms: N_12  and  C_13 
REMARK    6  A    between atoms: C_20  and  C_21 
REMARK       I    between atoms: C_21  and  N_22 
ROOT
HETATM    1  C   UNL     1      40.689 -15.109   1.615  1.00  0.00     0.035 A 
HETATM    2  C   UNL     1      40.662 -14.764   0.257  1.00  0.00     0.046 A 
HETATM    3  C   UNL     1      40.072 -13.543  -0.140  1.00  0.00     0.030 A 
HETATM    4  C   UNL     1      39.521 -12.716   0.831  1.00  0.00     0.063 A 
HETATM    5  N   UNL     1      39.028 -11.637   0.153  1.00  0.00    -0.277 N 
HETATM    6  H   UNL     1      38.551 -10.833   0.544  1.00  0.00     0.189 HD
HETATM    7  N   UNL     1      39.223 -11.677  -1.174  1.00  0.00    -0.168 NA
HETATM    8  C   UNL     1      39.870 -12.848  -1.372  1.00  0.00     0.156 A 
HETATM    9  C   UNL     1      39.528 -13.029   2.190  1.00  0.00     0.034 A 
HETATM   10  C   UNL     1      40.129 -14.237   2.560  1.00  0.00     0.032 A 
ENDROOT
BRANCH   1  11
HETATM   11  N   UNL     1      41.264 -16.297   2.118  1.00  0.00    -0.327 N 
HETATM   12  C   UNL     1      42.603 -16.647   2.135  1.00  0.00     0.223 C 
HETATM   13  O   UNL     1      43.537 -15.959   1.735  1.00  0.00    -0.273 OA
HETATM   14  H   UNL     1      40.607 -16.979   2.468  1.00  0.00     0.169 HD
BRANCH  12  15
HETATM   15  C   UNL     1      42.884 -17.990   2.796  1.00  0.00     0.116 C 
BRANCH  15  16
HETATM   16  C   UNL     1      43.919 -17.962   3.937  1.00  0.00     0.049 C 
BRANCH  16  17
HETATM   17  C   UNL     1      44.357 -19.385   4.259  1.00  0.00    -0.027 C 
HETATM   18  C   UNL     1      43.997 -20.148   5.300  1.00  0.00     0.007 C 
ENDBRANCH  16  17
BRANCH  16  19
HETATM   19  C   UNL     1      43.477 -17.143   5.142  1.00  0.00    -0.050 A 
HETATM   20  C   UNL     1      42.124 -17.010   5.494  1.00  0.00     0.008 A 
HETATM   21  C   UNL     1      41.748 -16.252   6.604  1.00  0.00     0.001 A 
HETATM   22  C   UNL     1      42.716 -15.618   7.380  1.00  0.00     0.000 A 
HETATM   23  C   UNL     1      44.062 -15.747   7.050  1.00  0.00     0.001 A 
HETATM   24  C   UNL     1      44.441 -16.508   5.942  1.00  0.00     0.008 A 
ENDBRANCH  16  19
ENDBRANCH  15  16
ENDBRANCH  12  15
ENDBRANCH   1  11
BRANCH   8  25
HETATM   25  C   UNL     1      40.283 -13.267  -2.719  1.00  0.00     0.270 C 
HETATM   26  N   UNL     1      41.515 -12.802  -3.094  1.00  0.00    -0.365 N 
HETATM   27  H   UNL     1      42.038 -12.234  -2.439  1.00  0.00     0.159 HD
HETATM   28  H   UNL     1      41.888 -13.052  -3.995  1.00  0.00     0.159 HD
HETATM   29  O   UNL     1      39.619 -13.975  -3.468  1.00  0.00    -0.266 OA
ENDBRANCH   8  25
TORSDOF 6
ENDMDL
MODEL 3
REMARK VINA RESULT:      -8.4      4.816      7.476
REMARK  6 active torsions:
REMARK  status: ('A' for Active; 'I' for Inactive)
REMARK    1  A    between atoms: C_2  and  C_3 
REMARK    2  A    between atoms: C_3  and  C_4 
REMARK    3  A    between atoms: C_3  and  C_10 
REMARK    4  A    between atoms: C_10  and  C_11 
REMARK       I    between atoms: C_11  and  N_12 
REMARK    5  A    between atoms: N_12  and  C_13 
REMARK    6  A    between atoms: C_20  and  C_21 
REMARK       I    between atoms: C_21  and  N_22 
ROOT
HETATM    1  C   UNL     1      41.994 -12.842   5.280  1.00  0.00     0.035 A 
HETATM    2  C   UNL     1      43.122 -12.371   5.964  1.00  0.00     0.046 A 
HETATM    3  C   UNL     1      43.041 -11.166   6.698  1.00  0.00     0.030 A 
HETATM    4  C   UNL     1      41.838 -10.470   6.713  1.00  0.00     0.063 A 
HETATM    5  N   UNL     1      42.068  -9.364   7.482  1.00  0.00    -0.277 N 
HETATM    6  H   UNL     1      41.411  -8.626   7.707  1.00  0.00     0.189 HD
HETATM    7  N   UNL     1      43.310  -9.284   7.986  1.00  0.00    -0.168 NA
HETATM    8  C   UNL     1      43.924 -10.393   7.513  1.00  0.00     0.156 A 
HETATM    9  C   UNL     1      40.697 -10.907   6.042  1.00  0.00     0.034 A 
HETATM   10  C   UNL     1      40.799 -12.109   5.332  1.00  0.00     0.032 A 
ENDROOT
BRANCH   1  11
HETATM   11  N   UNL     1      41.966 -14.038   4.529  1.00  0.00    -0.327 N 
HETATM   12  C   UNL     1      41.864 -15.333   5.006  1.00  0.00     0.223 C 
HETATM   13  O   UNL     1      41.748 -15.665   6.181  1.00  0.00    -0.273 OA
HETATM   14  H   UNL     1      42.073 -13.922   3.532  1.00  0.00     0.169 HD
BRANCH  12  15
HETATM   15  C   UNL     1      41.817 -16.393   3.913  1.00  0.00     0.116 C 
BRANCH  15  16
HETATM   16  C   UNL     1      43.182 -16.793   3.322  1.00  0.00     0.049 C 
BRANCH  16  17
HETATM   17  C   UNL     1      43.334 -16.179   1.936  1.00  0.00    -0.027 C 
HETATM   18  C   UNL     1      43.440 -14.883   1.611  1.00  0.00     0.007 C 
ENDBRANCH  16  17
BRANCH  16  19
HETATM   19  C   UNL     1      43.462 -18.289   3.389  1.00  0.00    -0.050 A 
HETATM   20  C   UNL     1      43.274 -19.130   2.281  1.00  0.00     0.008 A 
HETATM   21  C   UNL     1      43.537 -20.498   2.373  1.00  0.00     0.001 A 
HETATM   22  C   UNL     1      43.994 -21.044   3.571  1.00  0.00     0.000 A 
HETATM   23  C   UNL     1      44.194 -20.222   4.676  1.00  0.00     0.001 A 
HETATM   24  C   UNL     1      43.935 -18.853   4.585  1.00  0.00     0.008 A 
ENDBRANCH  16  19
ENDBRANCH  15  16
ENDBRANCH  12  15
ENDBRANCH   1  11
BRANCH   8  25
HETATM   25  C   UNL     1      45.323 -10.688   7.854  1.00  0.00     0.270 C 
HETATM   26  N   UNL     1      46.163 -10.730   6.773  1.00  0.00    -0.365 N 
HETATM   27  H   UNL     1      45.778 -10.552   5.854  1.00  0.00     0.159 HD
HETATM   28  H   UNL     1      47.144 -10.910   6.912  1.00  0.00     0.159 HD
HETATM   29  O   UNL     1      45.743 -10.878   8.990  1.00  0.00    -0.266 OA
ENDBRANCH   8  25
TORSDOF 6
ENDMDL
MODEL 4
REMARK VINA RESULT:      -8.4      5.301      8.776
REMARK  6 active torsions:
REMARK  status: ('A' for Active; 'I' for Inactive)
REMARK    1  A    between atoms: C_2  and  C_3 
REMARK    2  A    between atoms: C_3  and  C_4 
REMARK    3  A    between atoms: C_3  and  C_10 
REMARK    4  A    between atoms: C_10  and  C_11 
REMARK       I    between atoms: C_11  and  N_12 
REMARK    5  A    between atoms: N_12  and  C_13 
REMARK    6  A    between atoms: C_20  and  C_21 
REMARK       I    between atoms: C_21  and  N_22 
ROOT
HETATM    1  C   UNL     1      43.994 -12.749   6.481  1.00  0.00     0.035 A 
HETATM    2  C   UNL     1      43.665 -12.221   7.736  1.00  0.00     0.046 A 
HETATM    3  C   UNL     1      44.421 -11.147   8.260  1.00  0.00     0.030 A 
HETATM    4  C   UNL     1      45.484 -10.650   7.517  1.00  0.00     0.063 A 
HETATM    5  N   UNL     1      46.018  -9.644   8.274  1.00  0.00    -0.277 N 
HETATM    6  H   UNL     1      46.813  -9.060   8.045  1.00  0.00     0.189 HD
HETATM    7  N   UNL     1      45.386  -9.429   9.439  1.00  0.00    -0.168 NA
HETATM    8  C   UNL     1      44.394 -10.349   9.445  1.00  0.00     0.156 A 
HETATM    9  C   UNL     1      45.841 -11.153   6.267  1.00  0.00     0.034 A 
HETATM   10  C   UNL     1      45.070 -12.207   5.763  1.00  0.00     0.032 A 
ENDROOT
BRANCH   1  11
HETATM   11  N   UNL     1      43.296 -13.810   5.862  1.00  0.00    -0.327 N 
HETATM   12  C   UNL     1      43.588 -15.161   5.918  1.00  0.00     0.223 C 
HETATM   13  O   UNL     1      44.503 -15.679   6.551  1.00  0.00    -0.273 OA
HETATM   14  H   UNL     1      42.517 -13.532   5.282  1.00  0.00     0.169 HD
BRANCH  12  15
HETATM   15  C   UNL     1      42.597 -16.041   5.167  1.00  0.00     0.116 C 
BRANCH  15  16
HETATM   16  C   UNL     1      43.009 -16.425   3.733  1.00  0.00     0.049 C 
BRANCH  16  17
HETATM   17  C   UNL     1      41.985 -15.874   2.748  1.00  0.00    -0.027 C 
HETATM   18  C   UNL     1      40.676 -15.663   2.944  1.00  0.00     0.007 C 
ENDBRANCH  16  17
BRANCH  16  19
HETATM   19  C   UNL     1      43.323 -17.905   3.563  1.00  0.00    -0.050 A 
HETATM   20  C   UNL     1      43.879 -18.670   4.601  1.00  0.00     0.008 A 
HETATM   21  C   UNL     1      44.159 -20.025   4.416  1.00  0.00     0.001 A 
HETATM   22  C   UNL     1      43.886 -20.636   3.194  1.00  0.00     0.000 A 
HETATM   23  C   UNL     1      43.327 -19.894   2.158  1.00  0.00     0.001 A 
HETATM   24  C   UNL     1      43.043 -18.539   2.342  1.00  0.00     0.008 A 
ENDBRANCH  16  19
ENDBRANCH  15  16
ENDBRANCH  12  15
ENDBRANCH   1  11
BRANCH   8  25
HETATM   25  C   UNL     1      43.449 -10.437  10.567  1.00  0.00     0.270 C 
HETATM   26  N   UNL     1      42.198  -9.960  10.280  1.00  0.00    -0.365 N 
HETATM   27  H   UNL     1      42.017  -9.604   9.349  1.00  0.00     0.159 HD
HETATM   28  H   UNL     1      41.479  -9.994  10.984  1.00  0.00     0.159 HD
HETATM   29  O   UNL     1      43.713 -10.896  11.673  1.00  0.00    -0.266 OA
ENDBRANCH   8  25
TORSDOF 6
ENDMDL
MODEL 5
REMARK VINA RESULT:      -8.3      4.448      6.334
REMARK  6 active torsions:
REMARK  status: ('A' for Active; 'I' for Inactive)
REMARK    1  A    between atoms: C_2  and  C_3 
REMARK    2  A    between atoms: C_3  and  C_4 
REMARK    3  A    between atoms: C_3  and  C_10 
REMARK    4  A    between atoms: C_10  and  C_11 
REMARK       I    between atoms: C_11  and  N_12 
REMARK    5  A    between atoms: N_12  and  C_13 
REMARK    6  A    between atoms: C_20  and  C_21 
REMARK       I    between atoms: C_21  and  N_22 
ROOT
HETATM    1  C   UNL     1      40.175 -13.198   4.763  1.00  0.00     0.035 A 
HETATM    2  C   UNL     1      40.069 -12.421   5.924  1.00  0.00     0.046 A 
HETATM    3  C   UNL     1      39.454 -11.150   5.859  1.00  0.00     0.030 A 
HETATM    4  C   UNL     1      38.979 -10.697   4.634  1.00  0.00     0.063 A 
HETATM    5  N   UNL     1      38.458  -9.458   4.882  1.00  0.00    -0.277 N 
HETATM    6  H   UNL     1      38.028  -8.829   4.215  1.00  0.00     0.189 HD
HETATM    7  N   UNL     1      38.536  -9.068   6.164  1.00  0.00    -0.168 NA
HETATM    8  C   UNL     1      39.147 -10.104   6.782  1.00  0.00     0.156 A 
HETATM    9  C   UNL     1      39.070 -11.442   3.459  1.00  0.00     0.034 A 
HETATM   10  C   UNL     1      39.671 -12.703   3.552  1.00  0.00     0.032 A 
ENDROOT
BRANCH   1  11
HETATM   11  N   UNL     1      40.758 -14.484   4.723  1.00  0.00    -0.327 N 
HETATM   12  C   UNL     1      42.101 -14.807   4.806  1.00  0.00     0.223 C 
HETATM   13  O   UNL     1      43.028 -14.018   4.961  1.00  0.00    -0.273 OA
HETATM   14  H   UNL     1      40.111 -15.245   4.577  1.00  0.00     0.169 HD
BRANCH  12  15
HETATM   15  C   UNL     1      42.382 -16.304   4.775  1.00  0.00     0.116 C 
BRANCH  15  16
HETATM   16  C   UNL     1      43.314 -16.778   3.642  1.00  0.00     0.049 C 
BRANCH  16  17
HETATM   17  C   UNL     1      42.826 -16.211   2.315  1.00  0.00    -0.027 C 
HETATM   18  C   UNL     1      43.508 -15.471   1.429  1.00  0.00     0.007 C 
ENDBRANCH  16  17
BRANCH  16  19
HETATM   19  C   UNL     1      43.558 -18.281   3.642  1.00  0.00    -0.050 A 
HETATM   20  C   UNL     1      44.019 -18.958   4.782  1.00  0.00     0.008 A 
HETATM   21  C   UNL     1      44.237 -20.337   4.751  1.00  0.00     0.001 A 
HETATM   22  C   UNL     1      43.994 -21.059   3.584  1.00  0.00     0.000 A 
HETATM   23  C   UNL     1      43.528 -20.403   2.448  1.00  0.00     0.001 A 
HETATM   24  C   UNL     1      43.307 -19.025   2.478  1.00  0.00     0.008 A 
ENDBRANCH  16  19
ENDBRANCH  15  16
ENDBRANCH  12  15
ENDBRANCH   1  11
BRANCH   8  25
HETATM   25  C   UNL     1      39.413 -10.075   8.228  1.00  0.00     0.270 C 
HETATM   26  N   UNL     1      40.687  -9.693   8.552  1.00  0.00    -0.365 N 
HETATM   27  H   UNL     1      41.328  -9.458   7.803  1.00  0.00     0.159 HD
HETATM   28  H   UNL     1      40.956  -9.628   9.521  1.00  0.00     0.159 HD
HETATM   29  O   UNL     1      38.594 -10.350   9.097  1.00  0.00    -0.266 OA
ENDBRANCH   8  25
TORSDOF 6
ENDMDL
MODEL 6
REMARK VINA RESULT:      -8.1      1.960      3.114
REMARK  6 active torsions:
REMARK  status: ('A' for Active; 'I' for Inactive)
REMARK    1  A    between atoms: C_2  and  C_3 
REMARK    2  A    between atoms: C_3  and  C_4 
REMARK    3  A    between atoms: C_3  and  C_10 
REMARK    4  A    between atoms: C_10  and  C_11 
REMARK       I    between atoms: C_11  and  N_12 
REMARK    5  A    between atoms: N_12  and  C_13 
REMARK    6  A    between atoms: C_20  and  C_21 
REMARK       I    between atoms: C_21  and  N_22 
ROOT
HETATM    1  C   UNL     1      39.887 -13.917  -0.985  1.00  0.00     0.035 A 
HETATM    2  C   UNL     1      39.232 -12.686  -0.846  1.00  0.00     0.046 A 
HETATM    3  C   UNL     1      38.140 -12.378  -1.690  1.00  0.00     0.030 A 
HETATM    4  C   UNL     1      37.751 -13.305  -2.649  1.00  0.00     0.063 A 
HETATM    5  N   UNL     1      36.698 -12.731  -3.304  1.00  0.00    -0.277 N 
HETATM    6  H   UNL     1      36.166 -13.123  -4.071  1.00  0.00     0.189 HD
HETATM    7  N   UNL     1      36.353 -11.517  -2.846  1.00  0.00    -0.168 NA
HETATM    8  C   UNL     1      37.234 -11.285  -1.846  1.00  0.00     0.156 A 
HETATM    9  C   UNL     1      38.382 -14.538  -2.817  1.00  0.00     0.034 A 
HETATM   10  C   UNL     1      39.451 -14.825  -1.961  1.00  0.00     0.032 A 
ENDROOT
BRANCH   1  11
HETATM   11  N   UNL     1      40.977 -14.327  -0.186  1.00  0.00    -0.327 N 
HETATM   12  C   UNL     1      40.943 -15.118   0.949  1.00  0.00     0.223 C 
HETATM   13  O   UNL     1      39.945 -15.631   1.445  1.00  0.00    -0.273 OA
HETATM   14  H   UNL     1      41.876 -13.961  -0.464  1.00  0.00     0.169 HD
BRANCH  12  15
HETATM   15  C   UNL     1      42.315 -15.405   1.545  1.00  0.00     0.116 C 
BRANCH  15  16
HETATM   16  C   UNL     1      42.309 -15.946   2.988  1.00  0.00     0.049 C 
BRANCH  16  17
HETATM   17  C   UNL     1      42.906 -14.902   3.922  1.00  0.00    -0.027 C 
HETATM   18  C   UNL     1      42.501 -13.640   4.121  1.00  0.00     0.007 C 
ENDBRANCH  16  17
BRANCH  16  19
HETATM   19  C   UNL     1      42.912 -17.338   3.120  1.00  0.00    -0.050 A 
HETATM   20  C   UNL     1      42.738 -18.320   2.132  1.00  0.00     0.008 A 
HETATM   21  C   UNL     1      43.301 -19.589   2.282  1.00  0.00     0.001 A 
HETATM   22  C   UNL     1      44.047 -19.895   3.418  1.00  0.00     0.000 A 
HETATM   23  C   UNL     1      44.236 -18.930   4.403  1.00  0.00     0.001 A 
HETATM   24  C   UNL     1      43.676 -17.659   4.254  1.00  0.00     0.008 A 
ENDBRANCH  16  19
ENDBRANCH  15  16
ENDBRANCH  12  15
ENDBRANCH   1  11
BRANCH   8  25
HETATM   25  C   UNL     1      37.184 -10.040  -1.066  1.00  0.00     0.270 C 
HETATM   26  N   UNL     1      36.779 -10.212   0.231  1.00  0.00    -0.365 N 
HETATM   27  H   UNL     1      36.562 -11.148   0.551  1.00  0.00     0.159 HD
HETATM   28  H   UNL     1      36.730  -9.416   0.847  1.00  0.00     0.159 HD
HETATM   29  O   UNL     1      37.477  -8.930  -1.496  1.00  0.00    -0.266 OA
ENDBRANCH   8  25
TORSDOF 6
ENDMDL
MODEL 7
REMARK VINA RESULT:      -7.9      5.258      8.069
REMARK  6 active torsions:
REMARK  status: ('A' for Active; 'I' for Inactive)
REMARK    1  A    between atoms: C_2  and  C_3 
REMARK    2  A    between atoms: C_3  and  C_4 
REMARK    3  A    between atoms: C_3  and  C_10 
REMARK    4  A    between atoms: C_10  and  C_11 
REMARK       I    between atoms: C_11  and  N_12 
REMARK    5  A    between atoms: N_12  and  C_13 
REMARK    6  A    between atoms: C_20  and  C_21 
REMARK       I    between atoms: C_21  and  N_22 
ROOT
HETATM    1  C   UNL     1      42.426 -12.123   6.346  1.00  0.00     0.035 A 
HETATM    2  C   UNL     1      43.427 -11.358   6.960  1.00  0.00     0.046 A 
HETATM    3  C   UNL     1      43.178 -10.002   7.268  1.00  0.00     0.030 A 
HETATM    4  C   UNL     1      41.943  -9.455   6.941  1.00  0.00     0.063 A 
HETATM    5  N   UNL     1      42.005  -8.151   7.345  1.00  0.00    -0.277 N 
HETATM    6  H   UNL     1      41.280  -7.448   7.259  1.00  0.00     0.189 HD
HETATM    7  N   UNL     1      43.165  -7.801   7.922  1.00  0.00    -0.168 NA
HETATM    8  C   UNL     1      43.902  -8.935   7.885  1.00  0.00     0.156 A 
HETATM    9  C   UNL     1      40.926 -10.185   6.328  1.00  0.00     0.034 A 
HETATM   10  C   UNL     1      41.192 -11.530   6.045  1.00  0.00     0.032 A 
ENDROOT
BRANCH   1  11
HETATM   11  N   UNL     1      42.568 -13.487   6.009  1.00  0.00    -0.327 N 
HETATM   12  C   UNL     1      42.896 -14.025   4.777  1.00  0.00     0.223 C 
HETATM   13  O   UNL     1      43.153 -13.394   3.757  1.00  0.00    -0.273 OA
HETATM   14  H   UNL     1      42.366 -14.137   6.755  1.00  0.00     0.169 HD
BRANCH  12  15
HETATM   15  C   UNL     1      43.010 -15.544   4.774  1.00  0.00     0.116 C 
BRANCH  15  16
HETATM   16  C   UNL     1      42.557 -16.237   3.475  1.00  0.00     0.049 C 
BRANCH  16  17
HETATM   17  C   UNL     1      41.054 -16.057   3.302  1.00  0.00    -0.027 C 
HETATM   18  C   UNL     1      40.392 -15.595   2.232  1.00  0.00     0.007 C 
ENDBRANCH  16  17
BRANCH  16  19
HETATM   19  C   UNL     1      43.045 -17.674   3.348  1.00  0.00    -0.050 A 
HETATM   20  C   UNL     1      42.813 -18.438   2.193  1.00  0.00     0.008 A 
HETATM   21  C   UNL     1      43.271 -19.754   2.105  1.00  0.00     0.001 A 
HETATM   22  C   UNL     1      43.969 -20.325   3.168  1.00  0.00     0.000 A 
HETATM   23  C   UNL     1      44.215 -19.578   4.316  1.00  0.00     0.001 A 
HETATM   24  C   UNL     1      43.760 -18.261   4.405  1.00  0.00     0.008 A 
ENDBRANCH  16  19
ENDBRANCH  15  16
ENDBRANCH  12  15
ENDBRANCH   1  11
BRANCH   8  25
HETATM   25  C   UNL     1      45.261  -8.974   8.441  1.00  0.00     0.270 C 
HETATM   26  N   UNL     1      45.341  -9.562   9.675  1.00  0.00    -0.365 N 
HETATM   27  H   UNL     1      44.493  -9.923  10.095  1.00  0.00     0.159 HD
HETATM   28  H   UNL     1      46.237  -9.648  10.128  1.00  0.00     0.159 HD
HETATM   29  O   UNL     1      46.261  -8.539   7.881  1.00  0.00    -0.266 OA
ENDBRANCH   8  25
TORSDOF 6
ENDMDL
MODEL 8
REMARK VINA RESULT:      -7.9      2.920      8.570
REMARK  6 active torsions:
REMARK  status: ('A' for Active; 'I' for Inactive)
REMARK    1  A    between atoms: C_2  and  C_3 
REMARK    2  A    between atoms: C_3  and  C_4 
REMARK    3  A    between atoms: C_3  and  C_10 
REMARK    4  A    between atoms: C_10  and  C_11 
REMARK       I    between atoms: C_11  and  N_12 
REMARK    5  A    between atoms: N_12  and  C_13 
REMARK    6  A    between atoms: C_20  and  C_21 
REMARK       I    between atoms: C_21  and  N_22 
ROOT
HETATM    1  C   UNL     1      42.522 -15.256   2.658  1.00  0.00     0.035 A 
HETATM    2  C   UNL     1      42.524 -15.480   4.041  1.00  0.00     0.046 A 
HETATM    3  C   UNL     1      43.050 -16.689   4.550  1.00  0.00     0.030 A 
HETATM    4  C   UNL     1      43.542 -17.635   3.659  1.00  0.00     0.063 A 
HETATM    5  N   UNL     1      43.963 -18.680   4.434  1.00  0.00    -0.277 N 
HETATM    6  H   UNL     1      44.375 -19.550   4.118  1.00  0.00     0.189 HD
HETATM    7  N   UNL     1      43.805 -18.493   5.753  1.00  0.00    -0.168 NA
HETATM    8  C   UNL     1      43.243 -17.266   5.843  1.00  0.00     0.156 A 
HETATM    9  C   UNL     1      43.552 -17.447   2.278  1.00  0.00     0.034 A 
HETATM   10  C   UNL     1      43.039 -16.236   1.799  1.00  0.00     0.032 A 
ENDROOT
BRANCH   1  11
HETATM   11  N   UNL     1      42.034 -14.079   2.048  1.00  0.00    -0.327 N 
HETATM   12  C   UNL     1      40.723 -13.774   1.726  1.00  0.00     0.223 C 
HETATM   13  O   UNL     1      39.741 -14.476   1.947  1.00  0.00    -0.273 OA
HETATM   14  H   UNL     1      42.739 -13.406   1.787  1.00  0.00     0.169 HD
BRANCH  12  15
HETATM   15  C   UNL     1      40.541 -12.391   1.116  1.00  0.00     0.116 C 
BRANCH  15  16
HETATM   16  C   UNL     1      40.876 -12.281  -0.385  1.00  0.00     0.049 C 
BRANCH  16  17
HETATM   17  C   UNL     1      41.218 -10.836  -0.723  1.00  0.00    -0.027 C 
HETATM   18  C   UNL     1      41.318 -10.269  -1.933  1.00  0.00     0.007 C 
ENDBRANCH  16  17
BRANCH  16  19
HETATM   19  C   UNL     1      39.832 -12.918  -1.292  1.00  0.00    -0.050 A 
HETATM   20  C   UNL     1      38.501 -12.474  -1.317  1.00  0.00     0.008 A 
HETATM   21  C   UNL     1      37.564 -13.079  -2.158  1.00  0.00     0.001 A 
HETATM   22  C   UNL     1      37.944 -14.133  -2.986  1.00  0.00     0.000 A 
HETATM   23  C   UNL     1      39.263 -14.579  -2.980  1.00  0.00     0.001 A 
HETATM   24  C   UNL     1      40.201 -13.973  -2.142  1.00  0.00     0.008 A 
ENDBRANCH  16  19
ENDBRANCH  15  16
ENDBRANCH  12  15
ENDBRANCH   1  11
BRANCH   8  25
HETATM   25  C   UNL     1      42.917 -16.675   7.149  1.00  0.00     0.270 C 
HETATM   26  N   UNL     1      43.897 -16.833   8.092  1.00  0.00    -0.365 N 
HETATM   27  H   UNL     1      44.747 -17.317   7.830  1.00  0.00     0.159 HD
HETATM   28  H   UNL     1      43.768 -16.446   9.013  1.00  0.00     0.159 HD
HETATM   29  O   UNL     1      41.877 -16.080   7.410  1.00  0.00    -0.266 OA
ENDBRANCH   8  25
TORSDOF 6
ENDMDL
MODEL 9
REMARK VINA RESULT:      -7.7      2.772      9.009
REMARK  6 active torsions:
REMARK  status: ('A' for Active; 'I' for Inactive)
REMARK    1  A    between atoms: C_2  and  C_3 
REMARK    2  A    between atoms: C_3  and  C_4 
REMARK    3  A    between atoms: C_3  and  C_10 
REMARK    4  A    between atoms: C_10  and  C_11 
REMARK       I    between atoms: C_11  and  N_12 
REMARK    5  A    between atoms: N_12  and  C_13 
REMARK    6  A    between atoms: C_20  and  C_21 
REMARK       I    between atoms: C_21  and  N_22 
ROOT
HETATM    1  C   UNL     1      42.588 -16.138   2.384  1.00  0.00     0.035 A 
HETATM    2  C   UNL     1      42.352 -15.968   3.754  1.00  0.00     0.046 A 
HETATM    3  C   UNL     1      42.843 -16.925   4.671  1.00  0.00     0.030 A 
HETATM    4  C   UNL     1      43.541 -18.023   4.184  1.00  0.00     0.063 A 
HETATM    5  N   UNL     1      43.872 -18.761   5.286  1.00  0.00    -0.277 N 
HETATM    6  H   UNL     1      44.383 -19.636   5.308  1.00  0.00     0.189 HD
HETATM    7  N   UNL     1      43.467 -18.233   6.452  1.00  0.00    -0.168 NA
HETATM    8  C   UNL     1      42.830 -17.096   6.089  1.00  0.00     0.156 A 
HETATM    9  C   UNL     1      43.792 -18.226   2.828  1.00  0.00     0.034 A 
HETATM   10  C   UNL     1      43.307 -17.258   1.941  1.00  0.00     0.032 A 
ENDROOT
BRANCH   1  11
HETATM   11  N   UNL     1      42.153 -15.235   1.388  1.00  0.00    -0.327 N 
HETATM   12  C   UNL     1      40.860 -15.022   0.947  1.00  0.00     0.223 C 
HETATM   13  O   UNL     1      39.849 -15.570   1.374  1.00  0.00    -0.273 OA
HETATM   14  H   UNL     1      42.888 -14.719   0.926  1.00  0.00     0.169 HD
BRANCH  12  15
HETATM   15  C   UNL     1      40.739 -13.936  -0.115  1.00  0.00     0.116 C 
BRANCH  15  16
HETATM   16  C   UNL     1      39.363 -13.834  -0.802  1.00  0.00     0.049 C 
BRANCH  16  17
HETATM   17  C   UNL     1      39.484 -14.297  -2.248  1.00  0.00    -0.027 C 
HETATM   18  C   UNL     1      38.687 -15.141  -2.917  1.00  0.00     0.007 C 
ENDBRANCH  16  17
BRANCH  16  19
HETATM   19  C   UNL     1      38.689 -12.480  -0.620  1.00  0.00    -0.050 A 
HETATM   20  C   UNL     1      38.626 -11.844   0.629  1.00  0.00     0.008 A 
HETATM   21  C   UNL     1      37.999 -10.603   0.766  1.00  0.00     0.001 A 
HETATM   22  C   UNL     1      37.430  -9.981  -0.343  1.00  0.00     0.000 A 
HETATM   23  C   UNL     1      37.492 -10.594  -1.590  1.00  0.00     0.001 A 
HETATM   24  C   UNL     1      38.121 -11.833  -1.730  1.00  0.00     0.008 A 
ENDBRANCH  16  19
ENDBRANCH  15  16
ENDBRANCH  12  15
ENDBRANCH   1  11
BRANCH   8  25
HETATM   25  C   UNL     1      42.239 -16.204   7.097  1.00  0.00     0.270 C 
HETATM   26  N   UNL     1      43.063 -15.940   8.159  1.00  0.00    -0.365 N 
HETATM   27  H   UNL     1      43.987 -16.354   8.169  1.00  0.00     0.159 HD
HETATM   28  H   UNL     1      42.748 -15.325   8.892  1.00  0.00     0.159 HD
HETATM   29  O   UNL     1      41.118 -15.712   7.028  1.00  0.00    -0.266 OA
ENDBRANCH   8  25
TORSDOF 6
ENDMDL
MODEL 10
REMARK VINA RESULT:      -7.6      4.927      7.826
REMARK  6 active torsions:
REMARK  status: ('A' for Active; 'I' for Inactive)
REMARK    1  A    between atoms: C_2  and  C_3 
REMARK    2  A    between atoms: C_3  and  C_4 
REMARK    3  A    between atoms: C_3  and  C_10 
REMARK    4  A    between atoms: C_10  and  C_11 
REMARK       I    between atoms: C_11  and  N_12 
REMARK    5  A    between atoms: N_12  and  C_13 
REMARK    6  A    between atoms: C_20  and  C_21 
REMARK       I    between atoms: C_21  and  N_22 
ROOT
HETATM    1  C   UNL     1      41.662 -12.292   5.699  1.00  0.00     0.035 A 
HETATM    2  C   UNL     1      42.702 -11.949   6.572  1.00  0.00     0.046 A 
HETATM    3  C   UNL     1      42.843 -10.609   6.997  1.00  0.00     0.030 A 
HETATM    4  C   UNL     1      41.947  -9.658   6.524  1.00  0.00     0.063 A 
HETATM    5  N   UNL     1      42.337  -8.477   7.092  1.00  0.00    -0.277 N 
HETATM    6  H   UNL     1      41.912  -7.566   6.965  1.00  0.00     0.189 HD
HETATM    7  N   UNL     1      43.398  -8.575   7.907  1.00  0.00    -0.168 NA
HETATM    8  C   UNL     1      43.722  -9.888   7.862  1.00  0.00     0.156 A 
HETATM    9  C   UNL     1      40.902  -9.962   5.652  1.00  0.00     0.034 A 
HETATM   10  C   UNL     1      40.776 -11.299   5.257  1.00  0.00     0.032 A 
ENDROOT
BRANCH   1  11
HETATM   11  N   UNL     1      41.426 -13.602   5.226  1.00  0.00    -0.327 N 
HETATM   12  C   UNL     1      40.538 -14.536   5.730  1.00  0.00     0.223 C 
HETATM   13  O   UNL     1      39.770 -14.371   6.672  1.00  0.00    -0.273 OA
HETATM   14  H   UNL     1      42.008 -13.891   4.453  1.00  0.00     0.169 HD
BRANCH  12  15
HETATM   15  C   UNL     1      40.504 -15.843   4.948  1.00  0.00     0.116 C 
BRANCH  15  16
HETATM   16  C   UNL     1      41.339 -15.860   3.653  1.00  0.00     0.049 C 
BRANCH  16  17
HETATM   17  C   UNL     1      40.406 -15.887   2.449  1.00  0.00    -0.027 C 
HETATM   18  C   UNL     1      40.298 -14.986   1.463  1.00  0.00     0.007 C 
ENDBRANCH  16  17
BRANCH  16  19
HETATM   19  C   UNL     1      42.425 -16.927   3.641  1.00  0.00    -0.050 A 
HETATM   20  C   UNL     1      43.216 -17.195   4.770  1.00  0.00     0.008 A 
HETATM   21  C   UNL     1      44.206 -18.178   4.729  1.00  0.00     0.001 A 
HETATM   22  C   UNL     1      44.420 -18.909   3.563  1.00  0.00     0.000 A 
HETATM   23  C   UNL     1      43.639 -18.662   2.438  1.00  0.00     0.001 A 
HETATM   24  C   UNL     1      42.645 -17.681   2.477  1.00  0.00     0.008 A 
ENDBRANCH  16  19
ENDBRANCH  15  16
ENDBRANCH  12  15
ENDBRANCH   1  11
BRANCH   8  25
HETATM   25  C   UNL     1      44.848 -10.418   8.645  1.00  0.00     0.270 C 
HETATM   26  N   UNL     1      44.831 -10.049   9.963  1.00  0.00    -0.365 N 
HETATM   27  H   UNL     1      44.070  -9.469  10.294  1.00  0.00     0.159 HD
HETATM   28  H   UNL     1      45.555 -10.379  10.581  1.00  0.00     0.159 HD
HETATM   29  O   UNL     1      45.737 -11.135   8.199  1.00  0.00    -0.266 OA
ENDBRANCH   8  25
TORSDOF 6
ENDMDL
