MODEL 1
REMARK VINA RESULT:      -7.9      0.000      0.000
REMARK  5 active torsions:
REMARK  status: ('A' for Active; 'I' for Inactive)
REMARK    1  A    between atoms: C_2  and  C_3 
REMARK    2  A    between atoms: C_7  and  N_8 
REMARK    3  A    between atoms: N_8  and  C_9 
REMARK    4  A    between atoms: C_11  and  N_12 
REMARK    5  A    between atoms: C_14  and  N_15 
ROOT
HETATM    1  C   UNL     1      42.323 -14.834   6.525  1.00  0.00     0.111 A 
HETATM    2  N   UNL     1      42.873 -15.253   7.675  1.00  0.00    -0.206 NA
HETATM    3  C   UNL     1      43.550 -16.403   7.665  1.00  0.00     0.202 A 
HETATM    4  N   UNL     1      43.708 -17.188   6.604  1.00  0.00    -0.199 NA
HETATM    5  C   UNL     1      43.130 -16.762   5.459  1.00  0.00     0.156 A 
HETATM    6  C   UNL     1      42.406 -15.590   5.376  1.00  0.00     0.096 A 
ENDROOT
BRANCH   1   7
HETATM    7  N   UNL     1      41.591 -13.645   6.486  1.00  0.00    -0.265 NA
HETATM    8  H   UNL     1      40.610 -13.798   6.284  1.00  0.00     0.130 HD
BRANCH   7   9
HETATM    9  C   UNL     1      42.169 -12.500   5.768  1.00  0.00     0.133 C 
HETATM   10  C   UNL     1      42.934 -11.587   6.690  1.00  0.00     0.142 A 
HETATM   11  N   UNL     1      42.406 -10.414   7.146  1.00  0.00    -0.253 N 
HETATM   12  N   UNL     1      44.143 -11.729   7.199  1.00  0.00    -0.215 NA
HETATM   13  N   UNL     1      43.256  -9.760   7.950  1.00  0.00    -0.155 NA
HETATM   14  C   UNL     1      41.143  -9.830   6.755  1.00  0.00     0.153 C 
HETATM   15  C   UNL     1      44.302 -10.598   7.963  1.00  0.00     0.151 A 
HETATM   16  C   UNL     1      40.249 -10.831   6.028  1.00  0.00     0.024 C 
HETATM   17  C   UNL     1      41.062 -11.683   5.048  1.00  0.00     0.029 C 
BRANCH  15  18
HETATM   18  C   UNL     1      45.550 -10.311   8.732  1.00  0.00     0.051 C 
HETATM   19  C   UNL     1      45.232  -9.897  10.169  1.00  0.00     0.018 C 
HETATM   20  C   UNL     1      46.399  -9.244   8.041  1.00  0.00     0.018 C 
ENDBRANCH  15  18
ENDBRANCH   7   9
ENDBRANCH   1   7
BRANCH   3  21
HETATM   21  N   UNL     1      44.098 -16.827   8.858  1.00  0.00    -0.271 NA
HETATM   22  H   UNL     1      45.104 -16.870   8.768  1.00  0.00     0.127 HD
HETATM   23  H   UNL     1      43.732 -16.268   9.618  1.00  0.00     0.127 HD
ENDBRANCH   3  21
BRANCH   5  24
HETATM   24  N   UNL     1      43.298 -17.554   4.287  1.00  0.00    -0.227 N 
HETATM   25  N   UNL     1      44.092 -18.661   4.261  1.00  0.00    -0.179 NA
HETATM   26  C   UNL     1      43.972 -19.126   3.016  1.00  0.00     0.141 A 
HETATM   27  C   UNL     1      43.111 -18.348   2.227  1.00  0.00     0.040 A 
HETATM   28  C   UNL     1      42.690 -17.345   3.065  1.00  0.00     0.122 A 
ENDBRANCH   5  24
TORSDOF 5
ENDMDL
MODEL 2
REMARK VINA RESULT:      -7.8      4.829      8.600
REMARK  5 active torsions:
REMARK  status: ('A' for Active; 'I' for Inactive)
REMARK    1  A    between atoms: C_2  and  C_3 
REMARK    2  A    between atoms: C_7  and  N_8 
REMARK    3  A    between atoms: N_8  and  C_9 
REMARK    4  A    between atoms: C_11  and  N_12 
REMARK    5  A    between atoms: C_14  and  N_15 
ROOT
HETATM    1  C   UNL     1      40.756 -14.313   0.894  1.00  0.00     0.111 A 
HETATM    2  N   UNL     1      39.972 -15.009   0.057  1.00  0.00    -0.206 NA
HETATM    3  C   UNL     1      39.583 -14.421  -1.077  1.00  0.00     0.202 A 
HETATM    4  N   UNL     1      39.893 -13.180  -1.438  1.00  0.00    -0.199 NA
HETATM    5  C   UNL     1      40.666 -12.485  -0.574  1.00  0.00     0.156 A 
HETATM    6  C   UNL     1      41.110 -13.009   0.623  1.00  0.00     0.096 A 
ENDROOT
BRANCH   1   7
HETATM    7  N   UNL     1      41.176 -14.878   2.100  1.00  0.00    -0.265 NA
HETATM    8  H   UNL     1      40.613 -14.581   2.887  1.00  0.00     0.130 HD
BRANCH   7   9
HETATM    9  C   UNL     1      42.618 -14.906   2.385  1.00  0.00     0.133 C 
HETATM   10  C   UNL     1      43.061 -16.248   2.908  1.00  0.00     0.142 A 
HETATM   11  N   UNL     1      43.286 -16.466   4.237  1.00  0.00    -0.253 N 
HETATM   12  N   UNL     1      43.287 -17.371   2.255  1.00  0.00    -0.215 NA
HETATM   13  N   UNL     1      43.673 -17.726   4.480  1.00  0.00    -0.155 NA
HETATM   14  C   UNL     1      43.249 -15.476   5.289  1.00  0.00     0.153 C 
HETATM   15  C   UNL     1      43.654 -18.249   3.246  1.00  0.00     0.151 A 
HETATM   16  C   UNL     1      42.573 -14.184   4.838  1.00  0.00     0.024 C 
HETATM   17  C   UNL     1      43.000 -13.809   3.415  1.00  0.00     0.029 C 
BRANCH  15  18
HETATM   18  C   UNL     1      44.026 -19.669   2.970  1.00  0.00     0.051 C 
HETATM   19  C   UNL     1      43.133 -20.274   1.886  1.00  0.00     0.018 C 
HETATM   20  C   UNL     1      43.976 -20.517   4.241  1.00  0.00     0.018 C 
ENDBRANCH  15  18
ENDBRANCH   7   9
ENDBRANCH   1   7
BRANCH   3  21
HETATM   21  N   UNL     1      38.768 -15.145  -1.920  1.00  0.00    -0.271 NA
HETATM   22  H   UNL     1      38.270 -14.512  -2.531  1.00  0.00     0.127 HD
HETATM   23  H   UNL     1      39.304 -15.879  -2.364  1.00  0.00     0.127 HD
ENDBRANCH   3  21
BRANCH   5  24
HETATM   24  N   UNL     1      41.051 -11.161  -0.932  1.00  0.00    -0.227 N 
HETATM   25  N   UNL     1      41.607 -10.295  -0.039  1.00  0.00    -0.179 NA
HETATM   26  C   UNL     1      41.837  -9.189  -0.749  1.00  0.00     0.141 A 
HETATM   27  C   UNL     1      41.447  -9.315  -2.091  1.00  0.00     0.040 A 
HETATM   28  C   UNL     1      40.945 -10.590  -2.185  1.00  0.00     0.122 A 
ENDBRANCH   5  24
TORSDOF 5
ENDMDL
MODEL 3
REMARK VINA RESULT:      -7.8      4.233      7.798
REMARK  5 active torsions:
REMARK  status: ('A' for Active; 'I' for Inactive)
REMARK    1  A    between atoms: C_2  and  C_3 
REMARK    2  A    between atoms: C_7  and  N_8 
REMARK    3  A    between atoms: N_8  and  C_9 
REMARK    4  A    between atoms: C_11  and  N_12 
REMARK    5  A    between atoms: C_14  and  N_15 
ROOT
HETATM    1  C   UNL     1      40.429 -14.142   2.752  1.00  0.00     0.111 A 
HETATM    2  N   UNL     1      39.826 -13.072   3.292  1.00  0.00    -0.206 NA
HETATM    3  C   UNL     1      39.242 -12.197   2.470  1.00  0.00     0.202 A 
HETATM    4  N   UNL     1      39.228 -12.288   1.144  1.00  0.00    -0.199 NA
HETATM    5  C   UNL     1      39.858 -13.361   0.615  1.00  0.00     0.156 A 
HETATM    6  C   UNL     1      40.494 -14.312   1.386  1.00  0.00     0.096 A 
ENDROOT
BRANCH   1   7
HETATM    7  N   UNL     1      41.068 -15.077   3.569  1.00  0.00    -0.265 NA
HETATM    8  H   UNL     1      40.656 -15.135   4.492  1.00  0.00     0.130 HD
BRANCH   7   9
HETATM    9  C   UNL     1      42.538 -15.096   3.579  1.00  0.00     0.133 C 
HETATM   10  C   UNL     1      43.080 -16.482   3.810  1.00  0.00     0.142 A 
HETATM   11  N   UNL     1      43.550 -16.879   5.029  1.00  0.00    -0.253 N 
HETATM   12  N   UNL     1      43.189 -17.492   2.969  1.00  0.00    -0.215 NA
HETATM   13  N   UNL     1      43.984 -18.147   5.010  1.00  0.00    -0.155 NA
HETATM   14  C   UNL     1      43.702 -16.052   6.204  1.00  0.00     0.153 C 
HETATM   15  C   UNL     1      43.741 -18.490   3.737  1.00  0.00     0.151 A 
HETATM   16  C   UNL     1      42.944 -14.733   6.078  1.00  0.00     0.024 C 
HETATM   17  C   UNL     1      43.097 -14.144   4.671  1.00  0.00     0.029 C 
BRANCH  15  18
HETATM   18  C   UNL     1      44.065 -19.843   3.193  1.00  0.00     0.051 C 
HETATM   19  C   UNL     1      43.206 -20.168   1.971  1.00  0.00     0.018 C 
HETATM   20  C   UNL     1      43.911 -20.926   4.261  1.00  0.00     0.018 C 
ENDBRANCH  15  18
ENDBRANCH   7   9
ENDBRANCH   1   7
BRANCH   3  21
HETATM   21  N   UNL     1      38.638 -11.096   3.040  1.00  0.00    -0.271 NA
HETATM   22  H   UNL     1      38.999 -10.256   2.610  1.00  0.00     0.127 HD
HETATM   23  H   UNL     1      37.634 -11.217   3.031  1.00  0.00     0.127 HD
ENDBRANCH   3  21
BRANCH   5  24
HETATM   24  N   UNL     1      39.843 -13.517  -0.801  1.00  0.00    -0.227 N 
HETATM   25  N   UNL     1      40.507 -12.670  -1.636  1.00  0.00    -0.179 NA
HETATM   26  C   UNL     1      40.268 -13.153  -2.857  1.00  0.00     0.141 A 
HETATM   27  C   UNL     1      39.464 -14.303  -2.837  1.00  0.00     0.040 A 
HETATM   28  C   UNL     1      39.204 -14.517  -1.506  1.00  0.00     0.122 A 
ENDBRANCH   5  24
TORSDOF 5
ENDMDL
MODEL 4
REMARK VINA RESULT:      -7.7      2.079      7.470
REMARK  5 active torsions:
REMARK  status: ('A' for Active; 'I' for Inactive)
REMARK    1  A    between atoms: C_2  and  C_3 
REMARK    2  A    between atoms: C_7  and  N_8 
REMARK    3  A    between atoms: N_8  and  C_9 
REMARK    4  A    between atoms: C_11  and  N_12 
REMARK    5  A    between atoms: C_14  and  N_15 
ROOT
HETATM    1  C   UNL     1      44.114 -11.812   6.622  1.00  0.00     0.111 A 
HETATM    2  N   UNL     1      45.412 -11.532   6.427  1.00  0.00    -0.206 NA
HETATM    3  C   UNL     1      46.085 -10.948   7.421  1.00  0.00     0.202 A 
HETATM    4  N   UNL     1      45.564 -10.597   8.593  1.00  0.00    -0.199 NA
HETATM    5  C   UNL     1      44.251 -10.867   8.765  1.00  0.00     0.156 A 
HETATM    6  C   UNL     1      43.474 -11.463   7.790  1.00  0.00     0.096 A 
ENDROOT
BRANCH   1   7
HETATM    7  N   UNL     1      43.363 -12.408   5.606  1.00  0.00    -0.265 NA
HETATM    8  H   UNL     1      43.004 -11.735   4.940  1.00  0.00     0.130 HD
BRANCH   7   9
HETATM    9  C   UNL     1      42.386 -13.440   5.983  1.00  0.00     0.133 C 
HETATM   10  C   UNL     1      42.634 -14.738   5.260  1.00  0.00     0.142 A 
HETATM   11  N   UNL     1      41.889 -15.117   4.180  1.00  0.00    -0.253 N 
HETATM   12  N   UNL     1      43.536 -15.672   5.496  1.00  0.00    -0.215 NA
HETATM   13  N   UNL     1      42.278 -16.304   3.695  1.00  0.00    -0.155 NA
HETATM   14  C   UNL     1      40.734 -14.430   3.649  1.00  0.00     0.153 C 
HETATM   15  C   UNL     1      43.290 -16.607   4.520  1.00  0.00     0.151 A 
HETATM   16  C   UNL     1      40.611 -13.009   4.193  1.00  0.00     0.024 C 
HETATM   17  C   UNL     1      40.937 -12.965   5.690  1.00  0.00     0.029 C 
BRANCH  15  18
HETATM   18  C   UNL     1      44.072 -17.874   4.399  1.00  0.00     0.051 C 
HETATM   19  C   UNL     1      43.805 -18.563   3.060  1.00  0.00     0.018 C 
HETATM   20  C   UNL     1      43.779 -18.824   5.560  1.00  0.00     0.018 C 
ENDBRANCH  15  18
ENDBRANCH   7   9
ENDBRANCH   1   7
BRANCH   3  21
HETATM   21  N   UNL     1      47.414 -10.655   7.202  1.00  0.00    -0.271 NA
HETATM   22  H   UNL     1      47.846 -11.417   6.697  1.00  0.00     0.127 HD
HETATM   23  H   UNL     1      47.496  -9.733   6.794  1.00  0.00     0.127 HD
ENDBRANCH   3  21
BRANCH   5  24
HETATM   24  N   UNL     1      43.655 -10.537  10.016  1.00  0.00    -0.227 N 
HETATM   25  N   UNL     1      43.965 -11.194  11.168  1.00  0.00    -0.179 NA
HETATM   26  C   UNL     1      43.227 -10.591  12.102  1.00  0.00     0.141 A 
HETATM   27  C   UNL     1      42.442  -9.549  11.584  1.00  0.00     0.040 A 
HETATM   28  C   UNL     1      42.734  -9.534  10.243  1.00  0.00     0.122 A 
ENDBRANCH   5  24
TORSDOF 5
ENDMDL
MODEL 5
REMARK VINA RESULT:      -7.7      4.047      6.487
REMARK  5 active torsions:
REMARK  status: ('A' for Active; 'I' for Inactive)
REMARK    1  A    between atoms: C_2  and  C_3 
REMARK    2  A    between atoms: C_7  and  N_8 
REMARK    3  A    between atoms: N_8  and  C_9 
REMARK    4  A    between atoms: C_11  and  N_12 
REMARK    5  A    between atoms: C_14  and  N_15 
ROOT
HETATM    1  C   UNL     1      42.665 -15.158   3.760  1.00  0.00     0.111 A 
HETATM    2  N   UNL     1      43.063 -14.943   5.022  1.00  0.00    -0.206 NA
HETATM    3  C   UNL     1      43.601 -15.963   5.695  1.00  0.00     0.202 A 
HETATM    4  N   UNL     1      43.754 -17.194   5.220  1.00  0.00    -0.199 NA
HETATM    5  C   UNL     1      43.328 -17.400   3.953  1.00  0.00     0.156 A 
HETATM    6  C   UNL     1      42.755 -16.407   3.185  1.00  0.00     0.096 A 
ENDROOT
BRANCH   1   7
HETATM    7  N   UNL     1      42.082 -14.127   3.020  1.00  0.00    -0.265 NA
HETATM    8  H   UNL     1      42.382 -13.210   3.325  1.00  0.00     0.130 HD
BRANCH   7   9
HETATM    9  C   UNL     1      40.641 -14.210   2.735  1.00  0.00     0.133 C 
HETATM   10  C   UNL     1      40.328 -13.825   1.313  1.00  0.00     0.142 A 
HETATM   11  N   UNL     1      39.827 -12.596   0.991  1.00  0.00    -0.253 N 
HETATM   12  N   UNL     1      40.468 -14.524   0.203  1.00  0.00    -0.215 NA
HETATM   13  N   UNL     1      39.621 -12.468  -0.327  1.00  0.00    -0.155 NA
HETATM   14  C   UNL     1      39.433 -11.559   1.917  1.00  0.00     0.153 C 
HETATM   15  C   UNL     1      40.031 -13.663  -0.775  1.00  0.00     0.151 A 
HETATM   16  C   UNL     1      39.960 -11.817   3.326  1.00  0.00     0.024 C 
HETATM   17  C   UNL     1      39.833 -13.299   3.697  1.00  0.00     0.029 C 
BRANCH  15  18
HETATM   18  C   UNL     1      39.993 -14.034  -2.221  1.00  0.00     0.051 C 
HETATM   19  C   UNL     1      39.912 -12.792  -3.109  1.00  0.00     0.018 C 
HETATM   20  C   UNL     1      38.835 -14.986  -2.523  1.00  0.00     0.018 C 
ENDBRANCH  15  18
ENDBRANCH   7   9
ENDBRANCH   1   7
BRANCH   3  21
HETATM   21  N   UNL     1      43.994 -15.728   6.996  1.00  0.00    -0.271 NA
HETATM   22  H   UNL     1      44.263 -14.759   7.095  1.00  0.00     0.127 HD
HETATM   23  H   UNL     1      43.286 -16.071   7.632  1.00  0.00     0.127 HD
ENDBRANCH   3  21
BRANCH   5  24
HETATM   24  N   UNL     1      43.500 -18.697   3.389  1.00  0.00    -0.227 N 
HETATM   25  N   UNL     1      43.998 -19.744   4.105  1.00  0.00    -0.179 NA
HETATM   26  C   UNL     1      43.986 -20.767   3.247  1.00  0.00     0.141 A 
HETATM   27  C   UNL     1      43.487 -20.410   1.985  1.00  0.00     0.040 A 
HETATM   28  C   UNL     1      43.181 -19.076   2.101  1.00  0.00     0.122 A 
ENDBRANCH   5  24
TORSDOF 5
ENDMDL
MODEL 6
REMARK VINA RESULT:      -7.5      1.655      2.635
REMARK  5 active torsions:
REMARK  status: ('A' for Active; 'I' for Inactive)
REMARK    1  A    between atoms: C_2  and  C_3 
REMARK    2  A    between atoms: C_7  and  N_8 
REMARK    3  A    between atoms: N_8  and  C_9 
REMARK    4  A    between atoms: C_11  and  N_12 
REMARK    5  A    between atoms: C_14  and  N_15 
ROOT
HETATM    1  C   UNL     1      41.682 -14.391   4.960  1.00  0.00     0.111 A 
HETATM    2  N   UNL     1      40.607 -14.215   4.176  1.00  0.00    -0.206 NA
HETATM    3  C   UNL     1      40.355 -15.133   3.240  1.00  0.00     0.202 A 
HETATM    4  N   UNL     1      41.102 -16.207   3.003  1.00  0.00    -0.199 NA
HETATM    5  C   UNL     1      42.192 -16.357   3.787  1.00  0.00     0.156 A 
HETATM    6  C   UNL     1      42.535 -15.456   4.775  1.00  0.00     0.096 A 
ENDROOT
BRANCH   1   7
HETATM    7  N   UNL     1      41.997 -13.450   5.943  1.00  0.00    -0.265 NA
HETATM    8  H   UNL     1      41.175 -13.037   6.366  1.00  0.00     0.130 HD
BRANCH   7   9
HETATM    9  C   UNL     1      43.062 -12.478   5.653  1.00  0.00     0.133 C 
HETATM   10  C   UNL     1      43.358 -11.600   6.841  1.00  0.00     0.142 A 
HETATM   11  N   UNL     1      42.884 -10.323   6.931  1.00  0.00    -0.253 N 
HETATM   12  N   UNL     1      44.057 -11.865   7.927  1.00  0.00    -0.215 NA
HETATM   13  N   UNL     1      43.268  -9.724   8.067  1.00  0.00    -0.155 NA
HETATM   14  C   UNL     1      42.154  -9.603   5.913  1.00  0.00     0.153 C 
HETATM   15  C   UNL     1      43.977 -10.700   8.652  1.00  0.00     0.151 A 
HETATM   16  C   UNL     1      41.631 -10.529   4.818  1.00  0.00     0.024 C 
HETATM   17  C   UNL     1      42.679 -11.583   4.443  1.00  0.00     0.029 C 
BRANCH  15  18
HETATM   18  C   UNL     1      44.645 -10.524   9.976  1.00  0.00     0.051 C 
HETATM   19  C   UNL     1      43.616 -10.406  11.102  1.00  0.00     0.018 C 
HETATM   20  C   UNL     1      45.580  -9.315   9.974  1.00  0.00     0.018 C 
ENDBRANCH  15  18
ENDBRANCH   7   9
ENDBRANCH   1   7
BRANCH   3  21
HETATM   21  N   UNL     1      39.254 -14.932   2.435  1.00  0.00    -0.271 NA
HETATM   22  H   UNL     1      38.529 -14.470   2.967  1.00  0.00     0.127 HD
HETATM   23  H   UNL     1      39.540 -14.487   1.573  1.00  0.00     0.127 HD
ENDBRANCH   3  21
BRANCH   5  24
HETATM   24  N   UNL     1      43.007 -17.509   3.591  1.00  0.00    -0.227 N 
HETATM   25  N   UNL     1      43.824 -18.001   4.565  1.00  0.00    -0.179 NA
HETATM   26  C   UNL     1      44.393 -19.073   4.010  1.00  0.00     0.141 A 
HETATM   27  C   UNL     1      43.961 -19.296   2.694  1.00  0.00     0.040 A 
HETATM   28  C   UNL     1      43.071 -18.279   2.447  1.00  0.00     0.122 A 
ENDBRANCH   5  24
TORSDOF 5
ENDMDL
MODEL 7
REMARK VINA RESULT:      -7.4      5.309      7.583
REMARK  5 active torsions:
REMARK  status: ('A' for Active; 'I' for Inactive)
REMARK    1  A    between atoms: C_2  and  C_3 
REMARK    2  A    between atoms: C_7  and  N_8 
REMARK    3  A    between atoms: N_8  and  C_9 
REMARK    4  A    between atoms: C_11  and  N_12 
REMARK    5  A    between atoms: C_14  and  N_15 
ROOT
HETATM    1  C   UNL     1      40.227 -15.158   1.568  1.00  0.00     0.111 A 
HETATM    2  N   UNL     1      39.853 -14.379   2.594  1.00  0.00    -0.206 NA
HETATM    3  C   UNL     1      40.428 -14.583   3.781  1.00  0.00     0.202 A 
HETATM    4  N   UNL     1      41.335 -15.520   4.039  1.00  0.00    -0.199 NA
HETATM    5  C   UNL     1      41.686 -16.310   2.999  1.00  0.00     0.156 A 
HETATM    6  C   UNL     1      41.139 -16.177   1.739  1.00  0.00     0.096 A 
ENDROOT
BRANCH   1   7
HETATM    7  N   UNL     1      39.643 -14.995   0.310  1.00  0.00    -0.265 NA
HETATM    8  H   UNL     1      39.642 -15.849  -0.234  1.00  0.00     0.130 HD
BRANCH   7   9
HETATM    9  C   UNL     1      40.003 -13.801  -0.470  1.00  0.00     0.133 C 
HETATM   10  C   UNL     1      38.953 -12.726  -0.368  1.00  0.00     0.142 A 
HETATM   11  N   UNL     1      38.045 -12.507  -1.364  1.00  0.00    -0.253 N 
HETATM   12  N   UNL     1      38.717 -11.872   0.610  1.00  0.00    -0.215 NA
HETATM   13  N   UNL     1      37.207 -11.504  -1.066  1.00  0.00    -0.155 NA
HETATM   14  C   UNL     1      38.010 -13.156  -2.654  1.00  0.00     0.153 C 
HETATM   15  C   UNL     1      37.644 -11.147   0.150  1.00  0.00     0.151 A 
HETATM   16  C   UNL     1      38.890 -14.403  -2.693  1.00  0.00     0.024 C 
HETATM   17  C   UNL     1      40.217 -14.161  -1.965  1.00  0.00     0.029 C 
BRANCH  15  18
HETATM   18  C   UNL     1      37.027 -10.034   0.931  1.00  0.00     0.051 C 
HETATM   19  C   UNL     1      35.665  -9.645   0.356  1.00  0.00     0.018 C 
HETATM   20  C   UNL     1      37.950  -8.817   0.994  1.00  0.00     0.018 C 
ENDBRANCH  15  18
ENDBRANCH   7   9
ENDBRANCH   1   7
BRANCH   3  21
HETATM   21  N   UNL     1      40.024 -13.782   4.829  1.00  0.00    -0.271 NA
HETATM   22  H   UNL     1      39.244 -14.219   5.302  1.00  0.00     0.127 HD
HETATM   23  H   UNL     1      40.823 -13.538   5.398  1.00  0.00     0.127 HD
ENDBRANCH   3  21
BRANCH   5  24
HETATM   24  N   UNL     1      42.677 -17.309   3.219  1.00  0.00    -0.227 N 
HETATM   25  N   UNL     1      42.912 -18.313   2.328  1.00  0.00    -0.179 NA
HETATM   26  C   UNL     1      43.906 -19.016   2.876  1.00  0.00     0.141 A 
HETATM   27  C   UNL     1      44.328 -18.490   4.106  1.00  0.00     0.040 A 
HETATM   28  C   UNL     1      43.525 -17.394   4.305  1.00  0.00     0.122 A 
ENDBRANCH   5  24
TORSDOF 5
ENDMDL
MODEL 8
REMARK VINA RESULT:      -7.2      2.216      3.372
REMARK  5 active torsions:
REMARK  status: ('A' for Active; 'I' for Inactive)
REMARK    1  A    between atoms: C_2  and  C_3 
REMARK    2  A    between atoms: C_7  and  N_8 
REMARK    3  A    between atoms: N_8  and  C_9 
REMARK    4  A    between atoms: C_11  and  N_12 
REMARK    5  A    between atoms: C_14  and  N_15 
ROOT
HETATM    1  C   UNL     1      40.575 -14.296   3.691  1.00  0.00     0.111 A 
HETATM    2  N   UNL     1      39.971 -14.304   2.493  1.00  0.00    -0.206 NA
HETATM    3  C   UNL     1      40.293 -15.272   1.633  1.00  0.00     0.202 A 
HETATM    4  N   UNL     1      41.191 -16.226   1.858  1.00  0.00    -0.199 NA
HETATM    5  C   UNL     1      41.805 -16.192   3.062  1.00  0.00     0.156 A 
HETATM    6  C   UNL     1      41.540 -15.225   4.011  1.00  0.00     0.096 A 
ENDROOT
BRANCH   1   7
HETATM    7  N   UNL     1      40.283 -13.295   4.620  1.00  0.00    -0.265 NA
HETATM    8  H   UNL     1      39.304 -13.275   4.878  1.00  0.00     0.130 HD
BRANCH   7   9
HETATM    9  C   UNL     1      40.861 -11.960   4.403  1.00  0.00     0.133 C 
HETATM   10  C   UNL     1      41.839 -11.589   5.486  1.00  0.00     0.142 A 
HETATM   11  N   UNL     1      41.503 -10.745   6.505  1.00  0.00    -0.253 N 
HETATM   12  N   UNL     1      43.089 -11.975   5.657  1.00  0.00    -0.215 NA
HETATM   13  N   UNL     1      42.522 -10.552   7.353  1.00  0.00    -0.155 NA
HETATM   14  C   UNL     1      40.261 -10.020   6.646  1.00  0.00     0.153 C 
HETATM   15  C   UNL     1      43.470 -11.325   6.806  1.00  0.00     0.151 A 
HETATM   16  C   UNL     1      39.175 -10.556   5.716  1.00  0.00     0.024 C 
HETATM   17  C   UNL     1      39.748 -10.880   4.332  1.00  0.00     0.029 C 
BRANCH  15  18
HETATM   18  C   UNL     1      44.840 -11.450   7.389  1.00  0.00     0.051 C 
HETATM   19  C   UNL     1      45.058 -10.433   8.510  1.00  0.00     0.018 C 
HETATM   20  C   UNL     1      45.919 -11.307   6.317  1.00  0.00     0.018 C 
ENDBRANCH  15  18
ENDBRANCH   7   9
ENDBRANCH   1   7
BRANCH   3  21
HETATM   21  N   UNL     1      39.673 -15.259   0.401  1.00  0.00    -0.271 NA
HETATM   22  H   UNL     1      39.130 -14.412   0.309  1.00  0.00     0.127 HD
HETATM   23  H   UNL     1      40.353 -15.445  -0.324  1.00  0.00     0.127 HD
ENDBRANCH   3  21
BRANCH   5  24
HETATM   24  N   UNL     1      42.753 -17.212   3.362  1.00  0.00    -0.227 N 
HETATM   25  N   UNL     1      42.999 -18.252   2.516  1.00  0.00    -0.179 NA
HETATM   26  C   UNL     1      43.943 -18.965   3.134  1.00  0.00     0.141 A 
HETATM   27  C   UNL     1      44.323 -18.410   4.365  1.00  0.00     0.040 A 
HETATM   28  C   UNL     1      43.546 -17.285   4.489  1.00  0.00     0.122 A 
ENDBRANCH   5  24
TORSDOF 5
ENDMDL
MODEL 9
REMARK VINA RESULT:      -7.0     16.477     18.479
REMARK  5 active torsions:
REMARK  status: ('A' for Active; 'I' for Inactive)
REMARK    1  A    between atoms: C_2  and  C_3 
REMARK    2  A    between atoms: C_7  and  N_8 
REMARK    3  A    between atoms: N_8  and  C_9 
REMARK    4  A    between atoms: C_11  and  N_12 
REMARK    5  A    between atoms: C_14  and  N_15 
ROOT
HETATM    1  C   UNL     1      45.563 -29.768   1.185  1.00  0.00     0.111 A 
HETATM    2  N   UNL     1      44.362 -29.669   1.775  1.00  0.00    -0.206 NA
HETATM    3  C   UNL     1      43.304 -29.404   1.006  1.00  0.00     0.202 A 
HETATM    4  N   UNL     1      43.345 -29.203  -0.308  1.00  0.00    -0.199 NA
HETATM    5  C   UNL     1      44.566 -29.285  -0.883  1.00  0.00     0.156 A 
HETATM    6  C   UNL     1      45.716 -29.549  -0.167  1.00  0.00     0.096 A 
ENDROOT
BRANCH   1   7
HETATM    7  N   UNL     1      46.703 -30.028   1.949  1.00  0.00    -0.265 NA
HETATM    8  H   UNL     1      46.489 -30.195   2.924  1.00  0.00     0.130 HD
BRANCH   7   9
HETATM    9  C   UNL     1      47.883 -29.175   1.743  1.00  0.00     0.133 C 
HETATM   10  C   UNL     1      49.047 -29.953   1.188  1.00  0.00     0.142 A 
HETATM   11  N   UNL     1      50.084 -30.363   1.977  1.00  0.00    -0.253 N 
HETATM   12  N   UNL     1      49.273 -30.363  -0.046  1.00  0.00    -0.215 NA
HETATM   13  N   UNL     1      51.009 -31.036   1.280  1.00  0.00    -0.155 NA
HETATM   14  C   UNL     1      50.281 -30.042   3.372  1.00  0.00     0.153 C 
HETATM   15  C   UNL     1      50.475 -31.021   0.050  1.00  0.00     0.151 A 
HETATM   16  C   UNL     1      49.018 -29.475   4.015  1.00  0.00     0.024 C 
HETATM   17  C   UNL     1      48.313 -28.495   3.070  1.00  0.00     0.029 C 
BRANCH  15  18
HETATM   18  C   UNL     1      51.147 -31.652  -1.125  1.00  0.00     0.051 C 
HETATM   19  C   UNL     1      52.407 -32.409  -0.700  1.00  0.00     0.018 C 
HETATM   20  C   UNL     1      51.479 -30.618  -2.200  1.00  0.00     0.018 C 
ENDBRANCH  15  18
ENDBRANCH   7   9
ENDBRANCH   1   7
BRANCH   3  21
HETATM   21  N   UNL     1      42.078 -29.294   1.629  1.00  0.00    -0.271 NA
HETATM   22  H   UNL     1      42.165 -29.583   2.593  1.00  0.00     0.127 HD
HETATM   23  H   UNL     1      41.693 -28.373   1.462  1.00  0.00     0.127 HD
ENDBRANCH   3  21
BRANCH   5  24
HETATM   24  N   UNL     1      44.657 -29.108  -2.293  1.00  0.00    -0.227 N 
HETATM   25  N   UNL     1      45.128 -27.959  -2.856  1.00  0.00    -0.179 NA
HETATM   26  C   UNL     1      45.074 -28.188  -4.170  1.00  0.00     0.141 A 
HETATM   27  C   UNL     1      44.581 -29.465  -4.478  1.00  0.00     0.040 A 
HETATM   28  C   UNL     1      44.321 -30.037  -3.257  1.00  0.00     0.122 A 
ENDBRANCH   5  24
TORSDOF 5
ENDMDL
MODEL 10
REMARK VINA RESULT:      -6.9     16.167     18.555
REMARK  5 active torsions:
REMARK  status: ('A' for Active; 'I' for Inactive)
REMARK    1  A    between atoms: C_2  and  C_3 
REMARK    2  A    between atoms: C_7  and  N_8 
REMARK    3  A    between atoms: N_8  and  C_9 
REMARK    4  A    between atoms: C_11  and  N_12 
REMARK    5  A    between atoms: C_14  and  N_15 
ROOT
HETATM    1  C   UNL     1      46.820 -28.207  -1.771  1.00  0.00     0.111 A 
HETATM    2  N   UNL     1      46.402 -27.845  -0.548  1.00  0.00    -0.206 NA
HETATM    3  C   UNL     1      47.126 -28.233   0.504  1.00  0.00     0.202 A 
HETATM    4  N   UNL     1      48.226 -28.976   0.441  1.00  0.00    -0.199 NA
HETATM    5  C   UNL     1      48.622 -29.350  -0.796  1.00  0.00     0.156 A 
HETATM    6  C   UNL     1      47.933 -29.001  -1.940  1.00  0.00     0.096 A 
ENDROOT
BRANCH   1   7
HETATM    7  N   UNL     1      46.088 -27.839  -2.902  1.00  0.00    -0.265 NA
HETATM    8  H   UNL     1      46.038 -26.836  -3.026  1.00  0.00     0.130 HD
BRANCH   7   9
HETATM    9  C   UNL     1      44.813 -28.527  -3.154  1.00  0.00     0.133 C 
HETATM   10  C   UNL     1      44.411 -29.406  -1.999  1.00  0.00     0.142 A 
HETATM   11  N   UNL     1      44.589 -30.759  -2.026  1.00  0.00    -0.253 N 
HETATM   12  N   UNL     1      43.871 -29.077  -0.841  1.00  0.00    -0.215 NA
HETATM   13  N   UNL     1      44.162 -31.344  -0.898  1.00  0.00    -0.155 NA
HETATM   14  C   UNL     1      45.060 -31.542  -3.145  1.00  0.00     0.153 C 
HETATM   15  C   UNL     1      43.737 -30.283  -0.196  1.00  0.00     0.151 A 
HETATM   16  C   UNL     1      45.699 -30.674  -4.225  1.00  0.00     0.024 C 
HETATM   17  C   UNL     1      44.893 -29.388  -4.443  1.00  0.00     0.029 C 
BRANCH  15  18
HETATM   18  C   UNL     1      43.145 -30.408   1.169  1.00  0.00     0.051 C 
HETATM   19  C   UNL     1      42.256 -29.208   1.498  1.00  0.00     0.018 C 
HETATM   20  C   UNL     1      44.228 -30.581   2.234  1.00  0.00     0.018 C 
ENDBRANCH  15  18
ENDBRANCH   7   9
ENDBRANCH   1   7
BRANCH   3  21
HETATM   21  N   UNL     1      46.677 -27.864   1.754  1.00  0.00    -0.271 NA
HETATM   22  H   UNL     1      47.284 -28.260   2.459  1.00  0.00     0.127 HD
HETATM   23  H   UNL     1      46.537 -26.863   1.784  1.00  0.00     0.127 HD
ENDBRANCH   3  21
BRANCH   5  24
HETATM   24  N   UNL     1      49.813 -30.122  -0.916  1.00  0.00    -0.227 N 
HETATM   25  N   UNL     1      50.591 -30.095  -2.035  1.00  0.00    -0.179 NA
HETATM   26  C   UNL     1      51.602 -30.920  -1.755  1.00  0.00     0.141 A 
HETATM   27  C   UNL     1      51.503 -31.483  -0.474  1.00  0.00     0.040 A 
HETATM   28  C   UNL     1      50.347 -30.956   0.045  1.00  0.00     0.122 A 
ENDBRANCH   5  24
TORSDOF 5
ENDMDL
