MODEL 1
REMARK VINA RESULT:     -10.3      0.000      0.000
REMARK  8 active torsions:
REMARK  status: ('A' for Active; 'I' for Inactive)
REMARK    1  A    between atoms: C_8  and  N_9 
REMARK    2  A    between atoms: N_9  and  C_10 
REMARK    3  A    between atoms: N_14  and  C_15 
REMARK    4  A    between atoms: C_15  and  C_16 
REMARK    5  A    between atoms: C_28  and  N_29 
REMARK       I    between atoms: N_29  and  C_30 
REMARK    6  A    between atoms: C_30  and  O_31 
REMARK    7  A    between atoms: O_31  and  C_32 
REMARK    8  A    between atoms: C_32  and  C_33 
ROOT
HETATM    1  C   UNL     1      40.552 -10.363   0.450  1.00  0.00     0.053 C 
HETATM    2  C   UNL     1      40.511 -10.933  -0.925  1.00  0.00    -0.002 A 
HETATM    3  C   UNL     1      40.122 -12.221  -1.296  1.00  0.00     0.106 A 
HETATM    4  N   UNL     1      40.226 -12.322  -2.652  1.00  0.00    -0.238 N 
HETATM    5  N   UNL     1      39.953 -13.416  -3.373  1.00  0.00    -0.161 NA
HETATM    6  C   UNL     1      39.538 -14.415  -2.662  1.00  0.00     0.257 A 
HETATM    7  N   UNL     1      39.352 -14.434  -1.307  1.00  0.00    -0.226 NA
HETATM    8  C   UNL     1      39.615 -13.377  -0.593  1.00  0.00     0.138 A 
HETATM    9  C   UNL     1      40.624 -11.125  -3.175  1.00  0.00     0.149 A 
HETATM   10  C   UNL     1      40.794 -10.233  -2.144  1.00  0.00     0.062 A 
ENDROOT
BRANCH   8  11
HETATM   11  N   UNL     1      39.404 -13.383   0.778  1.00  0.00    -0.242 NA
HETATM   12  H   UNL     1      38.429 -13.401   1.036  1.00  0.00     0.135 HD
BRANCH  11  13
HETATM   13  C   UNL     1      40.139 -14.264   1.622  1.00  0.00     0.015 A 
HETATM   14  C   UNL     1      39.753 -14.525   2.946  1.00  0.00     0.039 A 
HETATM   15  C   UNL     1      40.585 -15.297   3.779  1.00  0.00     0.013 A 
HETATM   16  C   UNL     1      41.774 -15.808   3.270  1.00  0.00     0.065 A 
HETATM   17  C   UNL     1      40.554 -15.727   5.121  1.00  0.00     0.152 A 
HETATM   18  N   UNL     1      42.397 -16.403   4.345  1.00  0.00    -0.265 N 
HETATM   19  C   UNL     1      42.151 -15.635   1.934  1.00  0.00     0.034 A 
HETATM   20  N   UNL     1      41.651 -16.402   5.473  1.00  0.00    -0.183 NA
HETATM   21  C   UNL     1      41.307 -14.863   1.125  1.00  0.00     0.026 A 
BRANCH  18  22
HETATM   22  C   UNL     1      43.764 -16.916   4.396  1.00  0.00     0.190 C 
BRANCH  22  23
HETATM   23  C   UNL     1      43.842 -18.396   4.080  1.00  0.00    -0.035 A 
HETATM   24  C   UNL     1      43.696 -18.876   2.767  1.00  0.00     0.051 A 
HETATM   25  C   UNL     1      43.748 -20.243   2.512  1.00  0.00     0.117 A 
HETATM   26  F   UNL     1      43.568 -20.689   1.262  1.00  0.00    -0.206 F 
HETATM   27  C   UNL     1      43.977 -21.153   3.535  1.00  0.00     0.042 A 
HETATM   28  C   UNL     1      44.160 -20.690   4.836  1.00  0.00     0.004 A 
HETATM   29  C   UNL     1      44.096 -19.319   5.108  1.00  0.00     0.009 A 
ENDBRANCH  22  23
ENDBRANCH  18  22
ENDBRANCH  11  13
ENDBRANCH   8  11
BRANCH  10  30
HETATM   30  N   UNL     1      41.150  -8.900  -2.257  1.00  0.00    -0.301 N 
HETATM   31  C   UNL     1      42.326  -8.358  -1.832  1.00  0.00     0.365 C 
HETATM   32  O   UNL     1      43.243  -8.901  -1.230  1.00  0.00    -0.238 OA
HETATM   33  H   UNL     1      40.574  -8.303  -2.835  1.00  0.00     0.171 HD
BRANCH  31  34
HETATM   34  O   UNL     1      42.394  -7.061  -2.230  1.00  0.00    -0.302 OA
BRANCH  34  35
HETATM   35  C   UNL     1      42.882  -6.798  -3.567  1.00  0.00     0.215 C 
BRANCH  35  36
HETATM   36  C   UNL     1      42.099  -5.720  -4.355  1.00  0.00     0.233 C 
HETATM   37  N   UNL     1      42.891  -5.206  -5.550  1.00  0.00    -0.065 N 
HETATM   38  H   UNL     1      42.499  -4.319  -5.886  1.00  0.00     0.277 HD
HETATM   39  H   UNL     1      43.858  -4.978  -5.230  1.00  0.00     0.277 HD
HETATM   40  C   UNL     1      43.024  -6.181  -6.687  1.00  0.00     0.259 C 
HETATM   41  C   UNL     1      41.653  -6.759  -7.042  1.00  0.00     0.195 C 
HETATM   42  O   UNL     1      41.003  -7.294  -5.881  1.00  0.00    -0.387 OA
HETATM   43  C   UNL     1      40.770  -6.281  -4.893  1.00  0.00     0.202 C 
ENDBRANCH  35  36
ENDBRANCH  34  35
ENDBRANCH  31  34
ENDBRANCH  10  30
TORSDOF 8
ENDMDL
MODEL 2
REMARK VINA RESULT:     -10.1      1.889      2.436
REMARK  8 active torsions:
REMARK  status: ('A' for Active; 'I' for Inactive)
REMARK    1  A    between atoms: C_8  and  N_9 
REMARK    2  A    between atoms: N_9  and  C_10 
REMARK    3  A    between atoms: N_14  and  C_15 
REMARK    4  A    between atoms: C_15  and  C_16 
REMARK    5  A    between atoms: C_28  and  N_29 
REMARK       I    between atoms: N_29  and  C_30 
REMARK    6  A    between atoms: C_30  and  O_31 
REMARK    7  A    between atoms: O_31  and  C_32 
REMARK    8  A    between atoms: C_32  and  C_33 
ROOT
HETATM    1  C   UNL     1      40.362 -10.451   0.630  1.00  0.00     0.053 C 
HETATM    2  C   UNL     1      40.405 -10.957  -0.770  1.00  0.00    -0.002 A 
HETATM    3  C   UNL     1      40.069 -12.235  -1.218  1.00  0.00     0.106 A 
HETATM    4  N   UNL     1      40.245 -12.271  -2.571  1.00  0.00    -0.238 N 
HETATM    5  N   UNL     1      40.036 -13.336  -3.354  1.00  0.00    -0.161 NA
HETATM    6  C   UNL     1      39.611 -14.376  -2.711  1.00  0.00     0.257 A 
HETATM    7  N   UNL     1      39.356 -14.462  -1.370  1.00  0.00    -0.226 NA
HETATM    8  C   UNL     1      39.556 -13.434  -0.596  1.00  0.00     0.138 A 
HETATM    9  C   UNL     1      40.638 -11.043  -3.018  1.00  0.00     0.149 A 
HETATM   10  C   UNL     1      40.733 -10.196  -1.941  1.00  0.00     0.062 A 
ENDROOT
BRANCH   8  11
HETATM   11  N   UNL     1      39.275 -13.508   0.760  1.00  0.00    -0.242 NA
HETATM   12  H   UNL     1      38.296 -13.642   0.963  1.00  0.00     0.135 HD
BRANCH  11  13
HETATM   13  C   UNL     1      40.059 -14.330   1.620  1.00  0.00     0.015 A 
HETATM   14  C   UNL     1      39.789 -14.446   2.993  1.00  0.00     0.039 A 
HETATM   15  C   UNL     1      40.671 -15.164   3.821  1.00  0.00     0.013 A 
HETATM   16  C   UNL     1      41.793 -15.768   3.263  1.00  0.00     0.065 A 
HETATM   17  C   UNL     1      40.751 -15.461   5.198  1.00  0.00     0.152 A 
HETATM   18  N   UNL     1      42.495 -16.278   4.333  1.00  0.00    -0.265 N 
HETATM   19  C   UNL     1      42.051 -15.740   1.888  1.00  0.00     0.034 A 
HETATM   20  N   UNL     1      41.855 -16.139   5.517  1.00  0.00    -0.183 NA
HETATM   21  C   UNL     1      41.158 -15.019   1.084  1.00  0.00     0.026 A 
BRANCH  18  22
HETATM   22  C   UNL     1      43.845 -16.835   4.314  1.00  0.00     0.190 C 
BRANCH  22  23
HETATM   23  C   UNL     1      43.853 -18.333   4.088  1.00  0.00    -0.035 A 
HETATM   24  C   UNL     1      43.742 -18.882   2.798  1.00  0.00     0.051 A 
HETATM   25  C   UNL     1      43.728 -20.263   2.625  1.00  0.00     0.117 A 
HETATM   26  F   UNL     1      43.583 -20.772   1.395  1.00  0.00    -0.206 F 
HETATM   27  C   UNL     1      43.856 -21.121   3.709  1.00  0.00     0.042 A 
HETATM   28  C   UNL     1      44.003 -20.592   4.989  1.00  0.00     0.004 A 
HETATM   29  C   UNL     1      44.005 -19.206   5.178  1.00  0.00     0.009 A 
ENDBRANCH  22  23
ENDBRANCH  18  22
ENDBRANCH  11  13
ENDBRANCH   8  11
BRANCH  10  30
HETATM   30  N   UNL     1      41.061  -8.851  -1.975  1.00  0.00    -0.301 N 
HETATM   31  C   UNL     1      42.271  -8.325  -1.635  1.00  0.00     0.365 C 
HETATM   32  O   UNL     1      43.255  -8.899  -1.186  1.00  0.00    -0.238 OA
HETATM   33  H   UNL     1      40.419  -8.218  -2.431  1.00  0.00     0.171 HD
BRANCH  31  34
HETATM   34  O   UNL     1      42.282  -6.997  -1.922  1.00  0.00    -0.302 OA
BRANCH  34  35
HETATM   35  C   UNL     1      43.439  -6.234  -1.506  1.00  0.00     0.215 C 
BRANCH  35  36
HETATM   36  C   UNL     1      43.210  -5.297  -0.294  1.00  0.00     0.233 C 
HETATM   37  N   UNL     1      44.523  -4.760   0.261  1.00  0.00    -0.065 N 
HETATM   38  H   UNL     1      44.386  -4.384   1.207  1.00  0.00     0.277 HD
HETATM   39  H   UNL     1      45.183  -5.559   0.373  1.00  0.00     0.277 HD
HETATM   40  C   UNL     1      45.208  -3.743  -0.609  1.00  0.00     0.259 C 
HETATM   41  C   UNL     1      44.213  -2.661  -1.031  1.00  0.00     0.195 C 
HETATM   42  O   UNL     1      43.039  -3.240  -1.616  1.00  0.00    -0.387 OA
HETATM   43  C   UNL     1      42.347  -4.083  -0.685  1.00  0.00     0.202 C 
ENDBRANCH  35  36
ENDBRANCH  34  35
ENDBRANCH  31  34
ENDBRANCH  10  30
TORSDOF 8
ENDMDL
MODEL 3
REMARK VINA RESULT:      -9.8      3.560      5.740
REMARK  8 active torsions:
REMARK  status: ('A' for Active; 'I' for Inactive)
REMARK    1  A    between atoms: C_8  and  N_9 
REMARK    2  A    between atoms: N_9  and  C_10 
REMARK    3  A    between atoms: N_14  and  C_15 
REMARK    4  A    between atoms: C_15  and  C_16 
REMARK    5  A    between atoms: C_28  and  N_29 
REMARK       I    between atoms: N_29  and  C_30 
REMARK    6  A    between atoms: C_30  and  O_31 
REMARK    7  A    between atoms: O_31  and  C_32 
REMARK    8  A    between atoms: C_32  and  C_33 
ROOT
HETATM    1  C   UNL     1      39.250 -12.704   2.742  1.00  0.00     0.053 C 
HETATM    2  C   UNL     1      39.381 -11.360   3.368  1.00  0.00    -0.002 A 
HETATM    3  C   UNL     1      39.326 -11.051   4.728  1.00  0.00     0.106 A 
HETATM    4  N   UNL     1      39.499  -9.705   4.866  1.00  0.00    -0.238 N 
HETATM    5  N   UNL     1      39.493  -9.035   6.024  1.00  0.00    -0.161 NA
HETATM    6  C   UNL     1      39.328  -9.793   7.060  1.00  0.00     0.257 A 
HETATM    7  N   UNL     1      39.184 -11.153   7.065  1.00  0.00    -0.226 NA
HETATM    8  C   UNL     1      39.187 -11.817   5.945  1.00  0.00     0.138 A 
HETATM    9  C   UNL     1      39.712  -9.140   3.641  1.00  0.00     0.149 A 
HETATM   10  C   UNL     1      39.664 -10.129   2.689  1.00  0.00     0.062 A 
ENDROOT
BRANCH   8  11
HETATM   11  N   UNL     1      39.066 -13.199   5.946  1.00  0.00    -0.242 NA
HETATM   12  H   UNL     1      38.564 -13.561   5.149  1.00  0.00     0.135 HD
BRANCH  11  13
HETATM   13  C   UNL     1      40.192 -14.027   6.218  1.00  0.00     0.015 A 
HETATM   14  C   UNL     1      41.505 -13.531   6.206  1.00  0.00     0.039 A 
HETATM   15  C   UNL     1      42.590 -14.417   6.350  1.00  0.00     0.013 A 
HETATM   16  C   UNL     1      42.344 -15.774   6.523  1.00  0.00     0.065 A 
HETATM   17  C   UNL     1      43.995 -14.302   6.355  1.00  0.00     0.152 A 
HETATM   18  N   UNL     1      43.588 -16.367   6.516  1.00  0.00    -0.265 N 
HETATM   19  C   UNL     1      41.048 -16.293   6.620  1.00  0.00     0.034 A 
HETATM   20  N   UNL     1      44.609 -15.483   6.457  1.00  0.00    -0.183 NA
HETATM   21  C   UNL     1      39.985 -15.392   6.473  1.00  0.00     0.026 A 
BRANCH  18  22
HETATM   22  C   UNL     1      43.879 -17.797   6.463  1.00  0.00     0.190 C 
BRANCH  22  23
HETATM   23  C   UNL     1      43.781 -18.360   5.060  1.00  0.00    -0.035 A 
HETATM   24  C   UNL     1      43.500 -17.536   3.956  1.00  0.00     0.051 A 
HETATM   25  C   UNL     1      43.392 -18.086   2.682  1.00  0.00     0.117 A 
HETATM   26  F   UNL     1      43.085 -17.296   1.645  1.00  0.00    -0.206 F 
HETATM   27  C   UNL     1      43.589 -19.445   2.470  1.00  0.00     0.042 A 
HETATM   28  C   UNL     1      43.904 -20.268   3.549  1.00  0.00     0.004 A 
HETATM   29  C   UNL     1      44.002 -19.729   4.836  1.00  0.00     0.009 A 
ENDBRANCH  22  23
ENDBRANCH  18  22
ENDBRANCH  11  13
ENDBRANCH   8  11
BRANCH  10  30
HETATM   30  N   UNL     1      39.874  -9.976   1.330  1.00  0.00    -0.301 N 
HETATM   31  C   UNL     1      41.028 -10.280   0.670  1.00  0.00     0.365 C 
HETATM   32  O   UNL     1      42.092 -10.670   1.133  1.00  0.00    -0.238 OA
HETATM   33  H   UNL     1      39.075  -9.774   0.746  1.00  0.00     0.171 HD
BRANCH  31  34
HETATM   34  O   UNL     1      40.833 -10.139  -0.667  1.00  0.00    -0.302 OA
BRANCH  34  35
HETATM   35  C   UNL     1      39.790 -10.937  -1.276  1.00  0.00     0.215 C 
BRANCH  35  36
HETATM   36  C   UNL     1      39.869 -12.457  -0.988  1.00  0.00     0.233 C 
HETATM   37  N   UNL     1      38.487 -13.069  -0.801  1.00  0.00    -0.065 N 
HETATM   38  H   UNL     1      38.559 -13.985  -0.343  1.00  0.00     0.277 HD
HETATM   39  H   UNL     1      37.949 -12.469  -0.139  1.00  0.00     0.277 HD
HETATM   40  C   UNL     1      37.668 -13.179  -2.058  1.00  0.00     0.259 C 
HETATM   41  C   UNL     1      38.499 -13.826  -3.167  1.00  0.00     0.195 C 
HETATM   42  O   UNL     1      39.750 -13.145  -3.338  1.00  0.00    -0.387 OA
HETATM   43  C   UNL     1      40.549 -13.206  -2.149  1.00  0.00     0.202 C 
ENDBRANCH  35  36
ENDBRANCH  34  35
ENDBRANCH  31  34
ENDBRANCH  10  30
TORSDOF 8
ENDMDL
MODEL 4
REMARK VINA RESULT:      -9.6      7.925     11.364
REMARK  8 active torsions:
REMARK  status: ('A' for Active; 'I' for Inactive)
REMARK    1  A    between atoms: C_8  and  N_9 
REMARK    2  A    between atoms: N_9  and  C_10 
REMARK    3  A    between atoms: N_14  and  C_15 
REMARK    4  A    between atoms: C_15  and  C_16 
REMARK    5  A    between atoms: C_28  and  N_29 
REMARK       I    between atoms: N_29  and  C_30 
REMARK    6  A    between atoms: C_30  and  O_31 
REMARK    7  A    between atoms: O_31  and  C_32 
REMARK    8  A    between atoms: C_32  and  C_33 
ROOT
HETATM    1  C   UNL     1      40.531  -9.144   7.974  1.00  0.00     0.053 C 
HETATM    2  C   UNL     1      41.708  -9.417   8.844  1.00  0.00    -0.002 A 
HETATM    3  C   UNL     1      42.952  -9.912   8.453  1.00  0.00     0.106 A 
HETATM    4  N   UNL     1      43.741 -10.003   9.563  1.00  0.00    -0.238 N 
HETATM    5  N   UNL     1      45.002 -10.452   9.585  1.00  0.00    -0.161 NA
HETATM    6  C   UNL     1      45.453 -10.789   8.420  1.00  0.00     0.257 A 
HETATM    7  N   UNL     1      44.784 -10.710   7.230  1.00  0.00    -0.226 NA
HETATM    8  C   UNL     1      43.557 -10.276   7.193  1.00  0.00     0.138 A 
HETATM    9  C   UNL     1      43.062  -9.537  10.651  1.00  0.00     0.149 A 
HETATM   10  C   UNL     1      41.807  -9.147  10.249  1.00  0.00     0.062 A 
ENDROOT
BRANCH   8  11
HETATM   11  N   UNL     1      42.883 -10.170   5.985  1.00  0.00    -0.242 NA
HETATM   12  H   UNL     1      43.239  -9.440   5.386  1.00  0.00     0.135 HD
BRANCH  11  13
HETATM   13  C   UNL     1      42.599 -11.330   5.207  1.00  0.00     0.015 A 
HETATM   14  C   UNL     1      41.620 -12.262   5.587  1.00  0.00     0.039 A 
HETATM   15  C   UNL     1      41.471 -13.456   4.856  1.00  0.00     0.013 A 
HETATM   16  C   UNL     1      42.285 -13.687   3.752  1.00  0.00     0.065 A 
HETATM   17  C   UNL     1      40.655 -14.602   4.947  1.00  0.00     0.152 A 
HETATM   18  N   UNL     1      41.974 -14.965   3.340  1.00  0.00    -0.265 N 
HETATM   19  C   UNL     1      43.215 -12.746   3.299  1.00  0.00     0.034 A 
HETATM   20  N   UNL     1      40.953 -15.523   4.028  1.00  0.00    -0.183 NA
HETATM   21  C   UNL     1      43.346 -11.566   4.043  1.00  0.00     0.026 A 
BRANCH  18  22
HETATM   22  C   UNL     1      42.684 -15.764   2.344  1.00  0.00     0.190 C 
BRANCH  22  23
HETATM   23  C   UNL     1      43.200 -17.072   2.908  1.00  0.00    -0.035 A 
HETATM   24  C   UNL     1      43.099 -18.274   2.186  1.00  0.00     0.051 A 
HETATM   25  C   UNL     1      43.561 -19.464   2.741  1.00  0.00     0.117 A 
HETATM   26  F   UNL     1      43.423 -20.608   2.058  1.00  0.00    -0.206 F 
HETATM   27  C   UNL     1      44.154 -19.485   3.996  1.00  0.00     0.042 A 
HETATM   28  C   UNL     1      44.294 -18.297   4.709  1.00  0.00     0.004 A 
HETATM   29  C   UNL     1      43.822 -17.096   4.167  1.00  0.00     0.009 A 
ENDBRANCH  22  23
ENDBRANCH  18  22
ENDBRANCH  11  13
ENDBRANCH   8  11
BRANCH  10  30
HETATM   30  N   UNL     1      40.827  -8.578  11.043  1.00  0.00    -0.301 N 
HETATM   31  C   UNL     1      39.860  -9.264  11.717  1.00  0.00     0.365 C 
HETATM   32  O   UNL     1      39.629 -10.466  11.706  1.00  0.00    -0.238 OA
HETATM   33  H   UNL     1      40.915  -7.599  11.277  1.00  0.00     0.171 HD
BRANCH  31  34
HETATM   34  O   UNL     1      39.161  -8.403  12.502  1.00  0.00    -0.302 OA
BRANCH  34  35
HETATM   35  C   UNL     1      39.765  -7.119  12.784  1.00  0.00     0.215 C 
BRANCH  35  36
HETATM   36  C   UNL     1      40.202  -6.903  14.255  1.00  0.00     0.233 C 
HETATM   37  N   UNL     1      40.887  -8.136  14.828  1.00  0.00    -0.065 N 
HETATM   38  H   UNL     1      40.913  -8.088  15.853  1.00  0.00     0.277 HD
HETATM   39  H   UNL     1      40.301  -8.970  14.605  1.00  0.00     0.277 HD
HETATM   40  C   UNL     1      42.262  -8.406  14.284  1.00  0.00     0.259 C 
HETATM   41  C   UNL     1      43.107  -7.132  14.343  1.00  0.00     0.195 C 
HETATM   42  O   UNL     1      42.429  -6.036  13.713  1.00  0.00    -0.387 OA
HETATM   43  C   UNL     1      41.194  -5.730  14.373  1.00  0.00     0.202 C 
ENDBRANCH  35  36
ENDBRANCH  34  35
ENDBRANCH  31  34
ENDBRANCH  10  30
TORSDOF 8
ENDMDL
MODEL 5
REMARK VINA RESULT:      -9.4      8.404     11.803
REMARK  8 active torsions:
REMARK  status: ('A' for Active; 'I' for Inactive)
REMARK    1  A    between atoms: C_8  and  N_9 
REMARK    2  A    between atoms: N_9  and  C_10 
REMARK    3  A    between atoms: N_14  and  C_15 
REMARK    4  A    between atoms: C_15  and  C_16 
REMARK    5  A    between atoms: C_28  and  N_29 
REMARK       I    between atoms: N_29  and  C_30 
REMARK    6  A    between atoms: C_30  and  O_31 
REMARK    7  A    between atoms: O_31  and  C_32 
REMARK    8  A    between atoms: C_32  and  C_33 
ROOT
HETATM    1  C   UNL     1      41.103  -9.245   8.837  1.00  0.00     0.053 C 
HETATM    2  C   UNL     1      42.520  -9.486   9.229  1.00  0.00    -0.002 A 
HETATM    3  C   UNL     1      43.525 -10.065   8.453  1.00  0.00     0.106 A 
HETATM    4  N   UNL     1      44.672 -10.087   9.192  1.00  0.00    -0.238 N 
HETATM    5  N   UNL     1      45.848 -10.582   8.788  1.00  0.00    -0.161 NA
HETATM    6  C   UNL     1      45.828 -11.041   7.578  1.00  0.00     0.257 A 
HETATM    7  N   UNL     1      44.763 -11.043   6.720  1.00  0.00    -0.226 NA
HETATM    8  C   UNL     1      43.612 -10.565   7.101  1.00  0.00     0.138 A 
HETATM    9  C   UNL     1      44.452  -9.496  10.403  1.00  0.00     0.149 A 
HETATM   10  C   UNL     1      43.140  -9.095  10.461  1.00  0.00     0.062 A 
ENDROOT
BRANCH   8  11
HETATM   11  N   UNL     1      42.536 -10.542   6.227  1.00  0.00    -0.242 NA
HETATM   12  H   UNL     1      42.532  -9.743   5.611  1.00  0.00     0.135 HD
BRANCH  11  13
HETATM   13  C   UNL     1      42.166 -11.709   5.498  1.00  0.00     0.015 A 
HETATM   14  C   UNL     1      41.396 -12.735   6.071  1.00  0.00     0.039 A 
HETATM   15  C   UNL     1      41.171 -13.924   5.352  1.00  0.00     0.013 A 
HETATM   16  C   UNL     1      41.700 -14.060   4.073  1.00  0.00     0.065 A 
HETATM   17  C   UNL     1      40.505 -15.142   5.597  1.00  0.00     0.152 A 
HETATM   18  N   UNL     1      41.406 -15.353   3.700  1.00  0.00    -0.265 N 
HETATM   19  C   UNL     1      42.403 -13.028   3.442  1.00  0.00     0.034 A 
HETATM   20  N   UNL     1      40.641 -16.016   4.596  1.00  0.00    -0.183 NA
HETATM   21  C   UNL     1      42.615 -11.854   4.177  1.00  0.00     0.026 A 
BRANCH  18  22
HETATM   22  C   UNL     1      41.909 -16.065   2.528  1.00  0.00     0.190 C 
BRANCH  22  23
HETATM   23  C   UNL     1      42.750 -17.271   2.897  1.00  0.00    -0.035 A 
HETATM   24  C   UNL     1      42.711 -18.454   2.139  1.00  0.00     0.051 A 
HETATM   25  C   UNL     1      43.477 -19.552   2.517  1.00  0.00     0.117 A 
HETATM   26  F   UNL     1      43.401 -20.686   1.807  1.00  0.00    -0.206 F 
HETATM   27  C   UNL     1      44.313 -19.495   3.624  1.00  0.00     0.042 A 
HETATM   28  C   UNL     1      44.390 -18.318   4.365  1.00  0.00     0.004 A 
HETATM   29  C   UNL     1      43.615 -17.210   4.002  1.00  0.00     0.009 A 
ENDBRANCH  22  23
ENDBRANCH  18  22
ENDBRANCH  11  13
ENDBRANCH   8  11
BRANCH  10  30
HETATM   30  N   UNL     1      42.530  -8.417  11.503  1.00  0.00    -0.301 N 
HETATM   31  C   UNL     1      42.348  -7.067  11.567  1.00  0.00     0.365 C 
HETATM   32  O   UNL     1      42.728  -6.208  10.784  1.00  0.00    -0.238 OA
HETATM   33  H   UNL     1      42.039  -8.960  12.199  1.00  0.00     0.171 HD
BRANCH  31  34
HETATM   34  O   UNL     1      41.593  -6.766  12.656  1.00  0.00    -0.302 OA
BRANCH  34  35
HETATM   35  C   UNL     1      42.279  -6.249  13.820  1.00  0.00     0.215 C 
BRANCH  35  36
HETATM   36  C   UNL     1      42.345  -7.213  15.031  1.00  0.00     0.233 C 
HETATM   37  N   UNL     1      42.689  -6.479  16.321  1.00  0.00    -0.065 N 
HETATM   38  H   UNL     1      43.002  -7.143  17.038  1.00  0.00     0.277 HD
HETATM   39  H   UNL     1      43.508  -5.860  16.138  1.00  0.00     0.277 HD
HETATM   40  C   UNL     1      41.591  -5.606  16.862  1.00  0.00     0.259 C 
HETATM   41  C   UNL     1      40.278  -6.388  16.914  1.00  0.00     0.195 C 
HETATM   42  O   UNL     1      39.983  -6.983  15.642  1.00  0.00    -0.387 OA
HETATM   43  C   UNL     1      40.995  -7.920  15.251  1.00  0.00     0.202 C 
ENDBRANCH  35  36
ENDBRANCH  34  35
ENDBRANCH  31  34
ENDBRANCH  10  30
TORSDOF 8
ENDMDL
MODEL 6
REMARK VINA RESULT:      -9.2      7.230     10.687
REMARK  8 active torsions:
REMARK  status: ('A' for Active; 'I' for Inactive)
REMARK    1  A    between atoms: C_8  and  N_9 
REMARK    2  A    between atoms: N_9  and  C_10 
REMARK    3  A    between atoms: N_14  and  C_15 
REMARK    4  A    between atoms: C_15  and  C_16 
REMARK    5  A    between atoms: C_28  and  N_29 
REMARK       I    between atoms: N_29  and  C_30 
REMARK    6  A    between atoms: C_30  and  O_31 
REMARK    7  A    between atoms: O_31  and  C_32 
REMARK    8  A    between atoms: C_32  and  C_33 
ROOT
HETATM    1  C   UNL     1      41.223  -9.270   7.208  1.00  0.00     0.053 C 
HETATM    2  C   UNL     1      42.480  -9.599   7.935  1.00  0.00    -0.002 A 
HETATM    3  C   UNL     1      43.614 -10.229   7.421  1.00  0.00     0.106 A 
HETATM    4  N   UNL     1      44.536 -10.328   8.422  1.00  0.00    -0.238 N 
HETATM    5  N   UNL     1      45.746 -10.889   8.311  1.00  0.00    -0.161 NA
HETATM    6  C   UNL     1      46.006 -11.332   7.123  1.00  0.00     0.257 A 
HETATM    7  N   UNL     1      45.191 -11.261   6.027  1.00  0.00    -0.226 NA
HETATM    8  C   UNL     1      44.010 -10.719   6.120  1.00  0.00     0.138 A 
HETATM    9  C   UNL     1      44.052  -9.740   9.554  1.00  0.00     0.149 A 
HETATM   10  C   UNL     1      42.792  -9.260   9.293  1.00  0.00     0.062 A 
ENDROOT
BRANCH   8  11
HETATM   11  N   UNL     1      43.190 -10.621   5.006  1.00  0.00    -0.242 NA
HETATM   12  H   UNL     1      43.501  -9.934   4.335  1.00  0.00     0.135 HD
BRANCH  11  13
HETATM   13  C   UNL     1      42.749 -11.792   4.324  1.00  0.00     0.015 A 
HETATM   14  C   UNL     1      41.579 -12.474   4.691  1.00  0.00     0.039 A 
HETATM   15  C   UNL     1      41.259 -13.697   4.072  1.00  0.00     0.013 A 
HETATM   16  C   UNL     1      42.100 -14.205   3.088  1.00  0.00     0.065 A 
HETATM   17  C   UNL     1      40.229 -14.653   4.193  1.00  0.00     0.152 A 
HETATM   18  N   UNL     1      41.580 -15.442   2.775  1.00  0.00    -0.265 N 
HETATM   19  C   UNL     1      43.231 -13.513   2.642  1.00  0.00     0.034 A 
HETATM   20  N   UNL     1      40.416 -15.716   3.406  1.00  0.00    -0.183 NA
HETATM   21  C   UNL     1      43.529 -12.298   3.273  1.00  0.00     0.026 A 
BRANCH  18  22
HETATM   22  C   UNL     1      42.199 -16.471   1.944  1.00  0.00     0.190 C 
BRANCH  22  23
HETATM   23  C   UNL     1      42.896 -17.540   2.763  1.00  0.00    -0.035 A 
HETATM   24  C   UNL     1      43.240 -17.325   4.109  1.00  0.00     0.051 A 
HETATM   25  C   UNL     1      43.901 -18.316   4.828  1.00  0.00     0.117 A 
HETATM   26  F   UNL     1      44.258 -18.085   6.098  1.00  0.00    -0.206 F 
HETATM   27  C   UNL     1      44.204 -19.541   4.246  1.00  0.00     0.042 A 
HETATM   28  C   UNL     1      43.837 -19.781   2.924  1.00  0.00     0.004 A 
HETATM   29  C   UNL     1      43.184 -18.788   2.187  1.00  0.00     0.009 A 
ENDBRANCH  22  23
ENDBRANCH  18  22
ENDBRANCH  11  13
ENDBRANCH   8  11
BRANCH  10  30
HETATM   30  N   UNL     1      41.978  -8.559  10.166  1.00  0.00    -0.301 N 
HETATM   31  C   UNL     1      41.976  -7.205  10.328  1.00  0.00     0.365 C 
HETATM   32  O   UNL     1      42.706  -6.373   9.806  1.00  0.00    -0.238 OA
HETATM   33  H   UNL     1      41.218  -9.055  10.608  1.00  0.00     0.171 HD
BRANCH  31  34
HETATM   34  O   UNL     1      40.959  -6.852  11.157  1.00  0.00    -0.302 OA
BRANCH  34  35
HETATM   35  C   UNL     1      39.720  -7.591  11.044  1.00  0.00     0.215 C 
BRANCH  35  36
HETATM   36  C   UNL     1      38.998  -7.877  12.383  1.00  0.00     0.233 C 
HETATM   37  N   UNL     1      38.957  -9.367  12.697  1.00  0.00    -0.065 N 
HETATM   38  H   UNL     1      38.250  -9.564  13.415  1.00  0.00     0.277 HD
HETATM   39  H   UNL     1      38.633  -9.873  11.844  1.00  0.00     0.277 HD
HETATM   40  C   UNL     1      40.279  -9.967  13.088  1.00  0.00     0.259 C 
HETATM   41  C   UNL     1      40.939  -9.114  14.172  1.00  0.00     0.195 C 
HETATM   42  O   UNL     1      41.013  -7.739  13.771  1.00  0.00    -0.387 OA
HETATM   43  C   UNL     1      39.710  -7.181  13.558  1.00  0.00     0.202 C 
ENDBRANCH  35  36
ENDBRANCH  34  35
ENDBRANCH  31  34
ENDBRANCH  10  30
TORSDOF 8
ENDMDL
MODEL 7
REMARK VINA RESULT:      -9.2      6.166      9.119
REMARK  8 active torsions:
REMARK  status: ('A' for Active; 'I' for Inactive)
REMARK    1  A    between atoms: C_8  and  N_9 
REMARK    2  A    between atoms: N_9  and  C_10 
REMARK    3  A    between atoms: N_14  and  C_15 
REMARK    4  A    between atoms: C_15  and  C_16 
REMARK    5  A    between atoms: C_28  and  N_29 
REMARK       I    between atoms: N_29  and  C_30 
REMARK    6  A    between atoms: C_30  and  O_31 
REMARK    7  A    between atoms: O_31  and  C_32 
REMARK    8  A    between atoms: C_32  and  C_33 
ROOT
HETATM    1  C   UNL     1      43.435 -13.906   2.593  1.00  0.00     0.053 C 
HETATM    2  C   UNL     1      42.387 -14.681   3.314  1.00  0.00    -0.002 A 
HETATM    3  C   UNL     1      42.289 -14.893   4.690  1.00  0.00     0.106 A 
HETATM    4  N   UNL     1      41.177 -15.649   4.925  1.00  0.00    -0.238 N 
HETATM    5  N   UNL     1      40.762 -16.068   6.126  1.00  0.00    -0.161 NA
HETATM    6  C   UNL     1      41.512 -15.667   7.102  1.00  0.00     0.257 A 
HETATM    7  N   UNL     1      42.624 -14.877   7.009  1.00  0.00    -0.226 NA
HETATM    8  C   UNL     1      43.040 -14.463   5.846  1.00  0.00     0.138 A 
HETATM    9  C   UNL     1      40.528 -15.891   3.749  1.00  0.00     0.149 A 
HETATM   10  C   UNL     1      41.231 -15.297   2.730  1.00  0.00     0.062 A 
ENDROOT
BRANCH   8  11
HETATM   11  N   UNL     1      44.154 -13.642   5.749  1.00  0.00    -0.242 NA
HETATM   12  H   UNL     1      44.564 -13.626   4.827  1.00  0.00     0.135 HD
BRANCH  11  13
HETATM   13  C   UNL     1      44.133 -12.323   6.287  1.00  0.00     0.015 A 
HETATM   14  C   UNL     1      45.306 -11.655   6.673  1.00  0.00     0.039 A 
HETATM   15  C   UNL     1      45.221 -10.409   7.321  1.00  0.00     0.013 A 
HETATM   16  C   UNL     1      43.971  -9.844   7.552  1.00  0.00     0.065 A 
HETATM   17  C   UNL     1      46.138  -9.487   7.866  1.00  0.00     0.152 A 
HETATM   18  N   UNL     1      44.223  -8.708   8.291  1.00  0.00    -0.265 N 
HETATM   19  C   UNL     1      42.787 -10.443   7.111  1.00  0.00     0.034 A 
HETATM   20  N   UNL     1      45.540  -8.450   8.456  1.00  0.00    -0.183 NA
HETATM   21  C   UNL     1      42.897 -11.684   6.469  1.00  0.00     0.026 A 
BRANCH  18  22
HETATM   22  C   UNL     1      43.241  -7.861   8.962  1.00  0.00     0.190 C 
BRANCH  22  23
HETATM   23  C   UNL     1      42.682  -8.501  10.217  1.00  0.00    -0.035 A 
HETATM   24  C   UNL     1      41.297  -8.659  10.407  1.00  0.00     0.051 A 
HETATM   25  C   UNL     1      40.813  -9.228  11.581  1.00  0.00     0.117 A 
HETATM   26  F   UNL     1      39.491  -9.337  11.766  1.00  0.00    -0.206 F 
HETATM   27  C   UNL     1      41.680  -9.678  12.568  1.00  0.00     0.042 A 
HETATM   28  C   UNL     1      43.055  -9.561  12.379  1.00  0.00     0.004 A 
HETATM   29  C   UNL     1      43.554  -8.978  11.209  1.00  0.00     0.009 A 
ENDBRANCH  22  23
ENDBRANCH  18  22
ENDBRANCH  11  13
ENDBRANCH   8  11
BRANCH  10  30
HETATM   30  N   UNL     1      40.882 -15.272   1.391  1.00  0.00    -0.301 N 
HETATM   31  C   UNL     1      40.278 -14.230   0.752  1.00  0.00     0.365 C 
HETATM   32  O   UNL     1      39.878 -13.174   1.223  1.00  0.00    -0.238 OA
HETATM   33  H   UNL     1      41.234 -16.009   0.795  1.00  0.00     0.171 HD
BRANCH  31  34
HETATM   34  O   UNL     1      40.214 -14.495  -0.579  1.00  0.00    -0.302 OA
BRANCH  34  35
HETATM   35  C   UNL     1      39.108 -13.925  -1.320  1.00  0.00     0.215 C 
BRANCH  35  36
HETATM   36  C   UNL     1      39.425 -13.539  -2.786  1.00  0.00     0.233 C 
HETATM   37  N   UNL     1      38.411 -12.548  -3.342  1.00  0.00    -0.065 N 
HETATM   38  H   UNL     1      38.461 -12.521  -4.367  1.00  0.00     0.277 HD
HETATM   39  H   UNL     1      37.454 -12.899  -3.120  1.00  0.00     0.277 HD
HETATM   40  C   UNL     1      38.510 -11.158  -2.777  1.00  0.00     0.259 C 
HETATM   41  C   UNL     1      39.960 -10.674  -2.835  1.00  0.00     0.195 C 
HETATM   42  O   UNL     1      40.845 -11.622  -2.222  1.00  0.00    -0.387 OA
HETATM   43  C   UNL     1      40.815 -12.885  -2.899  1.00  0.00     0.202 C 
ENDBRANCH  35  36
ENDBRANCH  34  35
ENDBRANCH  31  34
ENDBRANCH  10  30
TORSDOF 8
ENDMDL
MODEL 8
REMARK VINA RESULT:      -9.1      5.236     10.767
REMARK  8 active torsions:
REMARK  status: ('A' for Active; 'I' for Inactive)
REMARK    1  A    between atoms: C_8  and  N_9 
REMARK    2  A    between atoms: N_9  and  C_10 
REMARK    3  A    between atoms: N_14  and  C_15 
REMARK    4  A    between atoms: C_15  and  C_16 
REMARK    5  A    between atoms: C_28  and  N_29 
REMARK       I    between atoms: N_29  and  C_30 
REMARK    6  A    between atoms: C_30  and  O_31 
REMARK    7  A    between atoms: O_31  and  C_32 
REMARK    8  A    between atoms: C_32  and  C_33 
ROOT
HETATM    1  C   UNL     1      40.936 -13.161   5.489  1.00  0.00     0.053 C 
HETATM    2  C   UNL     1      41.975 -14.227   5.428  1.00  0.00    -0.002 A 
HETATM    3  C   UNL     1      42.057 -15.277   4.514  1.00  0.00     0.106 A 
HETATM    4  N   UNL     1      43.166 -16.015   4.811  1.00  0.00    -0.238 N 
HETATM    5  N   UNL     1      43.566 -17.113   4.160  1.00  0.00    -0.161 NA
HETATM    6  C   UNL     1      42.804 -17.431   3.163  1.00  0.00     0.257 A 
HETATM    7  N   UNL     1      41.693 -16.760   2.736  1.00  0.00    -0.226 NA
HETATM    8  C   UNL     1      41.291 -15.690   3.360  1.00  0.00     0.138 A 
HETATM    9  C   UNL     1      43.830 -15.446   5.859  1.00  0.00     0.149 A 
HETATM   10  C   UNL     1      43.139 -14.329   6.260  1.00  0.00     0.062 A 
ENDROOT
BRANCH   8  11
HETATM   11  N   UNL     1      40.178 -14.991   2.916  1.00  0.00    -0.242 NA
HETATM   12  H   UNL     1      39.820 -14.331   3.589  1.00  0.00     0.135 HD
BRANCH  11  13
HETATM   13  C   UNL     1      40.158 -14.408   1.616  1.00  0.00     0.015 A 
HETATM   14  C   UNL     1      39.609 -15.071   0.507  1.00  0.00     0.039 A 
HETATM   15  C   UNL     1      39.733 -14.509  -0.777  1.00  0.00     0.013 A 
HETATM   16  C   UNL     1      40.383 -13.289  -0.928  1.00  0.00     0.065 A 
HETATM   17  C   UNL     1      39.357 -14.880  -2.084  1.00  0.00     0.152 A 
HETATM   18  N   UNL     1      40.436 -13.077  -2.288  1.00  0.00    -0.265 N 
HETATM   19  C   UNL     1      40.872 -12.562   0.163  1.00  0.00     0.034 A 
HETATM   20  N   UNL     1      39.779 -14.014  -3.008  1.00  0.00    -0.183 NA
HETATM   21  C   UNL     1      40.737 -13.142   1.431  1.00  0.00     0.026 A 
BRANCH  18  22
HETATM   22  C   UNL     1      41.190 -12.040  -2.987  1.00  0.00     0.190 C 
BRANCH  22  23
HETATM   23  C   UNL     1      40.548 -10.672  -2.865  1.00  0.00    -0.035 A 
HETATM   24  C   UNL     1      41.227  -9.592  -2.274  1.00  0.00     0.051 A 
HETATM   25  C   UNL     1      40.602  -8.355  -2.154  1.00  0.00     0.117 A 
HETATM   26  F   UNL     1      41.245  -7.345  -1.554  1.00  0.00    -0.206 F 
HETATM   27  C   UNL     1      39.317  -8.152  -2.640  1.00  0.00     0.042 A 
HETATM   28  C   UNL     1      38.645  -9.203  -3.261  1.00  0.00     0.004 A 
HETATM   29  C   UNL     1      39.258 -10.455  -3.376  1.00  0.00     0.009 A 
ENDBRANCH  22  23
ENDBRANCH  18  22
ENDBRANCH  11  13
ENDBRANCH   8  11
BRANCH  10  30
HETATM   30  N   UNL     1      43.505 -13.448   7.264  1.00  0.00    -0.301 N 
HETATM   31  C   UNL     1      44.280 -12.339   7.096  1.00  0.00     0.365 C 
HETATM   32  O   UNL     1      44.843 -11.946   6.083  1.00  0.00    -0.238 OA
HETATM   33  H   UNL     1      43.044 -13.531   8.159  1.00  0.00     0.171 HD
BRANCH  31  34
HETATM   34  O   UNL     1      44.318 -11.637   8.259  1.00  0.00    -0.302 OA
BRANCH  34  35
HETATM   35  C   UNL     1      43.474 -10.465   8.357  1.00  0.00     0.215 C 
BRANCH  35  36
HETATM   36  C   UNL     1      43.921  -9.415   9.404  1.00  0.00     0.233 C 
HETATM   37  N   UNL     1      42.732  -8.780  10.112  1.00  0.00    -0.065 N 
HETATM   38  H   UNL     1      43.015  -7.912  10.581  1.00  0.00     0.277 HD
HETATM   39  H   UNL     1      42.036  -8.492   9.391  1.00  0.00     0.277 HD
HETATM   40  C   UNL     1      42.016  -9.684  11.077  1.00  0.00     0.259 C 
HETATM   41  C   UNL     1      43.024 -10.352  12.014  1.00  0.00     0.195 C 
HETATM   42  O   UNL     1      44.069 -10.995  11.271  1.00  0.00    -0.387 OA
HETATM   43  C   UNL     1      44.812 -10.054  10.485  1.00  0.00     0.202 C 
ENDBRANCH  35  36
ENDBRANCH  34  35
ENDBRANCH  31  34
ENDBRANCH  10  30
TORSDOF 8
ENDMDL
MODEL 9
REMARK VINA RESULT:      -9.1      3.516      5.714
REMARK  8 active torsions:
REMARK  status: ('A' for Active; 'I' for Inactive)
REMARK    1  A    between atoms: C_8  and  N_9 
REMARK    2  A    between atoms: N_9  and  C_10 
REMARK    3  A    between atoms: N_14  and  C_15 
REMARK    4  A    between atoms: C_15  and  C_16 
REMARK    5  A    between atoms: C_28  and  N_29 
REMARK       I    between atoms: N_29  and  C_30 
REMARK    6  A    between atoms: C_30  and  O_31 
REMARK    7  A    between atoms: O_31  and  C_32 
REMARK    8  A    between atoms: C_32  and  C_33 
ROOT
HETATM    1  C   UNL     1      38.964 -11.522   3.460  1.00  0.00     0.053 C 
HETATM    2  C   UNL     1      39.661 -10.207   3.488  1.00  0.00    -0.002 A 
HETATM    3  C   UNL     1      40.345  -9.635   4.562  1.00  0.00     0.106 A 
HETATM    4  N   UNL     1      40.839  -8.429   4.157  1.00  0.00    -0.238 N 
HETATM    5  N   UNL     1      41.541  -7.582   4.919  1.00  0.00    -0.161 NA
HETATM    6  C   UNL     1      41.751  -8.016   6.120  1.00  0.00     0.257 A 
HETATM    7  N   UNL     1      41.348  -9.216   6.638  1.00  0.00    -0.226 NA
HETATM    8  C   UNL     1      40.664 -10.050   5.908  1.00  0.00     0.138 A 
HETATM    9  C   UNL     1      40.537  -8.225   2.842  1.00  0.00     0.149 A 
HETATM   10  C   UNL     1      39.825  -9.307   2.384  1.00  0.00     0.062 A 
ENDROOT
BRANCH   8  11
HETATM   11  N   UNL     1      40.274 -11.278   6.421  1.00  0.00    -0.242 NA
HETATM   12  H   UNL     1      39.274 -11.380   6.510  1.00  0.00     0.135 HD
BRANCH  11  13
HETATM   13  C   UNL     1      40.835 -12.487   5.918  1.00  0.00     0.015 A 
HETATM   14  C   UNL     1      40.162 -13.716   6.003  1.00  0.00     0.039 A 
HETATM   15  C   UNL     1      40.814 -14.900   5.612  1.00  0.00     0.013 A 
HETATM   16  C   UNL     1      42.116 -14.834   5.127  1.00  0.00     0.065 A 
HETATM   17  C   UNL     1      40.490 -16.272   5.585  1.00  0.00     0.152 A 
HETATM   18  N   UNL     1      42.498 -16.146   4.948  1.00  0.00    -0.265 N 
HETATM   19  C   UNL     1      42.788 -13.620   4.954  1.00  0.00     0.034 A 
HETATM   20  N   UNL     1      41.507 -17.036   5.180  1.00  0.00    -0.183 NA
HETATM   21  C   UNL     1      42.119 -12.455   5.351  1.00  0.00     0.026 A 
BRANCH  18  22
HETATM   22  C   UNL     1      43.840 -16.636   4.645  1.00  0.00     0.190 C 
BRANCH  22  23
HETATM   23  C   UNL     1      43.854 -18.109   4.286  1.00  0.00    -0.035 A 
HETATM   24  C   UNL     1      43.706 -18.542   2.957  1.00  0.00     0.051 A 
HETATM   25  C   UNL     1      43.699 -19.902   2.662  1.00  0.00     0.117 A 
HETATM   26  F   UNL     1      43.518 -20.303   1.397  1.00  0.00    -0.206 F 
HETATM   27  C   UNL     1      43.868 -20.852   3.661  1.00  0.00     0.042 A 
HETATM   28  C   UNL     1      44.052 -20.437   4.978  1.00  0.00     0.004 A 
HETATM   29  C   UNL     1      44.048 -19.073   5.289  1.00  0.00     0.009 A 
ENDBRANCH  22  23
ENDBRANCH  18  22
ENDBRANCH  11  13
ENDBRANCH   8  11
BRANCH  10  30
HETATM   30  N   UNL     1      39.368  -9.507   1.093  1.00  0.00    -0.301 N 
HETATM   31  C   UNL     1      40.094 -10.051   0.075  1.00  0.00     0.365 C 
HETATM   32  O   UNL     1      41.268 -10.398   0.074  1.00  0.00    -0.238 OA
HETATM   33  H   UNL     1      38.380  -9.394   0.916  1.00  0.00     0.171 HD
BRANCH  31  34
HETATM   34  O   UNL     1      39.291 -10.227  -1.007  1.00  0.00    -0.302 OA
BRANCH  34  35
HETATM   35  C   UNL     1      39.530 -11.392  -1.832  1.00  0.00     0.215 C 
BRANCH  35  36
HETATM   36  C   UNL     1      39.175 -12.749  -1.177  1.00  0.00     0.233 C 
HETATM   37  N   UNL     1      37.723 -13.135  -1.426  1.00  0.00    -0.065 N 
HETATM   38  H   UNL     1      37.429 -13.868  -0.770  1.00  0.00     0.277 HD
HETATM   39  H   UNL     1      37.122 -12.311  -1.208  1.00  0.00     0.277 HD
HETATM   40  C   UNL     1      37.411 -13.545  -2.839  1.00  0.00     0.259 C 
HETATM   41  C   UNL     1      38.429 -14.581  -3.319  1.00  0.00     0.195 C 
HETATM   42  O   UNL     1      39.771 -14.113  -3.124  1.00  0.00    -0.387 OA
HETATM   43  C   UNL     1      40.054 -13.883  -1.738  1.00  0.00     0.202 C 
ENDBRANCH  35  36
ENDBRANCH  34  35
ENDBRANCH  31  34
ENDBRANCH  10  30
TORSDOF 8
ENDMDL
MODEL 10
REMARK VINA RESULT:      -8.9      5.883      8.074
REMARK  8 active torsions:
REMARK  status: ('A' for Active; 'I' for Inactive)
REMARK    1  A    between atoms: C_8  and  N_9 
REMARK    2  A    between atoms: N_9  and  C_10 
REMARK    3  A    between atoms: N_14  and  C_15 
REMARK    4  A    between atoms: C_15  and  C_16 
REMARK    5  A    between atoms: C_28  and  N_29 
REMARK       I    between atoms: N_29  and  C_30 
REMARK    6  A    between atoms: C_30  and  O_31 
REMARK    7  A    between atoms: O_31  and  C_32 
REMARK    8  A    between atoms: C_32  and  C_33 
ROOT
HETATM    1  C   UNL     1      40.913 -11.683   2.220  1.00  0.00     0.053 C 
HETATM    2  C   UNL     1      40.981 -13.170   2.240  1.00  0.00    -0.002 A 
HETATM    3  C   UNL     1      40.882 -14.007   3.352  1.00  0.00     0.106 A 
HETATM    4  N   UNL     1      40.988 -15.298   2.924  1.00  0.00    -0.238 N 
HETATM    5  N   UNL     1      40.954 -16.382   3.707  1.00  0.00    -0.161 NA
HETATM    6  C   UNL     1      40.780 -16.110   4.961  1.00  0.00     0.257 A 
HETATM    7  N   UNL     1      40.620 -14.871   5.515  1.00  0.00    -0.226 NA
HETATM    8  C   UNL     1      40.652 -13.807   4.764  1.00  0.00     0.138 A 
HETATM    9  C   UNL     1      41.105 -15.324   1.564  1.00  0.00     0.149 A 
HETATM   10  C   UNL     1      41.087 -14.032   1.099  1.00  0.00     0.062 A 
ENDROOT
BRANCH   8  11
HETATM   11  N   UNL     1      40.466 -12.549   5.318  1.00  0.00    -0.242 NA
HETATM   12  H   UNL     1      39.695 -12.503   5.967  1.00  0.00     0.135 HD
BRANCH  11  13
HETATM   13  C   UNL     1      41.570 -11.810   5.834  1.00  0.00     0.015 A 
HETATM   14  C   UNL     1      42.872 -12.335   5.861  1.00  0.00     0.039 A 
HETATM   15  C   UNL     1      43.901 -11.619   6.502  1.00  0.00     0.013 A 
HETATM   16  C   UNL     1      43.616 -10.388   7.083  1.00  0.00     0.065 A 
HETATM   17  C   UNL     1      45.272 -11.827   6.755  1.00  0.00     0.152 A 
HETATM   18  N   UNL     1      44.783 -10.011   7.713  1.00  0.00    -0.265 N 
HETATM   19  C   UNL     1      42.349  -9.799   7.006  1.00  0.00     0.034 A 
HETATM   20  N   UNL     1      45.816 -10.854   7.489  1.00  0.00    -0.183 NA
HETATM   21  C   UNL     1      41.342 -10.531   6.364  1.00  0.00     0.026 A 
BRANCH  18  22
HETATM   22  C   UNL     1      44.961  -8.895   8.637  1.00  0.00     0.190 C 
BRANCH  22  23
HETATM   23  C   UNL     1      44.200  -9.085   9.934  1.00  0.00    -0.035 A 
HETATM   24  C   UNL     1      44.274 -10.286  10.660  1.00  0.00     0.051 A 
HETATM   25  C   UNL     1      43.544 -10.439  11.834  1.00  0.00     0.117 A 
HETATM   26  F   UNL     1      43.593 -11.603  12.496  1.00  0.00    -0.206 F 
HETATM   27  C   UNL     1      42.758  -9.407  12.328  1.00  0.00     0.042 A 
HETATM   28  C   UNL     1      42.702  -8.198  11.639  1.00  0.00     0.004 A 
HETATM   29  C   UNL     1      43.421  -8.036  10.449  1.00  0.00     0.009 A 
ENDBRANCH  22  23
ENDBRANCH  18  22
ENDBRANCH  11  13
ENDBRANCH   8  11
BRANCH  10  30
HETATM   30  N   UNL     1      41.138 -13.631  -0.225  1.00  0.00    -0.301 N 
HETATM   31  C   UNL     1      40.223 -13.955  -1.183  1.00  0.00     0.365 C 
HETATM   32  O   UNL     1      39.248 -14.688  -1.091  1.00  0.00    -0.238 OA
HETATM   33  H   UNL     1      41.808 -12.919  -0.480  1.00  0.00     0.171 HD
BRANCH  31  34
HETATM   34  O   UNL     1      40.509 -13.277  -2.326  1.00  0.00    -0.302 OA
BRANCH  34  35
HETATM   35  C   UNL     1      39.466 -12.444  -2.885  1.00  0.00     0.215 C 
BRANCH  35  36
HETATM   36  C   UNL     1      39.004 -11.272  -1.985  1.00  0.00     0.233 C 
HETATM   37  N   UNL     1      39.166  -9.926  -2.681  1.00  0.00    -0.065 N 
HETATM   38  H   UNL     1      39.129  -9.162  -1.996  1.00  0.00     0.277 HD
HETATM   39  H   UNL     1      40.123  -9.884  -3.093  1.00  0.00     0.277 HD
HETATM   40  C   UNL     1      38.194  -9.672  -3.799  1.00  0.00     0.259 C 
HETATM   41  C   UNL     1      36.769  -9.970  -3.331  1.00  0.00     0.195 C 
HETATM   42  O   UNL     1      36.679 -11.284  -2.761  1.00  0.00    -0.387 OA
HETATM   43  C   UNL     1      37.518 -11.416  -1.606  1.00  0.00     0.202 C 
ENDBRANCH  35  36
ENDBRANCH  34  35
ENDBRANCH  31  34
ENDBRANCH  10  30
TORSDOF 8
ENDMDL
