MODEL 1
REMARK VINA RESULT:      -9.4      0.000      0.000
REMARK  5 active torsions:
REMARK  status: ('A' for Active; 'I' for Inactive)
REMARK    1  A    between atoms: C_2  and  C_3 
REMARK    2  A    between atoms: C_5  and  N_6 
REMARK       I    between atoms: N_6  and  C_7 
REMARK    3  A    between atoms: C_7  and  C_8 
REMARK    4  A    between atoms: C_16  and  C_17 
REMARK    5  A    between atoms: C_20  and  O_21 
ROOT
HETATM    1  C   UNL     1      42.628 -12.890   4.116  1.00  0.00     0.047 A 
HETATM    2  C   UNL     1      41.364 -12.628   3.545  1.00  0.00     0.008 A 
HETATM    3  C   UNL     1      40.655 -13.755   3.096  1.00  0.00     0.068 A 
HETATM    4  C   UNL     1      39.390 -13.581   2.551  1.00  0.00     0.032 A 
HETATM    5  C   UNL     1      38.812 -12.317   2.409  1.00  0.00     0.002 A 
HETATM    6  C   UNL     1      39.519 -11.192   2.806  1.00  0.00     0.001 A 
HETATM    7  C   UNL     1      40.786 -11.342   3.364  1.00  0.00     0.015 A 
HETATM    8  N   UNL     1      41.150 -15.003   3.150  1.00  0.00    -0.248 NA
HETATM    9  C   UNL     1      42.398 -15.229   3.629  1.00  0.00     0.068 A 
HETATM   10  C   UNL     1      43.155 -14.186   4.132  1.00  0.00     0.050 A 
ENDROOT
BRANCH   1  11
HETATM   11  C   UNL     1      43.498 -11.845   4.718  1.00  0.00     0.257 C 
HETATM   12  N   UNL     1      43.482 -11.792   6.100  1.00  0.00    -0.323 N 
HETATM   13  H   UNL     1      42.863 -12.434   6.581  1.00  0.00     0.169 HD
HETATM   14  O   UNL     1      44.182 -11.166   3.963  1.00  0.00    -0.267 OA
BRANCH  12  15
HETATM   15  C   UNL     1      44.236 -10.930   6.926  1.00  0.00     0.035 A 
HETATM   16  C   UNL     1      43.677  -9.894   7.681  1.00  0.00     0.044 A 
HETATM   17  C   UNL     1      44.491  -9.069   8.471  1.00  0.00     0.011 A 
HETATM   18  C   UNL     1      45.871  -9.303   8.521  1.00  0.00     0.015 A 
HETATM   19  C   UNL     1      46.434 -10.333   7.772  1.00  0.00     0.003 A 
HETATM   20  C   UNL     1      45.621 -11.136   6.969  1.00  0.00     0.029 A 
BRANCH  17  21
HETATM   21  C   UNL     1      43.933  -7.931   9.261  1.00  0.00     0.155 C 
HETATM   22  C   UNL     1      43.341  -8.204  10.620  1.00  0.00     0.096 C 
HETATM   23  O   UNL     1      43.955  -6.795   8.792  1.00  0.00    -0.293 OA
ENDBRANCH  17  21
ENDBRANCH  12  15
ENDBRANCH   1  11
BRANCH   9  24
HETATM   24  C   UNL     1      42.889 -16.626   3.530  1.00  0.00    -0.007 A 
HETATM   25  C   UNL     1      43.551 -17.232   4.615  1.00  0.00     0.016 A 
HETATM   26  C   UNL     1      43.967 -18.568   4.572  1.00  0.00     0.037 A 
HETATM   27  C   UNL     1      43.724 -19.348   3.446  1.00  0.00     0.068 A 
HETATM   28  C   UNL     1      43.110 -18.766   2.341  1.00  0.00     0.037 A 
HETATM   29  C   UNL     1      42.702 -17.423   2.384  1.00  0.00     0.016 A 
BRANCH  27  30
HETATM   30  O   UNL     1      44.144 -20.646   3.531  1.00  0.00    -0.356 OA
HETATM   31  C   UNL     1      43.990 -21.270   4.801  1.00  0.00     0.210 C 
ENDBRANCH  27  30
ENDBRANCH   9  24
TORSDOF 5
ENDMDL
MODEL 2
REMARK VINA RESULT:      -9.2      2.687      5.091
REMARK  5 active torsions:
REMARK  status: ('A' for Active; 'I' for Inactive)
REMARK    1  A    between atoms: C_2  and  C_3 
REMARK    2  A    between atoms: C_5  and  N_6 
REMARK       I    between atoms: N_6  and  C_7 
REMARK    3  A    between atoms: C_7  and  C_8 
REMARK    4  A    between atoms: C_16  and  C_17 
REMARK    5  A    between atoms: C_20  and  O_21 
ROOT
HETATM    1  C   UNL     1      42.844 -13.734   4.925  1.00  0.00     0.047 A 
HETATM    2  C   UNL     1      43.286 -15.062   5.111  1.00  0.00     0.008 A 
HETATM    3  C   UNL     1      43.113 -15.919   4.010  1.00  0.00     0.068 A 
HETATM    4  C   UNL     1      43.553 -17.232   4.105  1.00  0.00     0.032 A 
HETATM    5  C   UNL     1      44.133 -17.737   5.270  1.00  0.00     0.002 A 
HETATM    6  C   UNL     1      44.268 -16.916   6.379  1.00  0.00     0.001 A 
HETATM    7  C   UNL     1      43.844 -15.591   6.306  1.00  0.00     0.015 A 
HETATM    8  N   UNL     1      42.524 -15.534   2.866  1.00  0.00    -0.248 NA
HETATM    9  C   UNL     1      42.035 -14.277   2.732  1.00  0.00     0.068 A 
HETATM   10  C   UNL     1      42.194 -13.350   3.747  1.00  0.00     0.050 A 
ENDROOT
BRANCH   1  11
HETATM   11  C   UNL     1      43.007 -12.658   5.938  1.00  0.00     0.257 C 
HETATM   12  N   UNL     1      44.295 -12.485   6.410  1.00  0.00    -0.323 N 
HETATM   13  H   UNL     1      45.005 -13.118   6.060  1.00  0.00     0.169 HD
HETATM   14  O   UNL     1      42.020 -11.992   6.228  1.00  0.00    -0.267 OA
BRANCH  12  15
HETATM   15  C   UNL     1      44.737 -11.518   7.339  1.00  0.00     0.035 A 
HETATM   16  C   UNL     1      44.206 -11.378   8.625  1.00  0.00     0.044 A 
HETATM   17  C   UNL     1      44.688 -10.385   9.491  1.00  0.00     0.011 A 
HETATM   18  C   UNL     1      45.725  -9.544   9.070  1.00  0.00     0.015 A 
HETATM   19  C   UNL     1      46.259  -9.678   7.790  1.00  0.00     0.003 A 
HETATM   20  C   UNL     1      45.759 -10.654   6.925  1.00  0.00     0.029 A 
BRANCH  17  21
HETATM   21  C   UNL     1      44.120 -10.183  10.857  1.00  0.00     0.155 C 
HETATM   22  C   UNL     1      43.783  -8.786  11.311  1.00  0.00     0.096 C 
HETATM   23  O   UNL     1      43.944 -11.152  11.593  1.00  0.00    -0.293 OA
ENDBRANCH  17  21
ENDBRANCH  12  15
ENDBRANCH   1  11
BRANCH   9  24
HETATM   24  C   UNL     1      41.297 -13.997   1.474  1.00  0.00    -0.007 A 
HETATM   25  C   UNL     1      40.586 -15.020   0.818  1.00  0.00     0.016 A 
HETATM   26  C   UNL     1      39.828 -14.769  -0.333  1.00  0.00     0.037 A 
HETATM   27  C   UNL     1      39.746 -13.484  -0.859  1.00  0.00     0.068 A 
HETATM   28  C   UNL     1      40.472 -12.461  -0.258  1.00  0.00     0.037 A 
HETATM   29  C   UNL     1      41.238 -12.716   0.891  1.00  0.00     0.016 A 
BRANCH  27  30
HETATM   30  O   UNL     1      38.952 -13.354  -1.963  1.00  0.00    -0.356 OA
HETATM   31  C   UNL     1      38.697 -14.547  -2.695  1.00  0.00     0.210 C 
ENDBRANCH  27  30
ENDBRANCH   9  24
TORSDOF 5
ENDMDL
MODEL 3
REMARK VINA RESULT:      -9.2      3.147      8.776
REMARK  5 active torsions:
REMARK  status: ('A' for Active; 'I' for Inactive)
REMARK    1  A    between atoms: C_2  and  C_3 
REMARK    2  A    between atoms: C_5  and  N_6 
REMARK       I    between atoms: N_6  and  C_7 
REMARK    3  A    between atoms: C_7  and  C_8 
REMARK    4  A    between atoms: C_16  and  C_17 
REMARK    5  A    between atoms: C_20  and  O_21 
ROOT
HETATM    1  C   UNL     1      41.527 -15.120   3.112  1.00  0.00     0.047 A 
HETATM    2  C   UNL     1      42.344 -16.265   3.234  1.00  0.00     0.008 A 
HETATM    3  C   UNL     1      43.275 -16.237   4.286  1.00  0.00     0.068 A 
HETATM    4  C   UNL     1      44.093 -17.340   4.489  1.00  0.00     0.032 A 
HETATM    5  C   UNL     1      44.039 -18.465   3.663  1.00  0.00     0.002 A 
HETATM    6  C   UNL     1      43.156 -18.488   2.594  1.00  0.00     0.001 A 
HETATM    7  C   UNL     1      42.319 -17.397   2.374  1.00  0.00     0.015 A 
HETATM    8  N   UNL     1      43.430 -15.180   5.101  1.00  0.00    -0.248 NA
HETATM    9  C   UNL     1      42.692 -14.058   4.922  1.00  0.00     0.068 A 
HETATM   10  C   UNL     1      41.720 -14.007   3.938  1.00  0.00     0.050 A 
ENDROOT
BRANCH   1  11
HETATM   11  C   UNL     1      40.431 -14.987   2.115  1.00  0.00     0.257 C 
HETATM   12  N   UNL     1      40.689 -14.118   1.071  1.00  0.00    -0.323 N 
HETATM   13  H   UNL     1      41.574 -13.624   1.088  1.00  0.00     0.169 HD
HETATM   14  O   UNL     1      39.433 -15.680   2.267  1.00  0.00    -0.267 OA
BRANCH  12  15
HETATM   15  C   UNL     1      39.847 -13.834  -0.026  1.00  0.00     0.035 A 
HETATM   16  C   UNL     1      39.116 -12.650  -0.157  1.00  0.00     0.044 A 
HETATM   17  C   UNL     1      38.289 -12.442  -1.271  1.00  0.00     0.011 A 
HETATM   18  C   UNL     1      38.216 -13.420  -2.270  1.00  0.00     0.015 A 
HETATM   19  C   UNL     1      38.942 -14.602  -2.146  1.00  0.00     0.003 A 
HETATM   20  C   UNL     1      39.746 -14.813  -1.024  1.00  0.00     0.029 A 
BRANCH  17  21
HETATM   21  C   UNL     1      37.466 -11.206  -1.425  1.00  0.00     0.155 C 
HETATM   22  C   UNL     1      36.686 -10.999  -2.698  1.00  0.00     0.096 C 
HETATM   23  O   UNL     1      37.443 -10.372  -0.521  1.00  0.00    -0.293 OA
ENDBRANCH  17  21
ENDBRANCH  12  15
ENDBRANCH   1  11
BRANCH   9  24
HETATM   24  C   UNL     1      43.029 -12.910   5.801  1.00  0.00    -0.007 A 
HETATM   25  C   UNL     1      44.267 -12.860   6.470  1.00  0.00     0.016 A 
HETATM   26  C   UNL     1      44.637 -11.760   7.253  1.00  0.00     0.037 A 
HETATM   27  C   UNL     1      43.787 -10.666   7.383  1.00  0.00     0.068 A 
HETATM   28  C   UNL     1      42.539 -10.705   6.768  1.00  0.00     0.037 A 
HETATM   29  C   UNL     1      42.167 -11.813   5.991  1.00  0.00     0.016 A 
BRANCH  27  30
HETATM   30  O   UNL     1      44.268  -9.638   8.143  1.00  0.00    -0.356 OA
HETATM   31  C   UNL     1      45.685  -9.525   8.216  1.00  0.00     0.210 C 
ENDBRANCH  27  30
ENDBRANCH   9  24
TORSDOF 5
ENDMDL
MODEL 4
REMARK VINA RESULT:      -9.1      3.535      9.142
REMARK  5 active torsions:
REMARK  status: ('A' for Active; 'I' for Inactive)
REMARK    1  A    between atoms: C_2  and  C_3 
REMARK    2  A    between atoms: C_5  and  N_6 
REMARK       I    between atoms: N_6  and  C_7 
REMARK    3  A    between atoms: C_7  and  C_8 
REMARK    4  A    between atoms: C_16  and  C_17 
REMARK    5  A    between atoms: C_20  and  O_21 
ROOT
HETATM    1  C   UNL     1      41.781 -14.368   3.104  1.00  0.00     0.047 A 
HETATM    2  C   UNL     1      42.420 -15.615   3.280  1.00  0.00     0.008 A 
HETATM    3  C   UNL     1      43.231 -15.726   4.423  1.00  0.00     0.068 A 
HETATM    4  C   UNL     1      43.868 -16.932   4.680  1.00  0.00     0.032 A 
HETATM    5  C   UNL     1      43.751 -18.030   3.824  1.00  0.00     0.002 A 
HETATM    6  C   UNL     1      42.991 -17.920   2.670  1.00  0.00     0.001 A 
HETATM    7  C   UNL     1      42.335 -16.723   2.394  1.00  0.00     0.015 A 
HETATM    8  N   UNL     1      43.438 -14.710   5.277  1.00  0.00    -0.248 NA
HETATM    9  C   UNL     1      42.880 -13.495   5.051  1.00  0.00     0.068 A 
HETATM   10  C   UNL     1      42.033 -13.302   3.974  1.00  0.00     0.050 A 
ENDROOT
BRANCH   1  11
HETATM   11  C   UNL     1      40.824 -14.076   2.004  1.00  0.00     0.257 C 
HETATM   12  N   UNL     1      41.402 -13.677   0.813  1.00  0.00    -0.323 N 
HETATM   13  H   UNL     1      42.411 -13.583   0.797  1.00  0.00     0.169 HD
HETATM   14  O   UNL     1      39.633 -14.258   2.220  1.00  0.00    -0.267 OA
BRANCH  12  15
HETATM   15  C   UNL     1      40.738 -13.377  -0.396  1.00  0.00     0.035 A 
HETATM   16  C   UNL     1      40.000 -14.311  -1.129  1.00  0.00     0.044 A 
HETATM   17  C   UNL     1      39.376 -13.943  -2.330  1.00  0.00     0.011 A 
HETATM   18  C   UNL     1      39.474 -12.622  -2.783  1.00  0.00     0.015 A 
HETATM   19  C   UNL     1      40.207 -11.686  -2.058  1.00  0.00     0.003 A 
HETATM   20  C   UNL     1      40.845 -12.065  -0.875  1.00  0.00     0.029 A 
BRANCH  17  21
HETATM   21  C   UNL     1      38.611 -14.924  -3.156  1.00  0.00     0.155 C 
HETATM   22  C   UNL     1      38.339 -16.297  -2.598  1.00  0.00     0.096 C 
HETATM   23  O   UNL     1      38.223 -14.605  -4.279  1.00  0.00    -0.293 OA
ENDBRANCH  17  21
ENDBRANCH  12  15
ENDBRANCH   1  11
BRANCH   9  24
HETATM   24  C   UNL     1      43.273 -12.415   5.990  1.00  0.00    -0.007 A 
HETATM   25  C   UNL     1      44.509 -12.464   6.662  1.00  0.00     0.016 A 
HETATM   26  C   UNL     1      44.933 -11.427   7.503  1.00  0.00     0.037 A 
HETATM   27  C   UNL     1      44.141 -10.300   7.689  1.00  0.00     0.068 A 
HETATM   28  C   UNL     1      42.895 -10.241   7.072  1.00  0.00     0.037 A 
HETATM   29  C   UNL     1      42.468 -11.286   6.238  1.00  0.00     0.016 A 
BRANCH  27  30
HETATM   30  O   UNL     1      44.672  -9.339   8.503  1.00  0.00    -0.356 OA
HETATM   31  C   UNL     1      46.062  -9.081   8.339  1.00  0.00     0.210 C 
ENDBRANCH  27  30
ENDBRANCH   9  24
TORSDOF 5
ENDMDL
MODEL 5
REMARK VINA RESULT:      -9.1      1.620      2.045
REMARK  5 active torsions:
REMARK  status: ('A' for Active; 'I' for Inactive)
REMARK    1  A    between atoms: C_2  and  C_3 
REMARK    2  A    between atoms: C_5  and  N_6 
REMARK       I    between atoms: N_6  and  C_7 
REMARK    3  A    between atoms: C_7  and  C_8 
REMARK    4  A    between atoms: C_16  and  C_17 
REMARK    5  A    between atoms: C_20  and  O_21 
ROOT
HETATM    1  C   UNL     1      42.625 -13.014   3.028  1.00  0.00     0.047 A 
HETATM    2  C   UNL     1      41.782 -12.875   1.904  1.00  0.00     0.008 A 
HETATM    3  C   UNL     1      41.367 -14.076   1.303  1.00  0.00     0.068 A 
HETATM    4  C   UNL     1      40.511 -14.022   0.212  1.00  0.00     0.032 A 
HETATM    5  C   UNL     1      40.072 -12.810  -0.326  1.00  0.00     0.002 A 
HETATM    6  C   UNL     1      40.509 -11.616   0.228  1.00  0.00     0.001 A 
HETATM    7  C   UNL     1      41.361 -11.644   1.330  1.00  0.00     0.015 A 
HETATM    8  N   UNL     1      41.775 -15.285   1.723  1.00  0.00    -0.248 NA
HETATM    9  C   UNL     1      42.647 -15.398   2.755  1.00  0.00     0.068 A 
HETATM   10  C   UNL     1      43.078 -14.273   3.435  1.00  0.00     0.050 A 
ENDROOT
BRANCH   1  11
HETATM   11  C   UNL     1      43.108 -11.871   3.847  1.00  0.00     0.257 C 
HETATM   12  N   UNL     1      42.458 -11.697   5.055  1.00  0.00    -0.323 N 
HETATM   13  H   UNL     1      41.694 -12.330   5.265  1.00  0.00     0.169 HD
HETATM   14  O   UNL     1      44.055 -11.223   3.421  1.00  0.00    -0.267 OA
BRANCH  12  15
HETATM   15  C   UNL     1      42.737 -10.724   6.039  1.00  0.00     0.035 A 
HETATM   16  C   UNL     1      43.899 -10.718   6.817  1.00  0.00     0.044 A 
HETATM   17  C   UNL     1      44.102  -9.725   7.786  1.00  0.00     0.011 A 
HETATM   18  C   UNL     1      43.145  -8.718   7.956  1.00  0.00     0.015 A 
HETATM   19  C   UNL     1      41.985  -8.717   7.184  1.00  0.00     0.003 A 
HETATM   20  C   UNL     1      41.777  -9.723   6.237  1.00  0.00     0.029 A 
BRANCH  17  21
HETATM   21  C   UNL     1      45.314  -9.709   8.659  1.00  0.00     0.155 C 
HETATM   22  C   UNL     1      45.173 -10.079  10.113  1.00  0.00     0.096 C 
HETATM   23  O   UNL     1      46.402  -9.386   8.186  1.00  0.00    -0.293 OA
ENDBRANCH  17  21
ENDBRANCH  12  15
ENDBRANCH   1  11
BRANCH   9  24
HETATM   24  C   UNL     1      43.124 -16.772   3.056  1.00  0.00    -0.007 A 
HETATM   25  C   UNL     1      43.672 -17.080   4.316  1.00  0.00     0.016 A 
HETATM   26  C   UNL     1      44.069 -18.381   4.648  1.00  0.00     0.037 A 
HETATM   27  C   UNL     1      43.920 -19.421   3.735  1.00  0.00     0.068 A 
HETATM   28  C   UNL     1      43.422 -19.139   2.467  1.00  0.00     0.037 A 
HETATM   29  C   UNL     1      43.033 -17.832   2.134  1.00  0.00     0.016 A 
BRANCH  27  30
HETATM   30  O   UNL     1      44.310 -20.652   4.183  1.00  0.00    -0.356 OA
HETATM   31  C   UNL     1      44.018 -20.944   5.544  1.00  0.00     0.210 C 
ENDBRANCH  27  30
ENDBRANCH   9  24
TORSDOF 5
ENDMDL
MODEL 6
REMARK VINA RESULT:      -8.9      5.004      9.453
REMARK  5 active torsions:
REMARK  status: ('A' for Active; 'I' for Inactive)
REMARK    1  A    between atoms: C_2  and  C_3 
REMARK    2  A    between atoms: C_5  and  N_6 
REMARK       I    between atoms: N_6  and  C_7 
REMARK    3  A    between atoms: C_7  and  C_8 
REMARK    4  A    between atoms: C_16  and  C_17 
REMARK    5  A    between atoms: C_20  and  O_21 
ROOT
HETATM    1  C   UNL     1      40.670 -13.470   0.231  1.00  0.00     0.047 A 
HETATM    2  C   UNL     1      39.973 -13.853  -0.935  1.00  0.00     0.008 A 
HETATM    3  C   UNL     1      39.860 -12.866  -1.928  1.00  0.00     0.068 A 
HETATM    4  C   UNL     1      39.215 -13.178  -3.117  1.00  0.00     0.032 A 
HETATM    5  C   UNL     1      38.648 -14.434  -3.345  1.00  0.00     0.002 A 
HETATM    6  C   UNL     1      38.712 -15.403  -2.356  1.00  0.00     0.001 A 
HETATM    7  C   UNL     1      39.362 -15.118  -1.158  1.00  0.00     0.015 A 
HETATM    8  N   UNL     1      40.334 -11.617  -1.779  1.00  0.00    -0.248 NA
HETATM    9  C   UNL     1      40.932 -11.242  -0.622  1.00  0.00     0.068 A 
HETATM   10  C   UNL     1      41.125 -12.157   0.398  1.00  0.00     0.050 A 
ENDROOT
BRANCH   1  11
HETATM   11  C   UNL     1      40.963 -14.390   1.361  1.00  0.00     0.257 C 
HETATM   12  N   UNL     1      42.140 -15.107   1.247  1.00  0.00    -0.323 N 
HETATM   13  H   UNL     1      42.681 -14.976   0.399  1.00  0.00     0.169 HD
HETATM   14  O   UNL     1      40.183 -14.401   2.306  1.00  0.00    -0.267 OA
BRANCH  12  15
HETATM   15  C   UNL     1      42.677 -16.015   2.185  1.00  0.00     0.035 A 
HETATM   16  C   UNL     1      42.863 -17.377   1.928  1.00  0.00     0.044 A 
HETATM   17  C   UNL     1      43.391 -18.222   2.915  1.00  0.00     0.011 A 
HETATM   18  C   UNL     1      43.758 -17.691   4.157  1.00  0.00     0.015 A 
HETATM   19  C   UNL     1      43.576 -16.335   4.419  1.00  0.00     0.003 A 
HETATM   20  C   UNL     1      43.028 -15.503   3.441  1.00  0.00     0.029 A 
BRANCH  17  21
HETATM   21  C   UNL     1      43.569 -19.687   2.687  1.00  0.00     0.155 C 
HETATM   22  C   UNL     1      43.973 -20.564   3.844  1.00  0.00     0.096 C 
HETATM   23  O   UNL     1      43.393 -20.156   1.564  1.00  0.00    -0.293 OA
ENDBRANCH  17  21
ENDBRANCH  12  15
ENDBRANCH   1  11
BRANCH   9  24
HETATM   24  C   UNL     1      41.308  -9.809  -0.519  1.00  0.00    -0.007 A 
HETATM   25  C   UNL     1      42.307  -9.269  -1.351  1.00  0.00     0.016 A 
HETATM   26  C   UNL     1      42.635  -7.907  -1.321  1.00  0.00     0.037 A 
HETATM   27  C   UNL     1      41.966  -7.038  -0.465  1.00  0.00     0.068 A 
HETATM   28  C   UNL     1      41.003  -7.550   0.399  1.00  0.00     0.037 A 
HETATM   29  C   UNL     1      40.683  -8.917   0.373  1.00  0.00     0.016 A 
BRANCH  27  30
HETATM   30  O   UNL     1      42.347  -5.728  -0.547  1.00  0.00    -0.356 OA
HETATM   31  C   UNL     1      43.738  -5.472  -0.393  1.00  0.00     0.210 C 
ENDBRANCH  27  30
ENDBRANCH   9  24
TORSDOF 5
ENDMDL
MODEL 7
REMARK VINA RESULT:      -8.8      2.761      5.554
REMARK  5 active torsions:
REMARK  status: ('A' for Active; 'I' for Inactive)
REMARK    1  A    between atoms: C_2  and  C_3 
REMARK    2  A    between atoms: C_5  and  N_6 
REMARK       I    between atoms: N_6  and  C_7 
REMARK    3  A    between atoms: C_7  and  C_8 
REMARK    4  A    between atoms: C_16  and  C_17 
REMARK    5  A    between atoms: C_20  and  O_21 
ROOT
HETATM    1  C   UNL     1      42.545 -14.388   4.217  1.00  0.00     0.047 A 
HETATM    2  C   UNL     1      43.070 -15.694   4.113  1.00  0.00     0.008 A 
HETATM    3  C   UNL     1      42.964 -16.293   2.846  1.00  0.00     0.068 A 
HETATM    4  C   UNL     1      43.486 -17.565   2.657  1.00  0.00     0.032 A 
HETATM    5  C   UNL     1      44.087 -18.281   3.695  1.00  0.00     0.002 A 
HETATM    6  C   UNL     1      44.158 -17.721   4.961  1.00  0.00     0.001 A 
HETATM    7  C   UNL     1      43.649 -16.442   5.174  1.00  0.00     0.015 A 
HETATM    8  N   UNL     1      42.362 -15.699   1.802  1.00  0.00    -0.248 NA
HETATM    9  C   UNL     1      41.793 -14.476   1.939  1.00  0.00     0.068 A 
HETATM   10  C   UNL     1      41.883 -13.792   3.138  1.00  0.00     0.050 A 
ENDROOT
BRANCH   1  11
HETATM   11  C   UNL     1      42.628 -13.558   5.447  1.00  0.00     0.257 C 
HETATM   12  N   UNL     1      42.924 -12.224   5.237  1.00  0.00    -0.323 N 
HETATM   13  H   UNL     1      43.094 -11.932   4.281  1.00  0.00     0.169 HD
HETATM   14  O   UNL     1      42.381 -14.097   6.518  1.00  0.00    -0.267 OA
BRANCH  12  15
HETATM   15  C   UNL     1      43.025 -11.211   6.215  1.00  0.00     0.035 A 
HETATM   16  C   UNL     1      44.222 -10.856   6.846  1.00  0.00     0.044 A 
HETATM   17  C   UNL     1      44.243  -9.847   7.819  1.00  0.00     0.011 A 
HETATM   18  C   UNL     1      43.059  -9.173   8.142  1.00  0.00     0.015 A 
HETATM   19  C   UNL     1      41.863  -9.520   7.518  1.00  0.00     0.003 A 
HETATM   20  C   UNL     1      41.845 -10.542   6.566  1.00  0.00     0.029 A 
BRANCH  17  21
HETATM   21  C   UNL     1      45.496  -9.468   8.538  1.00  0.00     0.155 C 
HETATM   22  C   UNL     1      45.582  -9.692  10.026  1.00  0.00     0.096 C 
HETATM   23  O   UNL     1      46.432  -8.973   7.913  1.00  0.00    -0.293 OA
ENDBRANCH  17  21
ENDBRANCH  12  15
ENDBRANCH   1  11
BRANCH   9  24
HETATM   24  C   UNL     1      41.050 -13.968   0.758  1.00  0.00    -0.007 A 
HETATM   25  C   UNL     1      40.205 -14.820   0.023  1.00  0.00     0.016 A 
HETATM   26  C   UNL     1      39.443 -14.352  -1.055  1.00  0.00     0.037 A 
HETATM   27  C   UNL     1      39.492 -13.012  -1.426  1.00  0.00     0.068 A 
HETATM   28  C   UNL     1      40.351 -12.154  -0.745  1.00  0.00     0.037 A 
HETATM   29  C   UNL     1      41.120 -12.629   0.329  1.00  0.00     0.016 A 
BRANCH  27  30
HETATM   30  O   UNL     1      38.681 -12.664  -2.469  1.00  0.00    -0.356 OA
HETATM   31  C   UNL     1      37.505 -13.447  -2.635  1.00  0.00     0.210 C 
ENDBRANCH  27  30
ENDBRANCH   9  24
TORSDOF 5
ENDMDL
MODEL 8
REMARK VINA RESULT:      -8.8      1.822      8.553
REMARK  5 active torsions:
REMARK  status: ('A' for Active; 'I' for Inactive)
REMARK    1  A    between atoms: C_2  and  C_3 
REMARK    2  A    between atoms: C_5  and  N_6 
REMARK       I    between atoms: N_6  and  C_7 
REMARK    3  A    between atoms: C_7  and  C_8 
REMARK    4  A    between atoms: C_16  and  C_17 
REMARK    5  A    between atoms: C_20  and  O_21 
ROOT
HETATM    1  C   UNL     1      42.498 -13.739   4.018  1.00  0.00     0.047 A 
HETATM    2  C   UNL     1      42.078 -12.951   2.925  1.00  0.00     0.008 A 
HETATM    3  C   UNL     1      42.386 -11.582   3.009  1.00  0.00     0.068 A 
HETATM    4  C   UNL     1      42.032 -10.748   1.957  1.00  0.00     0.032 A 
HETATM    5  C   UNL     1      41.355 -11.221   0.831  1.00  0.00     0.002 A 
HETATM    6  C   UNL     1      41.005 -12.560   0.755  1.00  0.00     0.001 A 
HETATM    7  C   UNL     1      41.356 -13.420   1.793  1.00  0.00     0.015 A 
HETATM    8  N   UNL     1      42.993 -11.031   4.072  1.00  0.00    -0.248 NA
HETATM    9  C   UNL     1      43.320 -11.788   5.148  1.00  0.00     0.068 A 
HETATM   10  C   UNL     1      43.094 -13.153   5.140  1.00  0.00     0.050 A 
ENDROOT
BRANCH   1  11
HETATM   11  C   UNL     1      42.337 -15.216   4.085  1.00  0.00     0.257 C 
HETATM   12  N   UNL     1      43.427 -15.904   4.585  1.00  0.00    -0.323 N 
HETATM   13  H   UNL     1      44.247 -15.359   4.827  1.00  0.00     0.169 HD
HETATM   14  O   UNL     1      41.258 -15.688   3.750  1.00  0.00    -0.267 OA
BRANCH  12  15
HETATM   15  C   UNL     1      43.531 -17.296   4.793  1.00  0.00     0.035 A 
HETATM   16  C   UNL     1      43.641 -18.230   3.758  1.00  0.00     0.044 A 
HETATM   17  C   UNL     1      43.727 -19.601   4.041  1.00  0.00     0.011 A 
HETATM   18  C   UNL     1      43.728 -20.033   5.373  1.00  0.00     0.015 A 
HETATM   19  C   UNL     1      43.619 -19.109   6.409  1.00  0.00     0.003 A 
HETATM   20  C   UNL     1      43.509 -17.747   6.120  1.00  0.00     0.029 A 
BRANCH  17  21
HETATM   21  C   UNL     1      43.809 -20.627   2.960  1.00  0.00     0.155 C 
HETATM   22  C   UNL     1      43.332 -20.272   1.575  1.00  0.00     0.096 C 
HETATM   23  O   UNL     1      44.254 -21.746   3.213  1.00  0.00    -0.293 OA
ENDBRANCH  17  21
ENDBRANCH  12  15
ENDBRANCH   1  11
BRANCH   9  24
HETATM   24  C   UNL     1      43.876 -11.055   6.314  1.00  0.00    -0.007 A 
HETATM   25  C   UNL     1      43.069 -10.171   7.056  1.00  0.00     0.016 A 
HETATM   26  C   UNL     1      43.549  -9.518   8.198  1.00  0.00     0.037 A 
HETATM   27  C   UNL     1      44.848  -9.736   8.643  1.00  0.00     0.068 A 
HETATM   28  C   UNL     1      45.683 -10.571   7.907  1.00  0.00     0.037 A 
HETATM   29  C   UNL     1      45.203 -11.217   6.757  1.00  0.00     0.016 A 
BRANCH  27  30
HETATM   30  O   UNL     1      45.194  -9.071   9.786  1.00  0.00    -0.356 OA
HETATM   31  C   UNL     1      44.344  -9.274  10.909  1.00  0.00     0.210 C 
ENDBRANCH  27  30
ENDBRANCH   9  24
TORSDOF 5
ENDMDL
MODEL 9
REMARK VINA RESULT:      -8.6      3.627      7.798
REMARK  5 active torsions:
REMARK  status: ('A' for Active; 'I' for Inactive)
REMARK    1  A    between atoms: C_2  and  C_3 
REMARK    2  A    between atoms: C_5  and  N_6 
REMARK       I    between atoms: N_6  and  C_7 
REMARK    3  A    between atoms: C_7  and  C_8 
REMARK    4  A    between atoms: C_16  and  C_17 
REMARK    5  A    between atoms: C_20  and  O_21 
ROOT
HETATM    1  C   UNL     1      41.368 -13.354   1.928  1.00  0.00     0.047 A 
HETATM    2  C   UNL     1      41.279 -12.463   3.019  1.00  0.00     0.008 A 
HETATM    3  C   UNL     1      41.928 -12.876   4.195  1.00  0.00     0.068 A 
HETATM    4  C   UNL     1      41.912 -12.037   5.302  1.00  0.00     0.032 A 
HETATM    5  C   UNL     1      41.246 -10.810   5.292  1.00  0.00     0.002 A 
HETATM    6  C   UNL     1      40.564 -10.410   4.153  1.00  0.00     0.001 A 
HETATM    7  C   UNL     1      40.572 -11.229   3.027  1.00  0.00     0.015 A 
HETATM    8  N   UNL     1      42.554 -14.058   4.312  1.00  0.00    -0.248 NA
HETATM    9  C   UNL     1      42.563 -14.937   3.280  1.00  0.00     0.068 A 
HETATM   10  C   UNL     1      41.986 -14.602   2.068  1.00  0.00     0.050 A 
ENDROOT
BRANCH   1  11
HETATM   11  C   UNL     1      40.817 -13.068   0.577  1.00  0.00     0.257 C 
HETATM   12  N   UNL     1      39.713 -13.820   0.221  1.00  0.00    -0.323 N 
HETATM   13  H   UNL     1      39.397 -14.519   0.884  1.00  0.00     0.169 HD
HETATM   14  O   UNL     1      41.340 -12.173  -0.075  1.00  0.00    -0.267 OA
BRANCH  12  15
HETATM   15  C   UNL     1      38.972 -13.728  -0.977  1.00  0.00     0.035 A 
HETATM   16  C   UNL     1      38.144 -12.647  -1.296  1.00  0.00     0.044 A 
HETATM   17  C   UNL     1      37.427 -12.631  -2.502  1.00  0.00     0.011 A 
HETATM   18  C   UNL     1      37.562 -13.695  -3.401  1.00  0.00     0.015 A 
HETATM   19  C   UNL     1      38.385 -14.775  -3.089  1.00  0.00     0.003 A 
HETATM   20  C   UNL     1      39.078 -14.796  -1.877  1.00  0.00     0.029 A 
BRANCH  17  21
HETATM   21  C   UNL     1      36.507 -11.510  -2.858  1.00  0.00     0.155 C 
HETATM   22  C   UNL     1      35.283 -11.804  -3.688  1.00  0.00     0.096 C 
HETATM   23  O   UNL     1      36.762 -10.368  -2.482  1.00  0.00    -0.293 OA
ENDBRANCH  17  21
ENDBRANCH  12  15
ENDBRANCH   1  11
BRANCH   9  24
HETATM   24  C   UNL     1      43.177 -16.260   3.558  1.00  0.00    -0.007 A 
HETATM   25  C   UNL     1      43.652 -16.574   4.846  1.00  0.00     0.016 A 
HETATM   26  C   UNL     1      44.175 -17.836   5.152  1.00  0.00     0.037 A 
HETATM   27  C   UNL     1      44.230 -18.832   4.182  1.00  0.00     0.068 A 
HETATM   28  C   UNL     1      43.808 -18.539   2.889  1.00  0.00     0.037 A 
HETATM   29  C   UNL     1      43.293 -17.270   2.583  1.00  0.00     0.016 A 
BRANCH  27  30
HETATM   30  O   UNL     1      44.728 -20.032   4.604  1.00  0.00    -0.356 OA
HETATM   31  C   UNL     1      43.877 -20.801   5.446  1.00  0.00     0.210 C 
ENDBRANCH  27  30
ENDBRANCH   9  24
TORSDOF 5
ENDMDL
MODEL 10
REMARK VINA RESULT:      -8.4      7.974     13.102
REMARK  5 active torsions:
REMARK  status: ('A' for Active; 'I' for Inactive)
REMARK    1  A    between atoms: C_2  and  C_3 
REMARK    2  A    between atoms: C_5  and  N_6 
REMARK       I    between atoms: N_6  and  C_7 
REMARK    3  A    between atoms: C_7  and  C_8 
REMARK    4  A    between atoms: C_16  and  C_17 
REMARK    5  A    between atoms: C_20  and  O_21 
ROOT
HETATM    1  C   UNL     1      40.987  -7.324  15.887  1.00  0.00     0.047 A 
HETATM    2  C   UNL     1      39.915  -6.590  15.334  1.00  0.00     0.008 A 
HETATM    3  C   UNL     1      39.711  -6.759  13.954  1.00  0.00     0.068 A 
HETATM    4  C   UNL     1      38.656  -6.094  13.343  1.00  0.00     0.032 A 
HETATM    5  C   UNL     1      37.808  -5.240  14.053  1.00  0.00     0.002 A 
HETATM    6  C   UNL     1      38.025  -5.029  15.406  1.00  0.00     0.001 A 
HETATM    7  C   UNL     1      39.072  -5.691  16.043  1.00  0.00     0.015 A 
HETATM    8  N   UNL     1      40.503  -7.523  13.183  1.00  0.00    -0.248 NA
HETATM    9  C   UNL     1      41.575  -8.159  13.715  1.00  0.00     0.068 A 
HETATM   10  C   UNL     1      41.832  -8.086  15.073  1.00  0.00     0.050 A 
ENDROOT
BRANCH   1  11
HETATM   11  C   UNL     1      41.318  -7.342  17.336  1.00  0.00     0.257 C 
HETATM   12  N   UNL     1      40.628  -8.278  18.085  1.00  0.00    -0.323 N 
HETATM   13  H   UNL     1      39.938  -8.841  17.600  1.00  0.00     0.169 HD
HETATM   14  O   UNL     1      42.192  -6.582  17.732  1.00  0.00    -0.267 OA
BRANCH  12  15
HETATM   15  C   UNL     1      40.772  -8.536  19.465  1.00  0.00     0.035 A 
HETATM   16  C   UNL     1      41.901  -9.141  20.027  1.00  0.00     0.044 A 
HETATM   17  C   UNL     1      41.969  -9.378  21.408  1.00  0.00     0.011 A 
HETATM   18  C   UNL     1      40.908  -8.983  22.231  1.00  0.00     0.015 A 
HETATM   19  C   UNL     1      39.781  -8.380  21.678  1.00  0.00     0.003 A 
HETATM   20  C   UNL     1      39.709  -8.168  20.300  1.00  0.00     0.029 A 
BRANCH  17  21
HETATM   21  C   UNL     1      43.143 -10.054  22.037  1.00  0.00     0.155 C 
HETATM   22  C   UNL     1      43.585 -11.395  21.509  1.00  0.00     0.096 C 
HETATM   23  O   UNL     1      43.725  -9.517  22.977  1.00  0.00    -0.293 OA
ENDBRANCH  17  21
ENDBRANCH  12  15
ENDBRANCH   1  11
BRANCH   9  24
HETATM   24  C   UNL     1      42.449  -8.876  12.752  1.00  0.00    -0.007 A 
HETATM   25  C   UNL     1      43.218  -8.162  11.814  1.00  0.00     0.016 A 
HETATM   26  C   UNL     1      44.099  -8.808  10.938  1.00  0.00     0.037 A 
HETATM   27  C   UNL     1      44.251 -10.190  10.981  1.00  0.00     0.068 A 
HETATM   28  C   UNL     1      43.473 -10.928  11.868  1.00  0.00     0.037 A 
HETATM   29  C   UNL     1      42.583 -10.278  12.738  1.00  0.00     0.016 A 
BRANCH  27  30
HETATM   30  O   UNL     1      45.163 -10.706  10.104  1.00  0.00    -0.356 OA
HETATM   31  C   UNL     1      45.556  -9.851   9.036  1.00  0.00     0.210 C 
ENDBRANCH  27  30
ENDBRANCH   9  24
TORSDOF 5
ENDMDL
