MODEL 1
REMARK VINA RESULT:      -8.3      0.000      0.000
REMARK  2 active torsions:
REMARK  status: ('A' for Active; 'I' for Inactive)
REMARK       I    between atoms: C_2  and  N_3 
REMARK    1  A    between atoms: N_3  and  C_4 
REMARK    2  A    between atoms: C_15  and  N_16 
REMARK       I    between atoms: N_16  and  C_17 
ROOT
HETATM    1  C   UNL     1      43.138 -16.945   2.606  1.00  0.00     0.036 A 
HETATM    2  C   UNL     1      43.198 -16.391   3.890  1.00  0.00     0.062 A 
HETATM    3  C   UNL     1      43.172 -15.015   4.102  1.00  0.00     0.070 A 
HETATM    4  C   UNL     1      43.083 -14.166   2.985  1.00  0.00    -0.006 A 
HETATM    5  C   UNL     1      43.023 -14.705   1.692  1.00  0.00     0.016 A 
HETATM    6  C   UNL     1      43.049 -16.087   1.507  1.00  0.00     0.030 A 
HETATM    7  N   UNL     1      43.230 -14.534   5.358  1.00  0.00    -0.247 NA
HETATM    8  C   UNL     1      43.204 -13.207   5.571  1.00  0.00     0.070 A 
HETATM    9  C   UNL     1      43.117 -12.285   4.513  1.00  0.00    -0.006 A 
HETATM   10  C   UNL     1      43.057 -12.786   3.209  1.00  0.00     0.027 A 
HETATM   11  C   UNL     1      43.262 -12.717   6.873  1.00  0.00     0.062 A 
HETATM   12  C   UNL     1      43.237 -11.347   7.153  1.00  0.00     0.036 A 
HETATM   13  C   UNL     1      43.152 -10.445   6.090  1.00  0.00     0.030 A 
HETATM   14  C   UNL     1      43.092 -10.908   4.776  1.00  0.00     0.016 A 
ENDROOT
BRANCH   1  15
HETATM   15  N   UNL     1      43.156 -18.330   2.336  1.00  0.00    -0.327 N 
HETATM   16  C   UNL     1      43.916 -19.303   2.961  1.00  0.00     0.218 C 
HETATM   17  C   UNL     1      43.659 -20.682   2.405  1.00  0.00     0.117 C 
HETATM   18  O   UNL     1      44.744 -19.134   3.848  1.00  0.00    -0.274 OA
HETATM   19  H   UNL     1      42.546 -18.642   1.591  1.00  0.00     0.169 HD
ENDBRANCH   1  15
BRANCH  12  20
HETATM   20  N   UNL     1      43.294 -10.798   8.453  1.00  0.00    -0.327 N 
HETATM   21  C   UNL     1      44.418 -10.583   9.228  1.00  0.00     0.218 C 
HETATM   22  C   UNL     1      44.100  -9.978  10.575  1.00  0.00     0.117 C 
HETATM   23  O   UNL     1      45.579 -10.836   8.927  1.00  0.00    -0.274 OA
HETATM   24  H   UNL     1      42.405 -10.536   8.859  1.00  0.00     0.169 HD
ENDBRANCH  12  20
TORSDOF 2
ENDMDL
MODEL 2
REMARK VINA RESULT:      -7.9      2.397      2.477
REMARK  2 active torsions:
REMARK  status: ('A' for Active; 'I' for Inactive)
REMARK       I    between atoms: C_2  and  N_3 
REMARK    1  A    between atoms: N_3  and  C_4 
REMARK    2  A    between atoms: C_15  and  N_16 
REMARK       I    between atoms: N_16  and  C_17 
ROOT
HETATM    1  C   UNL     1      42.942 -16.796   2.596  1.00  0.00     0.036 A 
HETATM    2  C   UNL     1      42.410 -16.147   3.716  1.00  0.00     0.062 A 
HETATM    3  C   UNL     1      42.395 -14.760   3.827  1.00  0.00     0.070 A 
HETATM    4  C   UNL     1      42.935 -13.997   2.777  1.00  0.00    -0.006 A 
HETATM    5  C   UNL     1      43.473 -14.632   1.647  1.00  0.00     0.016 A 
HETATM    6  C   UNL     1      43.473 -16.023   1.560  1.00  0.00     0.030 A 
HETATM    7  N   UNL     1      41.870 -14.186   4.925  1.00  0.00    -0.247 NA
HETATM    8  C   UNL     1      41.850 -12.846   5.039  1.00  0.00     0.070 A 
HETATM    9  C   UNL     1      42.369 -12.006   4.038  1.00  0.00    -0.006 A 
HETATM   10  C   UNL     1      42.915 -12.604   2.898  1.00  0.00     0.027 A 
HETATM   11  C   UNL     1      41.303 -12.260   6.177  1.00  0.00     0.062 A 
HETATM   12  C   UNL     1      41.256 -10.872   6.348  1.00  0.00     0.036 A 
HETATM   13  C   UNL     1      41.776 -10.052   5.344  1.00  0.00     0.030 A 
HETATM   14  C   UNL     1      42.330 -10.613   4.194  1.00  0.00     0.016 A 
ENDROOT
BRANCH   1  15
HETATM   15  N   UNL     1      42.976 -18.197   2.430  1.00  0.00    -0.327 N 
HETATM   16  C   UNL     1      43.810 -19.102   3.063  1.00  0.00     0.218 C 
HETATM   17  C   UNL     1      43.549 -20.525   2.635  1.00  0.00     0.117 C 
HETATM   18  O   UNL     1      44.700 -18.848   3.865  1.00  0.00    -0.274 OA
HETATM   19  H   UNL     1      42.319 -18.579   1.762  1.00  0.00     0.169 HD
ENDBRANCH   1  15
BRANCH  12  20
HETATM   20  N   UNL     1      40.712 -10.227   7.481  1.00  0.00    -0.327 N 
HETATM   21  C   UNL     1      39.402 -10.257   7.920  1.00  0.00     0.218 C 
HETATM   22  C   UNL     1      39.179  -9.442   9.172  1.00  0.00     0.117 C 
HETATM   23  O   UNL     1      38.465 -10.851   7.400  1.00  0.00    -0.274 OA
HETATM   24  H   UNL     1      41.362  -9.678   8.027  1.00  0.00     0.169 HD
ENDBRANCH  12  20
TORSDOF 2
ENDMDL
MODEL 3
REMARK VINA RESULT:      -7.7      3.593      7.930
REMARK  2 active torsions:
REMARK  status: ('A' for Active; 'I' for Inactive)
REMARK       I    between atoms: C_2  and  N_3 
REMARK    1  A    between atoms: N_3  and  C_4 
REMARK    2  A    between atoms: C_15  and  N_16 
REMARK       I    between atoms: N_16  and  C_17 
ROOT
HETATM    1  C   UNL     1      43.619 -12.843   6.513  1.00  0.00     0.036 A 
HETATM    2  C   UNL     1      42.874 -12.424   5.405  1.00  0.00     0.062 A 
HETATM    3  C   UNL     1      42.331 -13.328   4.496  1.00  0.00     0.070 A 
HETATM    4  C   UNL     1      42.546 -14.702   4.707  1.00  0.00    -0.006 A 
HETATM    5  C   UNL     1      43.291 -15.138   5.813  1.00  0.00     0.016 A 
HETATM    6  C   UNL     1      43.822 -14.211   6.710  1.00  0.00     0.030 A 
HETATM    7  N   UNL     1      41.621 -12.873   3.448  1.00  0.00    -0.247 NA
HETATM    8  C   UNL     1      41.092 -13.740   2.567  1.00  0.00     0.070 A 
HETATM    9  C   UNL     1      41.258 -15.130   2.700  1.00  0.00    -0.006 A 
HETATM   10  C   UNL     1      41.996 -15.602   3.789  1.00  0.00     0.027 A 
HETATM   11  C   UNL     1      40.357 -13.261   1.486  1.00  0.00     0.062 A 
HETATM   12  C   UNL     1      39.784 -14.117   0.540  1.00  0.00     0.036 A 
HETATM   13  C   UNL     1      39.958 -15.495   0.686  1.00  0.00     0.030 A 
HETATM   14  C   UNL     1      40.690 -16.002   1.759  1.00  0.00     0.016 A 
ENDROOT
BRANCH   1  15
HETATM   15  N   UNL     1      44.185 -11.970   7.467  1.00  0.00    -0.327 N 
HETATM   16  C   UNL     1      45.359 -11.246   7.357  1.00  0.00     0.218 C 
HETATM   17  C   UNL     1      45.640 -10.411   8.582  1.00  0.00     0.117 C 
HETATM   18  O   UNL     1      46.145 -11.255   6.417  1.00  0.00    -0.274 OA
HETATM   19  H   UNL     1      43.674 -11.873   8.335  1.00  0.00     0.169 HD
ENDBRANCH   1  15
BRANCH  12  20
HETATM   20  N   UNL     1      39.029 -13.685  -0.573  1.00  0.00    -0.327 N 
HETATM   21  C   UNL     1      39.426 -13.651  -1.898  1.00  0.00     0.218 C 
HETATM   22  C   UNL     1      38.354 -13.123  -2.821  1.00  0.00     0.117 C 
HETATM   23  O   UNL     1      40.514 -13.989  -2.349  1.00  0.00    -0.274 OA
HETATM   24  H   UNL     1      38.093 -13.361  -0.371  1.00  0.00     0.169 HD
ENDBRANCH  12  20
TORSDOF 2
ENDMDL
MODEL 4
REMARK VINA RESULT:      -7.4     15.866     17.621
REMARK  2 active torsions:
REMARK  status: ('A' for Active; 'I' for Inactive)
REMARK       I    between atoms: C_2  and  N_3 
REMARK    1  A    between atoms: N_3  and  C_4 
REMARK    2  A    between atoms: C_15  and  N_16 
REMARK       I    between atoms: N_16  and  C_17 
ROOT
HETATM    1  C   UNL     1      45.411 -29.838  -4.337  1.00  0.00     0.036 A 
HETATM    2  C   UNL     1      46.187 -30.439  -3.340  1.00  0.00     0.062 A 
HETATM    3  C   UNL     1      46.409 -29.828  -2.109  1.00  0.00     0.070 A 
HETATM    4  C   UNL     1      45.831 -28.568  -1.872  1.00  0.00    -0.006 A 
HETATM    5  C   UNL     1      45.051 -27.953  -2.862  1.00  0.00     0.016 A 
HETATM    6  C   UNL     1      44.842 -28.587  -4.086  1.00  0.00     0.030 A 
HETATM    7  N   UNL     1      47.162 -30.450  -1.183  1.00  0.00    -0.247 NA
HETATM    8  C   UNL     1      47.380 -29.867   0.008  1.00  0.00     0.070 A 
HETATM    9  C   UNL     1      46.842 -28.608   0.330  1.00  0.00    -0.006 A 
HETATM   10  C   UNL     1      46.060 -27.963  -0.633  1.00  0.00     0.027 A 
HETATM   11  C   UNL     1      48.159 -30.518   0.962  1.00  0.00     0.062 A 
HETATM   12  C   UNL     1      48.416 -29.959   2.217  1.00  0.00     0.036 A 
HETATM   13  C   UNL     1      47.875 -28.707   2.521  1.00  0.00     0.030 A 
HETATM   14  C   UNL     1      47.092 -28.033   1.585  1.00  0.00     0.016 A 
ENDROOT
BRANCH   1  15
HETATM   15  N   UNL     1      45.150 -30.417  -5.599  1.00  0.00    -0.327 N 
HETATM   16  C   UNL     1      44.441 -31.574  -5.866  1.00  0.00     0.218 C 
HETATM   17  C   UNL     1      44.364 -31.876  -7.342  1.00  0.00     0.117 C 
HETATM   18  O   UNL     1      43.934 -32.333  -5.049  1.00  0.00    -0.274 OA
HETATM   19  H   UNL     1      45.537 -29.929  -6.396  1.00  0.00     0.169 HD
ENDBRANCH   1  15
BRANCH  12  20
HETATM   20  N   UNL     1      49.198 -30.575   3.219  1.00  0.00    -0.327 N 
HETATM   21  C   UNL     1      50.560 -30.451   3.420  1.00  0.00     0.218 C 
HETATM   22  C   UNL     1      51.060 -31.261   4.592  1.00  0.00     0.117 C 
HETATM   23  O   UNL     1      51.344 -29.782   2.757  1.00  0.00    -0.274 OA
HETATM   24  H   UNL     1      48.697 -31.177   3.859  1.00  0.00     0.169 HD
ENDBRANCH  12  20
TORSDOF 2
ENDMDL
MODEL 5
REMARK VINA RESULT:      -7.3     22.519     24.625
REMARK  2 active torsions:
REMARK  status: ('A' for Active; 'I' for Inactive)
REMARK       I    between atoms: C_2  and  N_3 
REMARK    1  A    between atoms: N_3  and  C_4 
REMARK    2  A    between atoms: C_15  and  N_16 
REMARK       I    between atoms: N_16  and  C_17 
ROOT
HETATM    1  C   UNL     1      33.744 -30.262  18.495  1.00  0.00     0.036 A 
HETATM    2  C   UNL     1      33.920 -31.170  17.445  1.00  0.00     0.062 A 
HETATM    3  C   UNL     1      32.900 -31.463  16.544  1.00  0.00     0.070 A 
HETATM    4  C   UNL     1      31.660 -30.819  16.703  1.00  0.00    -0.006 A 
HETATM    5  C   UNL     1      31.468 -29.906  17.750  1.00  0.00     0.016 A 
HETATM    6  C   UNL     1      32.507 -29.630  18.638  1.00  0.00     0.030 A 
HETATM    7  N   UNL     1      33.122 -32.343  15.551  1.00  0.00    -0.247 NA
HETATM    8  C   UNL     1      32.142 -32.629  14.675  1.00  0.00     0.070 A 
HETATM    9  C   UNL     1      30.871 -32.034  14.760  1.00  0.00    -0.006 A 
HETATM   10  C   UNL     1      30.642 -31.119  15.792  1.00  0.00     0.027 A 
HETATM   11  C   UNL     1      32.380 -33.540  13.649  1.00  0.00     0.062 A 
HETATM   12  C   UNL     1      31.398 -33.874  12.710  1.00  0.00     0.036 A 
HETATM   13  C   UNL     1      30.140 -33.274  12.809  1.00  0.00     0.030 A 
HETATM   14  C   UNL     1      29.876 -32.358  13.827  1.00  0.00     0.016 A 
ENDROOT
BRANCH   1  15
HETATM   15  N   UNL     1      34.746 -29.926  19.431  1.00  0.00    -0.327 N 
HETATM   16  C   UNL     1      35.959 -29.309  19.185  1.00  0.00     0.218 C 
HETATM   17  C   UNL     1      36.769 -29.105  20.442  1.00  0.00     0.117 C 
HETATM   18  O   UNL     1      36.405 -28.968  18.096  1.00  0.00    -0.274 OA
HETATM   19  H   UNL     1      34.553 -30.176  20.393  1.00  0.00     0.169 HD
ENDBRANCH   1  15
BRANCH  12  20
HETATM   20  N   UNL     1      31.586 -34.790  11.652  1.00  0.00    -0.327 N 
HETATM   21  C   UNL     1      30.859 -34.883  10.479  1.00  0.00     0.218 C 
HETATM   22  C   UNL     1      31.340 -35.989   9.572  1.00  0.00     0.117 C 
HETATM   23  O   UNL     1      29.909 -34.184  10.145  1.00  0.00    -0.274 OA
HETATM   24  H   UNL     1      32.339 -35.453  11.773  1.00  0.00     0.169 HD
ENDBRANCH  12  20
TORSDOF 2
ENDMDL
MODEL 6
REMARK VINA RESULT:      -7.3     22.518     23.511
REMARK  2 active torsions:
REMARK  status: ('A' for Active; 'I' for Inactive)
REMARK       I    between atoms: C_2  and  N_3 
REMARK    1  A    between atoms: N_3  and  C_4 
REMARK    2  A    between atoms: C_15  and  N_16 
REMARK       I    between atoms: N_16  and  C_17 
ROOT
HETATM    1  C   UNL     1      31.329 -33.848  12.764  1.00  0.00     0.036 A 
HETATM    2  C   UNL     1      32.323 -33.507  13.688  1.00  0.00     0.062 A 
HETATM    3  C   UNL     1      32.097 -32.590  14.711  1.00  0.00     0.070 A 
HETATM    4  C   UNL     1      30.827 -31.994  14.808  1.00  0.00    -0.006 A 
HETATM    5  C   UNL     1      29.820 -32.325  13.890  1.00  0.00     0.016 A 
HETATM    6  C   UNL     1      30.072 -33.248  12.875  1.00  0.00     0.030 A 
HETATM    7  N   UNL     1      33.087 -32.299  15.575  1.00  0.00    -0.247 NA
HETATM    8  C   UNL     1      32.875 -31.416  16.566  1.00  0.00     0.070 A 
HETATM    9  C   UNL     1      31.637 -30.772  16.738  1.00  0.00    -0.006 A 
HETATM   10  C   UNL     1      30.609 -31.076  15.839  1.00  0.00     0.027 A 
HETATM   11  C   UNL     1      33.904 -31.121  17.457  1.00  0.00     0.062 A 
HETATM   12  C   UNL     1      33.739 -30.212  18.507  1.00  0.00     0.036 A 
HETATM   13  C   UNL     1      32.503 -29.580  18.663  1.00  0.00     0.030 A 
HETATM   14  C   UNL     1      31.456 -29.857  17.785  1.00  0.00     0.016 A 
ENDROOT
BRANCH   1  15
HETATM   15  N   UNL     1      31.505 -34.774  11.713  1.00  0.00    -0.327 N 
HETATM   16  C   UNL     1      30.824 -34.824  10.510  1.00  0.00     0.218 C 
HETATM   17  C   UNL     1      31.291 -35.957   9.629  1.00  0.00     0.117 C 
HETATM   18  O   UNL     1      29.915 -34.088  10.146  1.00  0.00    -0.274 OA
HETATM   19  H   UNL     1      32.204 -35.489  11.867  1.00  0.00     0.169 HD
ENDBRANCH   1  15
BRANCH  12  20
HETATM   20  N   UNL     1      34.747 -29.877  19.438  1.00  0.00    -0.327 N 
HETATM   21  C   UNL     1      35.992 -29.336  19.173  1.00  0.00     0.218 C 
HETATM   22  C   UNL     1      36.815 -29.110  20.419  1.00  0.00     0.117 C 
HETATM   23  O   UNL     1      36.451 -29.049  18.074  1.00  0.00    -0.274 OA
HETATM   24  H   UNL     1      34.528 -30.060  20.408  1.00  0.00     0.169 HD
ENDBRANCH  12  20
TORSDOF 2
ENDMDL
MODEL 7
REMARK VINA RESULT:      -7.3      4.365      6.703
REMARK  2 active torsions:
REMARK  status: ('A' for Active; 'I' for Inactive)
REMARK       I    between atoms: C_2  and  N_3 
REMARK    1  A    between atoms: N_3  and  C_4 
REMARK    2  A    between atoms: C_15  and  N_16 
REMARK       I    between atoms: N_16  and  C_17 
ROOT
HETATM    1  C   UNL     1      43.598 -17.919   4.038  1.00  0.00     0.036 A 
HETATM    2  C   UNL     1      42.714 -17.621   2.994  1.00  0.00     0.062 A 
HETATM    3  C   UNL     1      42.205 -16.340   2.802  1.00  0.00     0.070 A 
HETATM    4  C   UNL     1      42.598 -15.322   3.689  1.00  0.00    -0.006 A 
HETATM    5  C   UNL     1      43.483 -15.604   4.739  1.00  0.00     0.016 A 
HETATM    6  C   UNL     1      43.980 -16.896   4.909  1.00  0.00     0.030 A 
HETATM    7  N   UNL     1      41.359 -16.106   1.781  1.00  0.00    -0.247 NA
HETATM    8  C   UNL     1      40.865 -14.871   1.587  1.00  0.00     0.070 A 
HETATM    9  C   UNL     1      41.203 -13.794   2.426  1.00  0.00    -0.006 A 
HETATM   10  C   UNL     1      42.082 -14.038   3.486  1.00  0.00     0.027 A 
HETATM   11  C   UNL     1      39.992 -14.636   0.528  1.00  0.00     0.062 A 
HETATM   12  C   UNL     1      39.449 -13.372   0.279  1.00  0.00     0.036 A 
HETATM   13  C   UNL     1      39.794 -12.313   1.123  1.00  0.00     0.030 A 
HETATM   14  C   UNL     1      40.667 -12.520   2.191  1.00  0.00     0.016 A 
ENDROOT
BRANCH   1  15
HETATM   15  N   UNL     1      44.147 -19.198   4.274  1.00  0.00    -0.327 N 
HETATM   16  C   UNL     1      43.949 -20.011   5.375  1.00  0.00     0.218 C 
HETATM   17  C   UNL     1      44.699 -21.316   5.271  1.00  0.00     0.117 C 
HETATM   18  O   UNL     1      43.281 -19.755   6.370  1.00  0.00    -0.274 OA
HETATM   19  H   UNL     1      44.766 -19.552   3.555  1.00  0.00     0.169 HD
ENDBRANCH   1  15
BRANCH  12  20
HETATM   20  N   UNL     1      38.561 -13.080  -0.779  1.00  0.00    -0.327 N 
HETATM   21  C   UNL     1      38.768 -13.278  -2.132  1.00  0.00     0.218 C 
HETATM   22  C   UNL     1      37.595 -12.844  -2.978  1.00  0.00     0.117 C 
HETATM   23  O   UNL     1      39.770 -13.743  -2.663  1.00  0.00    -0.274 OA
HETATM   24  H   UNL     1      37.673 -12.677  -0.510  1.00  0.00     0.169 HD
ENDBRANCH  12  20
TORSDOF 2
ENDMDL
MODEL 8
REMARK VINA RESULT:      -7.1      3.863      5.332
REMARK  2 active torsions:
REMARK  status: ('A' for Active; 'I' for Inactive)
REMARK       I    between atoms: C_2  and  N_3 
REMARK    1  A    between atoms: N_3  and  C_4 
REMARK    2  A    between atoms: C_15  and  N_16 
REMARK       I    between atoms: N_16  and  C_17 
ROOT
HETATM    1  C   UNL     1      43.318 -17.232   5.748  1.00  0.00     0.036 A 
HETATM    2  C   UNL     1      42.254 -16.700   5.012  1.00  0.00     0.062 A 
HETATM    3  C   UNL     1      41.999 -15.332   4.966  1.00  0.00     0.070 A 
HETATM    4  C   UNL     1      42.843 -14.468   5.686  1.00  0.00    -0.006 A 
HETATM    5  C   UNL     1      43.915 -14.986   6.429  1.00  0.00     0.016 A 
HETATM    6  C   UNL     1      44.149 -16.360   6.456  1.00  0.00     0.030 A 
HETATM    7  N   UNL     1      40.962 -14.872   4.242  1.00  0.00    -0.247 NA
HETATM    8  C   UNL     1      40.711 -13.552   4.191  1.00  0.00     0.070 A 
HETATM    9  C   UNL     1      41.503 -12.617   4.881  1.00  0.00    -0.006 A 
HETATM   10  C   UNL     1      42.580 -13.096   5.633  1.00  0.00     0.027 A 
HETATM   11  C   UNL     1      39.638 -13.083   3.438  1.00  0.00     0.062 A 
HETATM   12  C   UNL     1      39.331 -11.722   3.349  1.00  0.00     0.036 A 
HETATM   13  C   UNL     1      40.128 -10.806   4.040  1.00  0.00     0.030 A 
HETATM   14  C   UNL     1      41.208 -11.248   4.802  1.00  0.00     0.016 A 
ENDROOT
BRANCH   1  15
HETATM   15  N   UNL     1      43.624 -18.608   5.823  1.00  0.00    -0.327 N 
HETATM   16  C   UNL     1      44.150 -19.411   4.827  1.00  0.00     0.218 C 
HETATM   17  C   UNL     1      44.349 -20.837   5.280  1.00  0.00     0.117 C 
HETATM   18  O   UNL     1      44.418 -19.081   3.678  1.00  0.00    -0.274 OA
HETATM   19  H   UNL     1      43.424 -19.057   6.708  1.00  0.00     0.169 HD
ENDBRANCH   1  15
BRANCH  12  20
HETATM   20  N   UNL     1      38.257 -11.194   2.600  1.00  0.00    -0.327 N 
HETATM   21  C   UNL     1      38.061 -11.276   1.233  1.00  0.00     0.218 C 
HETATM   22  C   UNL     1      36.797 -10.589   0.775  1.00  0.00     0.117 C 
HETATM   23  O   UNL     1      38.794 -11.823   0.417  1.00  0.00    -0.274 OA
HETATM   24  H   UNL     1      37.554 -10.697   3.130  1.00  0.00     0.169 HD
ENDBRANCH  12  20
TORSDOF 2
ENDMDL
MODEL 9
REMARK VINA RESULT:      -7.1      3.345      4.934
REMARK  2 active torsions:
REMARK  status: ('A' for Active; 'I' for Inactive)
REMARK       I    between atoms: C_2  and  N_3 
REMARK    1  A    between atoms: N_3  and  C_4 
REMARK    2  A    between atoms: C_15  and  N_16 
REMARK       I    between atoms: N_16  and  C_17 
ROOT
HETATM    1  C   UNL     1      43.289 -17.234   6.026  1.00  0.00     0.036 A 
HETATM    2  C   UNL     1      43.089 -16.435   4.894  1.00  0.00     0.062 A 
HETATM    3  C   UNL     1      42.912 -15.058   4.985  1.00  0.00     0.070 A 
HETATM    4  C   UNL     1      42.937 -14.461   6.258  1.00  0.00    -0.006 A 
HETATM    5  C   UNL     1      43.136 -15.248   7.402  1.00  0.00     0.016 A 
HETATM    6  C   UNL     1      43.312 -16.626   7.283  1.00  0.00     0.030 A 
HETATM    7  N   UNL     1      42.725 -14.335   3.865  1.00  0.00    -0.247 NA
HETATM    8  C   UNL     1      42.556 -13.004   3.945  1.00  0.00     0.070 A 
HETATM    9  C   UNL     1      42.565 -12.325   5.177  1.00  0.00    -0.006 A 
HETATM   10  C   UNL     1      42.759 -13.077   6.339  1.00  0.00     0.027 A 
HETATM   11  C   UNL     1      42.365 -12.263   2.782  1.00  0.00     0.062 A 
HETATM   12  C   UNL     1      42.185 -10.876   2.805  1.00  0.00     0.036 A 
HETATM   13  C   UNL     1      42.195 -10.217   4.037  1.00  0.00     0.030 A 
HETATM   14  C   UNL     1      42.385 -10.935   5.218  1.00  0.00     0.016 A 
ENDROOT
BRANCH   1  15
HETATM   15  N   UNL     1      43.479 -18.632   5.989  1.00  0.00    -0.327 N 
HETATM   16  C   UNL     1      44.138 -19.369   5.021  1.00  0.00     0.218 C 
HETATM   17  C   UNL     1      44.145 -20.847   5.326  1.00  0.00     0.117 C 
HETATM   18  O   UNL     1      44.653 -18.944   3.994  1.00  0.00    -0.274 OA
HETATM   19  H   UNL     1      43.076 -19.153   6.757  1.00  0.00     0.169 HD
ENDBRANCH   1  15
BRANCH  12  20
HETATM   20  N   UNL     1      41.988 -10.078   1.657  1.00  0.00    -0.327 N 
HETATM   21  C   UNL     1      40.893 -10.073   0.813  1.00  0.00     0.218 C 
HETATM   22  C   UNL     1      41.028  -9.086  -0.323  1.00  0.00     0.117 C 
HETATM   23  O   UNL     1      39.888 -10.769   0.905  1.00  0.00    -0.274 OA
HETATM   24  H   UNL     1      42.739  -9.441   1.431  1.00  0.00     0.169 HD
ENDBRANCH  12  20
TORSDOF 2
ENDMDL
MODEL 10
REMARK VINA RESULT:      -7.0      3.582      9.828
REMARK  2 active torsions:
REMARK  status: ('A' for Active; 'I' for Inactive)
REMARK       I    between atoms: C_2  and  N_3 
REMARK    1  A    between atoms: N_3  and  C_4 
REMARK    2  A    between atoms: C_15  and  N_16 
REMARK       I    between atoms: N_16  and  C_17 
ROOT
HETATM    1  C   UNL     1      41.915  -7.791  11.747  1.00  0.00     0.036 A 
HETATM    2  C   UNL     1      41.703  -8.274  10.451  1.00  0.00     0.062 A 
HETATM    3  C   UNL     1      42.682  -8.982   9.758  1.00  0.00     0.070 A 
HETATM    4  C   UNL     1      43.916  -9.212  10.391  1.00  0.00    -0.006 A 
HETATM    5  C   UNL     1      44.144  -8.734  11.689  1.00  0.00     0.016 A 
HETATM    6  C   UNL     1      43.146  -8.029  12.362  1.00  0.00     0.030 A 
HETATM    7  N   UNL     1      42.427  -9.427   8.514  1.00  0.00    -0.247 NA
HETATM    8  C   UNL     1      43.366 -10.113   7.840  1.00  0.00     0.070 A 
HETATM    9  C   UNL     1      44.629 -10.388   8.395  1.00  0.00    -0.006 A 
HETATM   10  C   UNL     1      44.892  -9.925   9.688  1.00  0.00     0.027 A 
HETATM   11  C   UNL     1      43.094 -10.571   6.553  1.00  0.00     0.062 A 
HETATM   12  C   UNL     1      44.033 -11.291   5.807  1.00  0.00     0.036 A 
HETATM   13  C   UNL     1      45.283 -11.554   6.373  1.00  0.00     0.030 A 
HETATM   14  C   UNL     1      45.582 -11.107   7.659  1.00  0.00     0.016 A 
ENDROOT
BRANCH   1  15
HETATM   15  N   UNL     1      40.956  -7.073  12.494  1.00  0.00    -0.327 N 
HETATM   16  C   UNL     1      39.785  -7.557  13.051  1.00  0.00     0.218 C 
HETATM   17  C   UNL     1      39.013  -6.490  13.789  1.00  0.00     0.117 C 
HETATM   18  O   UNL     1      39.347  -8.698  12.970  1.00  0.00    -0.274 OA
HETATM   19  H   UNL     1      41.146  -6.088  12.627  1.00  0.00     0.169 HD
ENDBRANCH   1  15
BRANCH  12  20
HETATM   20  N   UNL     1      43.809 -11.778   4.501  1.00  0.00    -0.327 N 
HETATM   21  C   UNL     1      43.110 -12.913   4.134  1.00  0.00     0.218 C 
HETATM   22  C   UNL     1      43.076 -13.128   2.639  1.00  0.00     0.117 C 
HETATM   23  O   UNL     1      42.557 -13.711   4.881  1.00  0.00    -0.274 OA
HETATM   24  H   UNL     1      44.212 -11.230   3.752  1.00  0.00     0.169 HD
ENDBRANCH  12  20
TORSDOF 2
ENDMDL
