MODEL 1
REMARK VINA RESULT:      -7.4      0.000      0.000
REMARK  10 active torsions:
REMARK  status: ('A' for Active; 'I' for Inactive)
REMARK    1  A    between atoms: O_2  and  C_3 
REMARK    2  A    between atoms: C_4  and  C_5 
REMARK       I    between atoms: C_5  and  N_6 
REMARK    3  A    between atoms: N_6  and  C_7 
REMARK    4  A    between atoms: C_7  and  N_8 
REMARK    5  A    between atoms: N_8  and  C_9 
REMARK    6  A    between atoms: C_10  and  C_11 
REMARK       I    between atoms: C_11  and  N_12 
REMARK    7  A    between atoms: N_12  and  C_13 
REMARK    8  A    between atoms: C_13  and  C_14 
REMARK    9  A    between atoms: C_14  and  C_15 
REMARK   10  A    between atoms: C_15  and  O_16 
ROOT
HETATM    1  N   UNL     1      41.789 -15.845   2.851  1.00  0.00    -0.332 N 
HETATM    2  H   UNL     1      40.938 -15.701   3.389  1.00  0.00     0.168 HD
ENDROOT
BRANCH   1   3
HETATM    3  C   UNL     1      42.124 -14.800   2.063  1.00  0.00     0.179 C 
HETATM    4  S   UNL     1      43.183 -13.648   2.654  1.00  0.00    -0.040 SA
BRANCH   3   5
HETATM    5  N   UNL     1      41.573 -14.611   0.834  1.00  0.00    -0.299 N 
HETATM    6  C   UNL     1      40.300 -15.015   0.441  1.00  0.00     0.260 C 
HETATM    7  O   UNL     1      39.670 -15.943   0.942  1.00  0.00    -0.267 OA
HETATM    8  H   UNL     1      41.848 -13.718   0.437  1.00  0.00     0.171 HD
BRANCH   6   9
HETATM    9  C   UNL     1      39.684 -14.257  -0.703  1.00  0.00     0.065 A 
HETATM   10  C   UNL     1      39.532 -12.853  -0.728  1.00  0.00     0.084 A 
HETATM   11  C   UNL     1      38.910 -12.251  -1.830  1.00  0.00     0.038 A 
HETATM   12  C   UNL     1      38.434 -13.026  -2.891  1.00  0.00     0.003 A 
HETATM   13  C   UNL     1      38.576 -14.409  -2.865  1.00  0.00     0.001 A 
HETATM   14  C   UNL     1      39.195 -15.021  -1.776  1.00  0.00     0.020 A 
BRANCH  10  15
HETATM   15  O   UNL     1      40.015 -12.145   0.343  1.00  0.00    -0.355 OA
HETATM   16  C   UNL     1      40.961 -11.111   0.083  1.00  0.00     0.210 C 
ENDBRANCH  10  15
ENDBRANCH   6   9
ENDBRANCH   3   5
ENDBRANCH   1   3
BRANCH   1  17
HETATM   17  C   UNL     1      42.541 -16.984   3.238  1.00  0.00     0.050 A 
HETATM   18  C   UNL     1      43.001 -17.094   4.569  1.00  0.00     0.058 A 
HETATM   19  C   UNL     1      43.879 -18.124   4.935  1.00  0.00     0.019 A 
HETATM   20  C   UNL     1      44.281 -19.068   3.992  1.00  0.00     0.001 A 
HETATM   21  C   UNL     1      43.809 -18.984   2.685  1.00  0.00     0.002 A 
HETATM   22  C   UNL     1      42.948 -17.948   2.307  1.00  0.00     0.030 A 
BRANCH  18  23
HETATM   23  C   UNL     1      42.565 -16.164   5.649  1.00  0.00     0.253 C 
HETATM   24  N   UNL     1      43.576 -15.431   6.238  1.00  0.00    -0.357 N 
HETATM   25  H   UNL     1      44.464 -15.396   5.741  1.00  0.00     0.162 HD
HETATM   26  O   UNL     1      41.383 -16.066   5.953  1.00  0.00    -0.268 OA
BRANCH  24  27
HETATM   27  C   UNL     1      43.307 -14.417   7.236  1.00  0.00     0.125 C 
BRANCH  27  28
HETATM   28  C   UNL     1      43.641 -13.034   6.695  1.00  0.00     0.046 C 
BRANCH  28  29
HETATM   29  C   UNL     1      42.409 -12.338   6.140  1.00  0.00     0.165 C 
BRANCH  29  30
HETATM   30  O   UNL     1      41.245 -13.088   6.466  1.00  0.00    -0.401 OA
HETATM   31  H   UNL     1      40.905 -13.477   5.642  1.00  0.00     0.209 HD
ENDBRANCH  29  30
ENDBRANCH  28  29
ENDBRANCH  27  28
ENDBRANCH  24  27
ENDBRANCH  18  23
ENDBRANCH   1  17
TORSDOF 10
ENDMDL
MODEL 2
REMARK VINA RESULT:      -7.2      2.469      7.685
REMARK  10 active torsions:
REMARK  status: ('A' for Active; 'I' for Inactive)
REMARK    1  A    between atoms: O_2  and  C_3 
REMARK    2  A    between atoms: C_4  and  C_5 
REMARK       I    between atoms: C_5  and  N_6 
REMARK    3  A    between atoms: N_6  and  C_7 
REMARK    4  A    between atoms: C_7  and  N_8 
REMARK    5  A    between atoms: N_8  and  C_9 
REMARK    6  A    between atoms: C_10  and  C_11 
REMARK       I    between atoms: C_11  and  N_12 
REMARK    7  A    between atoms: N_12  and  C_13 
REMARK    8  A    between atoms: C_13  and  C_14 
REMARK    9  A    between atoms: C_14  and  C_15 
REMARK   10  A    between atoms: C_15  and  O_16 
ROOT
HETATM    1  N   UNL     1      41.475 -13.614   3.494  1.00  0.00    -0.332 N 
HETATM    2  H   UNL     1      42.312 -13.354   2.978  1.00  0.00     0.168 HD
ENDROOT
BRANCH   1   3
HETATM    3  C   UNL     1      41.666 -14.611   4.385  1.00  0.00     0.179 C 
HETATM    4  S   UNL     1      41.778 -14.234   6.011  1.00  0.00    -0.040 SA
BRANCH   3   5
HETATM    5  N   UNL     1      41.847 -15.904   4.001  1.00  0.00    -0.299 N 
HETATM    6  C   UNL     1      42.841 -16.367   3.142  1.00  0.00     0.260 C 
HETATM    7  O   UNL     1      43.402 -15.690   2.286  1.00  0.00    -0.267 OA
HETATM    8  H   UNL     1      41.642 -16.548   4.758  1.00  0.00     0.171 HD
BRANCH   6   9
HETATM    9  C   UNL     1      43.217 -17.817   3.281  1.00  0.00     0.065 A 
HETATM   10  C   UNL     1      43.814 -18.371   4.434  1.00  0.00     0.084 A 
HETATM   11  C   UNL     1      44.157 -19.730   4.443  1.00  0.00     0.038 A 
HETATM   12  C   UNL     1      43.925 -20.530   3.321  1.00  0.00     0.003 A 
HETATM   13  C   UNL     1      43.345 -19.986   2.181  1.00  0.00     0.001 A 
HETATM   14  C   UNL     1      42.995 -18.635   2.160  1.00  0.00     0.020 A 
BRANCH  10  15
HETATM   15  O   UNL     1      44.021 -17.536   5.503  1.00  0.00    -0.355 OA
HETATM   16  C   UNL     1      43.425 -17.890   6.748  1.00  0.00     0.210 C 
ENDBRANCH  10  15
ENDBRANCH   6   9
ENDBRANCH   3   5
ENDBRANCH   1   3
BRANCH   1  17
HETATM   17  C   UNL     1      40.388 -12.715   3.339  1.00  0.00     0.050 A 
HETATM   18  C   UNL     1      39.595 -12.778   2.172  1.00  0.00     0.058 A 
HETATM   19  C   UNL     1      38.622 -11.800   1.921  1.00  0.00     0.019 A 
HETATM   20  C   UNL     1      38.410 -10.773   2.838  1.00  0.00     0.001 A 
HETATM   21  C   UNL     1      39.167 -10.721   4.005  1.00  0.00     0.002 A 
HETATM   22  C   UNL     1      40.153 -11.682   4.254  1.00  0.00     0.030 A 
BRANCH  18  23
HETATM   23  C   UNL     1      39.717 -13.880   1.176  1.00  0.00     0.253 C 
HETATM   24  N   UNL     1      39.440 -13.528  -0.129  1.00  0.00    -0.357 N 
HETATM   25  H   UNL     1      39.422 -12.531  -0.339  1.00  0.00     0.162 HD
HETATM   26  O   UNL     1      40.060 -15.004   1.523  1.00  0.00    -0.268 OA
BRANCH  24  27
HETATM   27  C   UNL     1      39.604 -14.458  -1.227  1.00  0.00     0.125 C 
BRANCH  27  28
HETATM   28  C   UNL     1      39.496 -13.734  -2.561  1.00  0.00     0.046 C 
BRANCH  28  29
HETATM   29  C   UNL     1      40.700 -12.840  -2.811  1.00  0.00     0.165 C 
BRANCH  29  30
HETATM   30  O   UNL     1      41.690 -13.559  -3.535  1.00  0.00    -0.401 OA
HETATM   31  H   UNL     1      41.804 -14.422  -3.101  1.00  0.00     0.209 HD
ENDBRANCH  29  30
ENDBRANCH  28  29
ENDBRANCH  27  28
ENDBRANCH  24  27
ENDBRANCH  18  23
ENDBRANCH   1  17
TORSDOF 10
ENDMDL
MODEL 3
REMARK VINA RESULT:      -7.2      3.923      7.410
REMARK  10 active torsions:
REMARK  status: ('A' for Active; 'I' for Inactive)
REMARK    1  A    between atoms: O_2  and  C_3 
REMARK    2  A    between atoms: C_4  and  C_5 
REMARK       I    between atoms: C_5  and  N_6 
REMARK    3  A    between atoms: N_6  and  C_7 
REMARK    4  A    between atoms: C_7  and  N_8 
REMARK    5  A    between atoms: N_8  and  C_9 
REMARK    6  A    between atoms: C_10  and  C_11 
REMARK       I    between atoms: C_11  and  N_12 
REMARK    7  A    between atoms: N_12  and  C_13 
REMARK    8  A    between atoms: C_13  and  C_14 
REMARK    9  A    between atoms: C_14  and  C_15 
REMARK   10  A    between atoms: C_15  and  O_16 
ROOT
HETATM    1  N   UNL     1      42.967 -11.884   7.162  1.00  0.00    -0.332 N 
HETATM    2  H   UNL     1      42.214 -11.992   7.838  1.00  0.00     0.168 HD
ENDROOT
BRANCH   1   3
HETATM    3  C   UNL     1      42.655 -12.312   5.919  1.00  0.00     0.179 C 
HETATM    4  S   UNL     1      41.490 -11.487   5.046  1.00  0.00    -0.040 SA
BRANCH   3   5
HETATM    5  N   UNL     1      43.199 -13.436   5.381  1.00  0.00    -0.299 N 
HETATM    6  C   UNL     1      42.985 -14.739   5.824  1.00  0.00     0.260 C 
HETATM    7  O   UNL     1      42.660 -15.048   6.968  1.00  0.00    -0.267 OA
HETATM    8  H   UNL     1      43.273 -13.366   4.371  1.00  0.00     0.171 HD
BRANCH   6   9
HETATM    9  C   UNL     1      43.198 -15.830   4.812  1.00  0.00     0.065 A 
HETATM   10  C   UNL     1      42.657 -15.814   3.508  1.00  0.00     0.084 A 
HETATM   11  C   UNL     1      42.889 -16.903   2.656  1.00  0.00     0.038 A 
HETATM   12  C   UNL     1      43.637 -18.000   3.090  1.00  0.00     0.003 A 
HETATM   13  C   UNL     1      44.164 -18.023   4.376  1.00  0.00     0.001 A 
HETATM   14  C   UNL     1      43.944 -16.945   5.233  1.00  0.00     0.020 A 
BRANCH  10  15
HETATM   15  O   UNL     1      41.929 -14.712   3.138  1.00  0.00    -0.355 OA
HETATM   16  C   UNL     1      42.293 -14.049   1.931  1.00  0.00     0.210 C 
ENDBRANCH  10  15
ENDBRANCH   6   9
ENDBRANCH   3   5
ENDBRANCH   1   3
BRANCH   1  17
HETATM   17  C   UNL     1      44.052 -11.092   7.617  1.00  0.00     0.050 A 
HETATM   18  C   UNL     1      43.799  -9.971   8.438  1.00  0.00     0.058 A 
HETATM   19  C   UNL     1      44.833  -9.082   8.765  1.00  0.00     0.019 A 
HETATM   20  C   UNL     1      46.128  -9.316   8.307  1.00  0.00     0.001 A 
HETATM   21  C   UNL     1      46.392 -10.435   7.522  1.00  0.00     0.002 A 
HETATM   22  C   UNL     1      45.362 -11.317   7.174  1.00  0.00     0.030 A 
BRANCH  18  23
HETATM   23  C   UNL     1      42.457  -9.688   9.020  1.00  0.00     0.253 C 
HETATM   24  N   UNL     1      42.324  -9.979  10.363  1.00  0.00    -0.357 N 
HETATM   25  H   UNL     1      43.186 -10.117  10.888  1.00  0.00     0.162 HD
HETATM   26  O   UNL     1      41.562  -9.214   8.331  1.00  0.00    -0.268 OA
BRANCH  24  27
HETATM   27  C   UNL     1      41.114  -9.674  11.098  1.00  0.00     0.125 C 
BRANCH  27  28
HETATM   28  C   UNL     1      41.301  -9.966  12.580  1.00  0.00     0.046 C 
BRANCH  28  29
HETATM   29  C   UNL     1      39.967 -10.108  13.294  1.00  0.00     0.165 C 
BRANCH  29  30
HETATM   30  O   UNL     1      39.587 -11.478  13.335  1.00  0.00    -0.401 OA
HETATM   31  H   UNL     1      40.237 -11.948  13.885  1.00  0.00     0.209 HD
ENDBRANCH  29  30
ENDBRANCH  28  29
ENDBRANCH  27  28
ENDBRANCH  24  27
ENDBRANCH  18  23
ENDBRANCH   1  17
TORSDOF 10
ENDMDL
MODEL 4
REMARK VINA RESULT:      -7.2      4.017      7.154
REMARK  10 active torsions:
REMARK  status: ('A' for Active; 'I' for Inactive)
REMARK    1  A    between atoms: O_2  and  C_3 
REMARK    2  A    between atoms: C_4  and  C_5 
REMARK       I    between atoms: C_5  and  N_6 
REMARK    3  A    between atoms: N_6  and  C_7 
REMARK    4  A    between atoms: C_7  and  N_8 
REMARK    5  A    between atoms: N_8  and  C_9 
REMARK    6  A    between atoms: C_10  and  C_11 
REMARK       I    between atoms: C_11  and  N_12 
REMARK    7  A    between atoms: N_12  and  C_13 
REMARK    8  A    between atoms: C_13  and  C_14 
REMARK    9  A    between atoms: C_14  and  C_15 
REMARK   10  A    between atoms: C_15  and  O_16 
ROOT
HETATM    1  N   UNL     1      42.476 -11.533   6.719  1.00  0.00    -0.332 N 
HETATM    2  H   UNL     1      41.781 -11.827   7.401  1.00  0.00     0.168 HD
ENDROOT
BRANCH   1   3
HETATM    3  C   UNL     1      42.009 -11.465   5.453  1.00  0.00     0.179 C 
HETATM    4  S   UNL     1      41.358 -10.024   4.906  1.00  0.00    -0.040 SA
BRANCH   3   5
HETATM    5  N   UNL     1      41.980 -12.548   4.631  1.00  0.00    -0.299 N 
HETATM    6  C   UNL     1      42.989 -12.931   3.750  1.00  0.00     0.260 C 
HETATM    7  O   UNL     1      43.820 -12.171   3.261  1.00  0.00    -0.267 OA
HETATM    8  H   UNL     1      41.516 -13.336   5.071  1.00  0.00     0.171 HD
BRANCH   6   9
HETATM    9  C   UNL     1      43.023 -14.385   3.368  1.00  0.00     0.065 A 
HETATM   10  C   UNL     1      42.881 -15.446   4.288  1.00  0.00     0.084 A 
HETATM   11  C   UNL     1      42.965 -16.768   3.829  1.00  0.00     0.038 A 
HETATM   12  C   UNL     1      43.199 -17.039   2.479  1.00  0.00     0.003 A 
HETATM   13  C   UNL     1      43.347 -15.996   1.571  1.00  0.00     0.001 A 
HETATM   14  C   UNL     1      43.263 -14.676   2.015  1.00  0.00     0.020 A 
BRANCH  10  15
HETATM   15  O   UNL     1      42.657 -15.120   5.602  1.00  0.00    -0.355 OA
HETATM   16  C   UNL     1      41.785 -15.958   6.356  1.00  0.00     0.210 C 
ENDBRANCH  10  15
ENDBRANCH   6   9
ENDBRANCH   3   5
ENDBRANCH   1   3
BRANCH   1  17
HETATM   17  C   UNL     1      43.676 -11.031   7.285  1.00  0.00     0.050 A 
HETATM   18  C   UNL     1      43.610 -10.040   8.289  1.00  0.00     0.058 A 
HETATM   19  C   UNL     1      44.778  -9.413   8.747  1.00  0.00     0.019 A 
HETATM   20  C   UNL     1      46.019  -9.788   8.236  1.00  0.00     0.001 A 
HETATM   21  C   UNL     1      46.095 -10.786   7.267  1.00  0.00     0.002 A 
HETATM   22  C   UNL     1      44.933 -11.402   6.791  1.00  0.00     0.030 A 
BRANCH  18  23
HETATM   23  C   UNL     1      42.329  -9.631   8.931  1.00  0.00     0.253 C 
HETATM   24  N   UNL     1      42.242  -9.882  10.286  1.00  0.00    -0.357 N 
HETATM   25  H   UNL     1      43.116 -10.084  10.769  1.00  0.00     0.162 HD
HETATM   26  O   UNL     1      41.443  -9.095   8.277  1.00  0.00    -0.268 OA
BRANCH  24  27
HETATM   27  C   UNL     1      41.103  -9.460  11.073  1.00  0.00     0.125 C 
BRANCH  27  28
HETATM   28  C   UNL     1      41.122 -10.128  12.440  1.00  0.00     0.046 C 
BRANCH  28  29
HETATM   29  C   UNL     1      39.718 -10.295  13.000  1.00  0.00     0.165 C 
BRANCH  29  30
HETATM   30  O   UNL     1      39.500 -11.655  13.354  1.00  0.00    -0.401 OA
HETATM   31  H   UNL     1      40.335 -12.133  13.214  1.00  0.00     0.209 HD
ENDBRANCH  29  30
ENDBRANCH  28  29
ENDBRANCH  27  28
ENDBRANCH  24  27
ENDBRANCH  18  23
ENDBRANCH   1  17
TORSDOF 10
ENDMDL
MODEL 5
REMARK VINA RESULT:      -6.8      2.185      6.749
REMARK  10 active torsions:
REMARK  status: ('A' for Active; 'I' for Inactive)
REMARK    1  A    between atoms: O_2  and  C_3 
REMARK    2  A    between atoms: C_4  and  C_5 
REMARK       I    between atoms: C_5  and  N_6 
REMARK    3  A    between atoms: N_6  and  C_7 
REMARK    4  A    between atoms: C_7  and  N_8 
REMARK    5  A    between atoms: N_8  and  C_9 
REMARK    6  A    between atoms: C_10  and  C_11 
REMARK       I    between atoms: C_11  and  N_12 
REMARK    7  A    between atoms: N_12  and  C_13 
REMARK    8  A    between atoms: C_13  and  C_14 
REMARK    9  A    between atoms: C_14  and  C_15 
REMARK   10  A    between atoms: C_15  and  O_16 
ROOT
HETATM    1  N   UNL     1      41.871 -14.091   2.142  1.00  0.00    -0.332 N 
HETATM    2  H   UNL     1      42.751 -13.590   2.243  1.00  0.00     0.168 HD
ENDROOT
BRANCH   1   3
HETATM    3  C   UNL     1      41.585 -14.914   3.174  1.00  0.00     0.179 C 
HETATM    4  S   UNL     1      40.986 -14.257   4.591  1.00  0.00    -0.040 SA
BRANCH   3   5
HETATM    5  N   UNL     1      41.838 -16.250   3.129  1.00  0.00    -0.299 N 
HETATM    6  C   UNL     1      42.929 -16.852   2.508  1.00  0.00     0.260 C 
HETATM    7  O   UNL     1      43.562 -16.368   1.574  1.00  0.00    -0.267 OA
HETATM    8  H   UNL     1      41.568 -16.707   3.994  1.00  0.00     0.171 HD
BRANCH   6   9
HETATM    9  C   UNL     1      43.323 -18.209   3.025  1.00  0.00     0.065 A 
HETATM   10  C   UNL     1      43.873 -18.436   4.305  1.00  0.00     0.084 A 
HETATM   11  C   UNL     1      44.239 -19.739   4.672  1.00  0.00     0.038 A 
HETATM   12  C   UNL     1      44.075 -20.802   3.782  1.00  0.00     0.003 A 
HETATM   13  C   UNL     1      43.541 -20.580   2.517  1.00  0.00     0.001 A 
HETATM   14  C   UNL     1      43.170 -19.290   2.140  1.00  0.00     0.020 A 
BRANCH  10  15
HETATM   15  O   UNL     1      44.015 -17.353   5.135  1.00  0.00    -0.355 OA
HETATM   16  C   UNL     1      43.215 -17.310   6.314  1.00  0.00     0.210 C 
ENDBRANCH  10  15
ENDBRANCH   6   9
ENDBRANCH   3   5
ENDBRANCH   1   3
BRANCH   1  17
HETATM   17  C   UNL     1      41.052 -13.623   1.082  1.00  0.00     0.050 A 
HETATM   18  C   UNL     1      40.671 -12.264   1.045  1.00  0.00     0.058 A 
HETATM   19  C   UNL     1      39.733 -11.814   0.105  1.00  0.00     0.019 A 
HETATM   20  C   UNL     1      39.192 -12.702  -0.823  1.00  0.00     0.001 A 
HETATM   21  C   UNL     1      39.585 -14.037  -0.812  1.00  0.00     0.002 A 
HETATM   22  C   UNL     1      40.505 -14.499   0.135  1.00  0.00     0.030 A 
BRANCH  18  23
HETATM   23  C   UNL     1      41.253 -11.242   1.961  1.00  0.00     0.253 C 
HETATM   24  N   UNL     1      40.370 -10.695   2.871  1.00  0.00    -0.357 N 
HETATM   25  H   UNL     1      39.493 -11.193   3.011  1.00  0.00     0.162 HD
HETATM   26  O   UNL     1      42.439 -10.944   1.895  1.00  0.00    -0.268 OA
BRANCH  24  27
HETATM   27  C   UNL     1      40.799  -9.760   3.889  1.00  0.00     0.125 C 
BRANCH  27  28
HETATM   28  C   UNL     1      40.824 -10.431   5.255  1.00  0.00     0.046 C 
BRANCH  28  29
HETATM   29  C   UNL     1      42.236 -10.831   5.655  1.00  0.00     0.165 C 
BRANCH  29  30
HETATM   30  O   UNL     1      43.148 -10.468   4.627  1.00  0.00    -0.401 OA
HETATM   31  H   UNL     1      43.845  -9.922   5.031  1.00  0.00     0.209 HD
ENDBRANCH  29  30
ENDBRANCH  28  29
ENDBRANCH  27  28
ENDBRANCH  24  27
ENDBRANCH  18  23
ENDBRANCH   1  17
TORSDOF 10
ENDMDL
MODEL 6
REMARK VINA RESULT:      -6.8      2.038      3.881
REMARK  10 active torsions:
REMARK  status: ('A' for Active; 'I' for Inactive)
REMARK    1  A    between atoms: O_2  and  C_3 
REMARK    2  A    between atoms: C_4  and  C_5 
REMARK       I    between atoms: C_5  and  N_6 
REMARK    3  A    between atoms: N_6  and  C_7 
REMARK    4  A    between atoms: C_7  and  N_8 
REMARK    5  A    between atoms: N_8  and  C_9 
REMARK    6  A    between atoms: C_10  and  C_11 
REMARK       I    between atoms: C_11  and  N_12 
REMARK    7  A    between atoms: N_12  and  C_13 
REMARK    8  A    between atoms: C_13  and  C_14 
REMARK    9  A    between atoms: C_14  and  C_15 
REMARK   10  A    between atoms: C_15  and  O_16 
ROOT
HETATM    1  N   UNL     1      42.287 -14.376   2.752  1.00  0.00    -0.332 N 
HETATM    2  H   UNL     1      42.873 -15.100   2.342  1.00  0.00     0.168 HD
ENDROOT
BRANCH   1   3
HETATM    3  C   UNL     1      41.978 -13.373   1.902  1.00  0.00     0.179 C 
HETATM    4  S   UNL     1      42.232 -11.792   2.388  1.00  0.00    -0.040 SA
BRANCH   3   5
HETATM    5  N   UNL     1      41.397 -13.598   0.693  1.00  0.00    -0.299 N 
HETATM    6  C   UNL     1      40.326 -14.454   0.450  1.00  0.00     0.260 C 
HETATM    7  O   UNL     1      40.033 -15.427   1.141  1.00  0.00    -0.267 OA
HETATM    8  H   UNL     1      41.367 -12.753   0.132  1.00  0.00     0.171 HD
BRANCH   6   9
HETATM    9  C   UNL     1      39.498 -14.156  -0.769  1.00  0.00     0.065 A 
HETATM   10  C   UNL     1      38.844 -12.926  -0.998  1.00  0.00     0.084 A 
HETATM   11  C   UNL     1      38.067 -12.767  -2.154  1.00  0.00     0.038 A 
HETATM   12  C   UNL     1      37.928 -13.814  -3.068  1.00  0.00     0.003 A 
HETATM   13  C   UNL     1      38.565 -15.029  -2.842  1.00  0.00     0.001 A 
HETATM   14  C   UNL     1      39.343 -15.200  -1.697  1.00  0.00     0.020 A 
BRANCH  10  15
HETATM   15  O   UNL     1      39.014 -11.936  -0.064  1.00  0.00    -0.355 OA
HETATM   16  C   UNL     1      39.373 -10.637  -0.529  1.00  0.00     0.210 C 
ENDBRANCH  10  15
ENDBRANCH   6   9
ENDBRANCH   3   5
ENDBRANCH   1   3
BRANCH   1  17
HETATM   17  C   UNL     1      41.738 -14.714   4.015  1.00  0.00     0.050 A 
HETATM   18  C   UNL     1      41.860 -16.036   4.496  1.00  0.00     0.058 A 
HETATM   19  C   UNL     1      41.189 -16.433   5.661  1.00  0.00     0.019 A 
HETATM   20  C   UNL     1      40.419 -15.515   6.372  1.00  0.00     0.001 A 
HETATM   21  C   UNL     1      40.318 -14.202   5.922  1.00  0.00     0.002 A 
HETATM   22  C   UNL     1      40.969 -13.802   4.750  1.00  0.00     0.030 A 
BRANCH  18  23
HETATM   23  C   UNL     1      42.715 -17.058   3.828  1.00  0.00     0.253 C 
HETATM   24  N   UNL     1      43.727 -17.581   4.608  1.00  0.00    -0.357 N 
HETATM   25  H   UNL     1      43.656 -17.423   5.612  1.00  0.00     0.162 HD
HETATM   26  O   UNL     1      42.496 -17.400   2.672  1.00  0.00    -0.268 OA
BRANCH  24  27
HETATM   27  C   UNL     1      44.584 -18.648   4.139  1.00  0.00     0.125 C 
BRANCH  27  28
HETATM   28  C   UNL     1      44.038 -20.001   4.570  1.00  0.00     0.046 C 
BRANCH  28  29
HETATM   29  C   UNL     1      43.860 -20.936   3.385  1.00  0.00     0.165 C 
BRANCH  29  30
HETATM   30  O   UNL     1      43.128 -20.278   2.359  1.00  0.00    -0.401 OA
HETATM   31  H   UNL     1      43.085 -20.879   1.595  1.00  0.00     0.209 HD
ENDBRANCH  29  30
ENDBRANCH  28  29
ENDBRANCH  27  28
ENDBRANCH  24  27
ENDBRANCH  18  23
ENDBRANCH   1  17
TORSDOF 10
ENDMDL
MODEL 7
REMARK VINA RESULT:      -6.8      2.732      7.792
REMARK  10 active torsions:
REMARK  status: ('A' for Active; 'I' for Inactive)
REMARK    1  A    between atoms: O_2  and  C_3 
REMARK    2  A    between atoms: C_4  and  C_5 
REMARK       I    between atoms: C_5  and  N_6 
REMARK    3  A    between atoms: N_6  and  C_7 
REMARK    4  A    between atoms: C_7  and  N_8 
REMARK    5  A    between atoms: N_8  and  C_9 
REMARK    6  A    between atoms: C_10  and  C_11 
REMARK       I    between atoms: C_11  and  N_12 
REMARK    7  A    between atoms: N_12  and  C_13 
REMARK    8  A    between atoms: C_13  and  C_14 
REMARK    9  A    between atoms: C_14  and  C_15 
REMARK   10  A    between atoms: C_15  and  O_16 
ROOT
HETATM    1  N   UNL     1      42.144 -13.637   4.175  1.00  0.00    -0.332 N 
HETATM    2  H   UNL     1      41.948 -12.918   3.483  1.00  0.00     0.168 HD
ENDROOT
BRANCH   1   3
HETATM    3  C   UNL     1      41.871 -13.267   5.445  1.00  0.00     0.179 C 
HETATM    4  S   UNL     1      40.319 -13.478   6.034  1.00  0.00    -0.040 SA
BRANCH   3   5
HETATM    5  N   UNL     1      42.793 -12.659   6.239  1.00  0.00    -0.299 N 
HETATM    6  C   UNL     1      43.764 -11.755   5.815  1.00  0.00     0.260 C 
HETATM    7  O   UNL     1      44.223 -11.699   4.678  1.00  0.00    -0.267 OA
HETATM    8  H   UNL     1      42.407 -12.431   7.150  1.00  0.00     0.171 HD
BRANCH   6   9
HETATM    9  C   UNL     1      44.289 -10.806   6.856  1.00  0.00     0.065 A 
HETATM   10  C   UNL     1      43.473  -9.953   7.630  1.00  0.00     0.084 A 
HETATM   11  C   UNL     1      44.071  -9.079   8.549  1.00  0.00     0.038 A 
HETATM   12  C   UNL     1      45.460  -9.040   8.694  1.00  0.00     0.003 A 
HETATM   13  C   UNL     1      46.267  -9.873   7.928  1.00  0.00     0.001 A 
HETATM   14  C   UNL     1      45.685 -10.749   7.012  1.00  0.00     0.020 A 
BRANCH  10  15
HETATM   15  O   UNL     1      42.117 -10.033   7.442  1.00  0.00    -0.355 OA
HETATM   16  C   UNL     1      41.285  -9.189   8.234  1.00  0.00     0.210 C 
ENDBRANCH  10  15
ENDBRANCH   6   9
ENDBRANCH   3   5
ENDBRANCH   1   3
BRANCH   1  17
HETATM   17  C   UNL     1      42.413 -14.918   3.627  1.00  0.00     0.050 A 
HETATM   18  C   UNL     1      41.713 -15.343   2.477  1.00  0.00     0.058 A 
HETATM   19  C   UNL     1      41.840 -16.660   2.014  1.00  0.00     0.019 A 
HETATM   20  C   UNL     1      42.686 -17.553   2.669  1.00  0.00     0.001 A 
HETATM   21  C   UNL     1      43.403 -17.133   3.786  1.00  0.00     0.002 A 
HETATM   22  C   UNL     1      43.266 -15.826   4.267  1.00  0.00     0.030 A 
BRANCH  18  23
HETATM   23  C   UNL     1      40.841 -14.430   1.684  1.00  0.00     0.253 C 
HETATM   24  N   UNL     1      41.321 -14.095   0.434  1.00  0.00    -0.357 N 
HETATM   25  H   UNL     1      42.075 -14.672   0.065  1.00  0.00     0.162 HD
HETATM   26  O   UNL     1      39.770 -14.039   2.134  1.00  0.00    -0.268 OA
BRANCH  24  27
HETATM   27  C   UNL     1      40.551 -13.295  -0.494  1.00  0.00     0.125 C 
BRANCH  27  28
HETATM   28  C   UNL     1      39.861 -14.182  -1.520  1.00  0.00     0.046 C 
BRANCH  28  29
HETATM   29  C   UNL     1      39.977 -13.608  -2.923  1.00  0.00     0.165 C 
BRANCH  29  30
HETATM   30  O   UNL     1      41.342 -13.583  -3.321  1.00  0.00    -0.401 OA
HETATM   31  H   UNL     1      41.728 -12.751  -2.996  1.00  0.00     0.209 HD
ENDBRANCH  29  30
ENDBRANCH  28  29
ENDBRANCH  27  28
ENDBRANCH  24  27
ENDBRANCH  18  23
ENDBRANCH   1  17
TORSDOF 10
ENDMDL
MODEL 8
REMARK VINA RESULT:      -6.7      1.880      2.175
REMARK  10 active torsions:
REMARK  status: ('A' for Active; 'I' for Inactive)
REMARK    1  A    between atoms: O_2  and  C_3 
REMARK    2  A    between atoms: C_4  and  C_5 
REMARK       I    between atoms: C_5  and  N_6 
REMARK    3  A    between atoms: N_6  and  C_7 
REMARK    4  A    between atoms: C_7  and  N_8 
REMARK    5  A    between atoms: N_8  and  C_9 
REMARK    6  A    between atoms: C_10  and  C_11 
REMARK       I    between atoms: C_11  and  N_12 
REMARK    7  A    between atoms: N_12  and  C_13 
REMARK    8  A    between atoms: C_13  and  C_14 
REMARK    9  A    between atoms: C_14  and  C_15 
REMARK   10  A    between atoms: C_15  and  O_16 
ROOT
HETATM    1  N   UNL     1      40.185 -14.796   3.865  1.00  0.00    -0.332 N 
HETATM    2  H   UNL     1      39.564 -15.054   4.629  1.00  0.00     0.168 HD
ENDROOT
BRANCH   1   3
HETATM    3  C   UNL     1      40.060 -13.513   3.464  1.00  0.00     0.179 C 
HETATM    4  S   UNL     1      40.402 -12.288   4.551  1.00  0.00    -0.040 SA
BRANCH   3   5
HETATM    5  N   UNL     1      39.594 -13.179   2.231  1.00  0.00    -0.299 N 
HETATM    6  C   UNL     1      40.327 -13.205   1.047  1.00  0.00     0.260 C 
HETATM    7  O   UNL     1      41.549 -13.098   0.975  1.00  0.00    -0.267 OA
HETATM    8  H   UNL     1      38.629 -13.469   2.108  1.00  0.00     0.171 HD
BRANCH   6   9
HETATM    9  C   UNL     1      39.536 -13.349  -0.223  1.00  0.00     0.065 A 
HETATM   10  C   UNL     1      38.606 -12.394  -0.687  1.00  0.00     0.084 A 
HETATM   11  C   UNL     1      37.895 -12.646  -1.869  1.00  0.00     0.038 A 
HETATM   12  C   UNL     1      38.091 -13.834  -2.578  1.00  0.00     0.003 A 
HETATM   13  C   UNL     1      39.001 -14.780  -2.119  1.00  0.00     0.001 A 
HETATM   14  C   UNL     1      39.717 -14.541  -0.947  1.00  0.00     0.020 A 
BRANCH  10  15
HETATM   15  O   UNL     1      38.453 -11.249   0.052  1.00  0.00    -0.355 OA
HETATM   16  C   UNL     1      37.166 -10.980   0.603  1.00  0.00     0.210 C 
ENDBRANCH  10  15
ENDBRANCH   6   9
ENDBRANCH   3   5
ENDBRANCH   1   3
BRANCH   1  17
HETATM   17  C   UNL     1      41.189 -15.756   3.580  1.00  0.00     0.050 A 
HETATM   18  C   UNL     1      42.307 -15.869   4.436  1.00  0.00     0.058 A 
HETATM   19  C   UNL     1      43.387 -16.693   4.090  1.00  0.00     0.019 A 
HETATM   20  C   UNL     1      43.353 -17.431   2.909  1.00  0.00     0.001 A 
HETATM   21  C   UNL     1      42.242 -17.349   2.074  1.00  0.00     0.002 A 
HETATM   22  C   UNL     1      41.168 -16.515   2.403  1.00  0.00     0.030 A 
BRANCH  18  23
HETATM   23  C   UNL     1      42.390 -15.162   5.746  1.00  0.00     0.253 C 
HETATM   24  N   UNL     1      43.343 -14.167   5.819  1.00  0.00    -0.357 N 
HETATM   25  H   UNL     1      43.724 -13.834   4.934  1.00  0.00     0.162 HD
HETATM   26  O   UNL     1      41.636 -15.457   6.666  1.00  0.00    -0.268 OA
BRANCH  24  27
HETATM   27  C   UNL     1      43.486 -13.325   6.987  1.00  0.00     0.125 C 
BRANCH  27  28
HETATM   28  C   UNL     1      44.635 -12.345   6.803  1.00  0.00     0.046 C 
BRANCH  28  29
HETATM   29  C   UNL     1      44.481 -11.127   7.701  1.00  0.00     0.165 C 
BRANCH  29  30
HETATM   30  O   UNL     1      43.919 -11.518   8.947  1.00  0.00    -0.401 OA
HETATM   31  H   UNL     1      44.566 -12.089   9.396  1.00  0.00     0.209 HD
ENDBRANCH  29  30
ENDBRANCH  28  29
ENDBRANCH  27  28
ENDBRANCH  24  27
ENDBRANCH  18  23
ENDBRANCH   1  17
TORSDOF 10
ENDMDL
MODEL 9
REMARK VINA RESULT:      -6.7      2.359      6.868
REMARK  10 active torsions:
REMARK  status: ('A' for Active; 'I' for Inactive)
REMARK    1  A    between atoms: O_2  and  C_3 
REMARK    2  A    between atoms: C_4  and  C_5 
REMARK       I    between atoms: C_5  and  N_6 
REMARK    3  A    between atoms: N_6  and  C_7 
REMARK    4  A    between atoms: C_7  and  N_8 
REMARK    5  A    between atoms: N_8  and  C_9 
REMARK    6  A    between atoms: C_10  and  C_11 
REMARK       I    between atoms: C_11  and  N_12 
REMARK    7  A    between atoms: N_12  and  C_13 
REMARK    8  A    between atoms: C_13  and  C_14 
REMARK    9  A    between atoms: C_14  and  C_15 
REMARK   10  A    between atoms: C_15  and  O_16 
ROOT
HETATM    1  N   UNL     1      42.834 -15.173   4.719  1.00  0.00    -0.332 N 
HETATM    2  H   UNL     1      42.262 -14.535   4.172  1.00  0.00     0.168 HD
ENDROOT
BRANCH   1   3
HETATM    3  C   UNL     1      42.936 -14.839   6.024  1.00  0.00     0.179 C 
HETATM    4  S   UNL     1      41.999 -15.656   7.144  1.00  0.00    -0.040 SA
BRANCH   3   5
HETATM    5  N   UNL     1      43.717 -13.811   6.451  1.00  0.00    -0.299 N 
HETATM    6  C   UNL     1      43.811 -12.556   5.854  1.00  0.00     0.260 C 
HETATM    7  O   UNL     1      43.580 -12.321   4.672  1.00  0.00    -0.267 OA
HETATM    8  H   UNL     1      43.762 -13.775   7.465  1.00  0.00     0.171 HD
BRANCH   6   9
HETATM    9  C   UNL     1      44.257 -11.428   6.743  1.00  0.00     0.065 A 
HETATM   10  C   UNL     1      43.389 -10.447   7.269  1.00  0.00     0.084 A 
HETATM   11  C   UNL     1      43.917  -9.417   8.060  1.00  0.00     0.038 A 
HETATM   12  C   UNL     1      45.288  -9.349   8.318  1.00  0.00     0.003 A 
HETATM   13  C   UNL     1      46.147 -10.310   7.796  1.00  0.00     0.001 A 
HETATM   14  C   UNL     1      45.635 -11.342   7.010  1.00  0.00     0.020 A 
BRANCH  10  15
HETATM   15  O   UNL     1      42.053 -10.562   6.979  1.00  0.00    -0.355 OA
HETATM   16  C   UNL     1      41.485  -9.617   6.077  1.00  0.00     0.210 C 
ENDBRANCH  10  15
ENDBRANCH   6   9
ENDBRANCH   3   5
ENDBRANCH   1   3
BRANCH   1  17
HETATM   17  C   UNL     1      43.173 -16.376   4.047  1.00  0.00     0.050 A 
HETATM   18  C   UNL     1      42.368 -16.826   2.978  1.00  0.00     0.058 A 
HETATM   19  C   UNL     1      42.585 -18.088   2.407  1.00  0.00     0.019 A 
HETATM   20  C   UNL     1      43.620 -18.897   2.872  1.00  0.00     0.001 A 
HETATM   21  C   UNL     1      44.437 -18.448   3.906  1.00  0.00     0.002 A 
HETATM   22  C   UNL     1      44.215 -17.198   4.494  1.00  0.00     0.030 A 
BRANCH  18  23
HETATM   23  C   UNL     1      41.284 -15.994   2.382  1.00  0.00     0.253 C 
HETATM   24  N   UNL     1      41.600 -15.384   1.185  1.00  0.00    -0.357 N 
HETATM   25  H   UNL     1      42.420 -15.739   0.694  1.00  0.00     0.162 HD
HETATM   26  O   UNL     1      40.195 -15.894   2.935  1.00  0.00    -0.268 OA
BRANCH  24  27
HETATM   27  C   UNL     1      40.628 -14.620   0.432  1.00  0.00     0.125 C 
BRANCH  27  28
HETATM   28  C   UNL     1      40.785 -13.133   0.712  1.00  0.00     0.046 C 
BRANCH  28  29
HETATM   29  C   UNL     1      41.864 -12.870   1.750  1.00  0.00     0.165 C 
BRANCH  29  30
HETATM   30  O   UNL     1      41.299 -12.924   3.054  1.00  0.00    -0.401 OA
HETATM   31  H   UNL     1      41.989 -12.654   3.685  1.00  0.00     0.209 HD
ENDBRANCH  29  30
ENDBRANCH  28  29
ENDBRANCH  27  28
ENDBRANCH  24  27
ENDBRANCH  18  23
ENDBRANCH   1  17
TORSDOF 10
ENDMDL
MODEL 10
REMARK VINA RESULT:      -6.6     14.950     16.233
REMARK  10 active torsions:
REMARK  status: ('A' for Active; 'I' for Inactive)
REMARK    1  A    between atoms: O_2  and  C_3 
REMARK    2  A    between atoms: C_4  and  C_5 
REMARK       I    between atoms: C_5  and  N_6 
REMARK    3  A    between atoms: N_6  and  C_7 
REMARK    4  A    between atoms: C_7  and  N_8 
REMARK    5  A    between atoms: N_8  and  C_9 
REMARK    6  A    between atoms: C_10  and  C_11 
REMARK       I    between atoms: C_11  and  N_12 
REMARK    7  A    between atoms: N_12  and  C_13 
REMARK    8  A    between atoms: C_13  and  C_14 
REMARK    9  A    between atoms: C_14  and  C_15 
REMARK   10  A    between atoms: C_15  and  O_16 
ROOT
HETATM    1  N   UNL     1      49.831 -29.506   0.672  1.00  0.00    -0.332 N 
HETATM    2  H   UNL     1      50.437 -28.693   0.585  1.00  0.00     0.168 HD
ENDROOT
BRANCH   1   3
HETATM    3  C   UNL     1      49.355 -29.965  -0.505  1.00  0.00     0.179 C 
HETATM    4  S   UNL     1      50.438 -30.505  -1.661  1.00  0.00    -0.040 SA
BRANCH   3   5
HETATM    5  N   UNL     1      48.031 -29.935  -0.815  1.00  0.00    -0.299 N 
HETATM    6  C   UNL     1      47.299 -28.799  -1.153  1.00  0.00     0.260 C 
HETATM    7  O   UNL     1      47.582 -27.654  -0.813  1.00  0.00    -0.267 OA
HETATM    8  H   UNL     1      47.753 -30.759  -1.338  1.00  0.00     0.171 HD
BRANCH   6   9
HETATM    9  C   UNL     1      46.060 -29.026  -1.974  1.00  0.00     0.065 A 
HETATM   10  C   UNL     1      45.095 -30.017  -1.690  1.00  0.00     0.084 A 
HETATM   11  C   UNL     1      43.993 -30.166  -2.543  1.00  0.00     0.038 A 
HETATM   12  C   UNL     1      43.852 -29.355  -3.672  1.00  0.00     0.003 A 
HETATM   13  C   UNL     1      44.804 -28.383  -3.959  1.00  0.00     0.001 A 
HETATM   14  C   UNL     1      45.904 -28.222  -3.116  1.00  0.00     0.020 A 
BRANCH  10  15
HETATM   15  O   UNL     1      45.288 -30.786  -0.570  1.00  0.00    -0.355 OA
HETATM   16  C   UNL     1      45.035 -32.185  -0.673  1.00  0.00     0.210 C 
ENDBRANCH  10  15
ENDBRANCH   6   9
ENDBRANCH   3   5
ENDBRANCH   1   3
BRANCH   1  17
HETATM   17  C   UNL     1      49.835 -30.102   1.959  1.00  0.00     0.050 A 
HETATM   18  C   UNL     1      48.837 -29.749   2.893  1.00  0.00     0.058 A 
HETATM   19  C   UNL     1      48.912 -30.199   4.219  1.00  0.00     0.019 A 
HETATM   20  C   UNL     1      49.961 -31.025   4.618  1.00  0.00     0.001 A 
HETATM   21  C   UNL     1      50.934 -31.402   3.697  1.00  0.00     0.002 A 
HETATM   22  C   UNL     1      50.876 -30.942   2.376  1.00  0.00     0.030 A 
BRANCH  18  23
HETATM   23  C   UNL     1      47.651 -28.924   2.527  1.00  0.00     0.253 C 
HETATM   24  N   UNL     1      46.476 -29.626   2.350  1.00  0.00    -0.357 N 
HETATM   25  H   UNL     1      46.453 -30.577   2.716  1.00  0.00     0.162 HD
HETATM   26  O   UNL     1      47.744 -27.707   2.418  1.00  0.00    -0.268 OA
BRANCH  24  27
HETATM   27  C   UNL     1      45.217 -28.962   2.085  1.00  0.00     0.125 C 
BRANCH  27  28
HETATM   28  C   UNL     1      44.059 -29.758   2.670  1.00  0.00     0.046 C 
BRANCH  28  29
HETATM   29  C   UNL     1      42.861 -29.770   1.734  1.00  0.00     0.165 C 
BRANCH  29  30
HETATM   30  O   UNL     1      43.056 -28.825   0.690  1.00  0.00    -0.401 OA
HETATM   31  H   UNL     1      42.189 -28.439   0.476  1.00  0.00     0.209 HD
ENDBRANCH  29  30
ENDBRANCH  28  29
ENDBRANCH  27  28
ENDBRANCH  24  27
ENDBRANCH  18  23
ENDBRANCH   1  17
TORSDOF 10
ENDMDL
