MODEL 1
REMARK VINA RESULT:      -8.3      0.000      0.000
REMARK  9 active torsions:
REMARK  status: ('A' for Active; 'I' for Inactive)
REMARK    1  A    between atoms: C_2  and  N_3 
REMARK    2  A    between atoms: N_3  and  C_5 
REMARK    3  A    between atoms: N_3  and  C_33 
REMARK    4  A    between atoms: C_5  and  C_6 
REMARK    5  A    between atoms: C_6  and  N_7 
REMARK       I    between atoms: N_7  and  C_8 
REMARK    6  A    between atoms: C_8  and  C_9 
REMARK    7  A    between atoms: N_15  and  C_16 
REMARK    8  A    between atoms: C_16  and  C_17 
REMARK       I    between atoms: C_17  and  N_18 
REMARK    9  A    between atoms: N_18  and  C_19 
ROOT
HETATM    1  C   UNL     1      43.044 -10.241   7.114  1.00  0.00     0.081 A 
HETATM    2  S   UNL     1      41.377  -9.959   6.821  1.00  0.00    -0.063 SA
HETATM    3  C   UNL     1      41.396 -10.865   5.388  1.00  0.00     0.116 A 
HETATM    4  C   UNL     1      42.645 -11.375   5.116  1.00  0.00     0.075 A 
HETATM    5  C   UNL     1      42.771 -12.241   3.949  1.00  0.00     0.262 A 
HETATM    6  O   UNL     1      43.826 -12.784   3.632  1.00  0.00    -0.267 OA
HETATM    7  N   UNL     1      41.584 -12.418   3.241  1.00  0.00    -0.299 N 
HETATM    8  C   UNL     1      40.401 -11.831   3.648  1.00  0.00     0.214 A 
HETATM    9  N   UNL     1      40.262 -11.048   4.670  1.00  0.00    -0.235 NA
HETATM   10  C   UNL     1      43.637 -10.968   6.086  1.00  0.00    -0.021 A 
HETATM   11  C   UNL     1      45.085 -11.349   6.035  1.00  0.00     0.051 C 
ENDROOT
BRANCH   7  12
HETATM   12  C   UNL     1      41.571 -13.394   2.162  1.00  0.00     0.236 C 
BRANCH  12  13
HETATM   13  C   UNL     1      41.605 -14.806   2.763  1.00  0.00     0.240 C 
HETATM   14  N   UNL     1      42.849 -15.408   2.654  1.00  0.00    -0.326 N 
HETATM   15  H   UNL     1      43.588 -14.876   2.209  1.00  0.00     0.169 HD
HETATM   16  O   UNL     1      40.589 -15.325   3.220  1.00  0.00    -0.271 OA
BRANCH  14  17
HETATM   17  C   UNL     1      43.216 -16.694   3.110  1.00  0.00     0.036 A 
HETATM   18  C   UNL     1      43.227 -17.837   2.308  1.00  0.00     0.053 A 
HETATM   19  C   UNL     1      43.595 -19.079   2.842  1.00  0.00     0.042 A 
HETATM   20 CL   UNL     1      43.567 -20.449   1.787  1.00  0.00    -0.084 Cl
HETATM   21  C   UNL     1      43.965 -19.202   4.188  1.00  0.00    -0.040 A 
HETATM   22  C   UNL     1      44.358 -20.523   4.788  1.00  0.00     0.050 C 
HETATM   23  C   UNL     1      43.950 -18.054   4.990  1.00  0.00     0.011 A 
HETATM   24  C   UNL     1      43.579 -16.815   4.456  1.00  0.00     0.030 A 
ENDBRANCH  14  17
ENDBRANCH  12  13
ENDBRANCH   7  12
BRANCH   1  25
HETATM   25  C   UNL     1      43.650  -9.713   8.326  1.00  0.00     0.259 C 
HETATM   26  N   UNL     1      43.210 -10.284   9.511  1.00  0.00    -0.355 N 
HETATM   27  H   UNL     1      42.673 -11.138   9.386  1.00  0.00     0.162 HD
HETATM   28  O   UNL     1      44.490  -8.817   8.357  1.00  0.00    -0.267 OA
BRANCH  26  29
HETATM   29  C   UNL     1      43.971 -10.151  10.747  1.00  0.00     0.150 C 
BRANCH  29  30
HETATM   30  C   UNL     1      43.315 -10.785  11.989  1.00  0.00     0.254 C 
BRANCH  30  31
HETATM   31  N   UNL     1      42.620  -9.738  12.854  1.00  0.00    -0.070 N 
HETATM   32  H   UNL     1      43.036  -9.883  13.786  1.00  0.00     0.279 HD
BRANCH  31  33
HETATM   33  C   UNL     1      41.136  -9.995  13.016  1.00  0.00     0.230 C 
HETATM   34  C   UNL     1      40.391  -9.714  11.723  1.00  0.00     0.034 C 
ENDBRANCH  31  33
BRANCH  31  35
HETATM   35  C   UNL     1      42.934  -8.300  12.504  1.00  0.00     0.230 C 
HETATM   36  C   UNL     1      43.242  -7.455  13.727  1.00  0.00     0.034 C 
ENDBRANCH  31  35
ENDBRANCH  30  31
ENDBRANCH  29  30
ENDBRANCH  26  29
ENDBRANCH   1  25
TORSDOF 9
ENDMDL
MODEL 2
REMARK VINA RESULT:      -8.2      1.698      2.535
REMARK  9 active torsions:
REMARK  status: ('A' for Active; 'I' for Inactive)
REMARK    1  A    between atoms: C_2  and  N_3 
REMARK    2  A    between atoms: N_3  and  C_5 
REMARK    3  A    between atoms: N_3  and  C_33 
REMARK    4  A    between atoms: C_5  and  C_6 
REMARK    5  A    between atoms: C_6  and  N_7 
REMARK       I    between atoms: N_7  and  C_8 
REMARK    6  A    between atoms: C_8  and  C_9 
REMARK    7  A    between atoms: N_15  and  C_16 
REMARK    8  A    between atoms: C_16  and  C_17 
REMARK       I    between atoms: C_17  and  N_18 
REMARK    9  A    between atoms: N_18  and  C_19 
ROOT
HETATM    1  C   UNL     1      40.968 -10.000   7.241  1.00  0.00     0.081 A 
HETATM    2  S   UNL     1      42.656  -9.819   6.987  1.00  0.00    -0.063 SA
HETATM    3  C   UNL     1      42.639 -10.836   5.630  1.00  0.00     0.116 A 
HETATM    4  C   UNL     1      41.379 -11.322   5.365  1.00  0.00     0.075 A 
HETATM    5  C   UNL     1      41.222 -12.146   4.171  1.00  0.00     0.262 A 
HETATM    6  O   UNL     1      40.139 -12.601   3.813  1.00  0.00    -0.267 OA
HETATM    7  N   UNL     1      42.403 -12.350   3.461  1.00  0.00    -0.299 N 
HETATM    8  C   UNL     1      43.599 -11.787   3.863  1.00  0.00     0.214 A 
HETATM    9  N   UNL     1      43.772 -11.064   4.923  1.00  0.00    -0.235 NA
HETATM   10  C   UNL     1      40.399 -10.891   6.335  1.00  0.00    -0.021 A 
HETATM   11  C   UNL     1      38.952 -11.281   6.317  1.00  0.00     0.051 C 
ENDROOT
BRANCH   7  12
HETATM   12  C   UNL     1      42.317 -13.018   2.171  1.00  0.00     0.236 C 
BRANCH  12  13
HETATM   13  C   UNL     1      43.064 -14.356   2.247  1.00  0.00     0.240 C 
HETATM   14  N   UNL     1      42.588 -15.182   3.254  1.00  0.00    -0.326 N 
HETATM   15  H   UNL     1      41.819 -14.837   3.818  1.00  0.00     0.169 HD
HETATM   16  O   UNL     1      44.020 -14.591   1.513  1.00  0.00    -0.271 OA
BRANCH  14  17
HETATM   17  C   UNL     1      43.049 -16.476   3.584  1.00  0.00     0.036 A 
HETATM   18  C   UNL     1      43.047 -17.559   2.703  1.00  0.00     0.053 A 
HETATM   19  C   UNL     1      43.513 -18.814   3.115  1.00  0.00     0.042 A 
HETATM   20 CL   UNL     1      43.462 -20.108   1.969  1.00  0.00    -0.084 Cl
HETATM   21  C   UNL     1      43.996 -19.011   4.416  1.00  0.00    -0.040 A 
HETATM   22  C   UNL     1      44.496 -20.348   4.886  1.00  0.00     0.050 C 
HETATM   23  C   UNL     1      43.994 -17.923   5.298  1.00  0.00     0.011 A 
HETATM   24  C   UNL     1      43.524 -16.671   4.886  1.00  0.00     0.030 A 
ENDBRANCH  14  17
ENDBRANCH  12  13
ENDBRANCH   7  12
BRANCH   1  25
HETATM   25  C   UNL     1      40.331  -9.266   8.322  1.00  0.00     0.259 C 
HETATM   26  N   UNL     1      40.326  -9.903   9.554  1.00  0.00    -0.355 N 
HETATM   27  H   UNL     1      40.941 -10.711   9.606  1.00  0.00     0.162 HD
HETATM   28  O   UNL     1      39.810  -8.159   8.208  1.00  0.00    -0.267 OA
BRANCH  26  29
HETATM   29  C   UNL     1      40.084  -9.168  10.790  1.00  0.00     0.150 C 
BRANCH  29  30
HETATM   30  C   UNL     1      41.105  -9.429  11.915  1.00  0.00     0.254 C 
BRANCH  30  31
HETATM   31  N   UNL     1      42.526  -9.093  11.474  1.00  0.00    -0.070 N 
HETATM   32  H   UNL     1      42.414  -8.839  10.481  1.00  0.00     0.279 HD
BRANCH  31  33
HETATM   33  C   UNL     1      43.451 -10.291  11.496  1.00  0.00     0.230 C 
HETATM   34  C   UNL     1      44.554 -10.147  10.462  1.00  0.00     0.034 C 
ENDBRANCH  31  33
BRANCH  31  35
HETATM   35  C   UNL     1      43.131  -7.869  12.125  1.00  0.00     0.230 C 
HETATM   36  C   UNL     1      42.911  -7.837  13.626  1.00  0.00     0.034 C 
ENDBRANCH  31  35
ENDBRANCH  30  31
ENDBRANCH  29  30
ENDBRANCH  26  29
ENDBRANCH   1  25
TORSDOF 9
ENDMDL
MODEL 3
REMARK VINA RESULT:      -8.0      1.544      2.247
REMARK  9 active torsions:
REMARK  status: ('A' for Active; 'I' for Inactive)
REMARK    1  A    between atoms: C_2  and  N_3 
REMARK    2  A    between atoms: N_3  and  C_5 
REMARK    3  A    between atoms: N_3  and  C_33 
REMARK    4  A    between atoms: C_5  and  C_6 
REMARK    5  A    between atoms: C_6  and  N_7 
REMARK       I    between atoms: N_7  and  C_8 
REMARK    6  A    between atoms: C_8  and  C_9 
REMARK    7  A    between atoms: N_15  and  C_16 
REMARK    8  A    between atoms: C_16  and  C_17 
REMARK       I    between atoms: C_17  and  N_18 
REMARK    9  A    between atoms: N_18  and  C_19 
ROOT
HETATM    1  C   UNL     1      43.008  -9.844   8.277  1.00  0.00     0.081 A 
HETATM    2  S   UNL     1      41.408  -9.399   7.847  1.00  0.00    -0.063 SA
HETATM    3  C   UNL     1      41.618  -9.901   6.240  1.00  0.00     0.116 A 
HETATM    4  C   UNL     1      42.882 -10.394   6.015  1.00  0.00     0.075 A 
HETATM    5  C   UNL     1      43.159 -10.933   4.687  1.00  0.00     0.262 A 
HETATM    6  O   UNL     1      44.238 -11.436   4.384  1.00  0.00    -0.267 OA
HETATM    7  N   UNL     1      42.085 -10.851   3.804  1.00  0.00    -0.299 N 
HETATM    8  C   UNL     1      40.867 -10.322   4.189  1.00  0.00     0.214 A 
HETATM    9  N   UNL     1      40.597  -9.824   5.353  1.00  0.00    -0.235 NA
HETATM   10  C   UNL     1      43.730 -10.312   7.183  1.00  0.00    -0.021 A 
HETATM   11  C   UNL     1      45.162 -10.751   7.229  1.00  0.00     0.051 C 
ENDROOT
BRANCH   7  12
HETATM   12  C   UNL     1      42.209 -11.510   2.513  1.00  0.00     0.236 C 
BRANCH  12  13
HETATM   13  C   UNL     1      41.949 -13.012   2.691  1.00  0.00     0.240 C 
HETATM   14  N   UNL     1      43.111 -13.768   2.665  1.00  0.00    -0.326 N 
HETATM   15  H   UNL     1      43.987 -13.273   2.540  1.00  0.00     0.169 HD
HETATM   16  O   UNL     1      40.805 -13.452   2.776  1.00  0.00    -0.271 OA
BRANCH  14  17
HETATM   17  C   UNL     1      43.221 -15.169   2.806  1.00  0.00     0.036 A 
HETATM   18  C   UNL     1      43.308 -15.830   4.032  1.00  0.00     0.053 A 
HETATM   19  C   UNL     1      43.426 -17.225   4.084  1.00  0.00     0.042 A 
HETATM   20 CL   UNL     1      43.546 -17.967   5.642  1.00  0.00    -0.084 Cl
HETATM   21  C   UNL     1      43.452 -17.989   2.909  1.00  0.00    -0.040 A 
HETATM   22  C   UNL     1      43.583 -19.486   2.935  1.00  0.00     0.050 C 
HETATM   23  C   UNL     1      43.366 -17.322   1.680  1.00  0.00     0.011 A 
HETATM   24  C   UNL     1      43.254 -15.928   1.631  1.00  0.00     0.030 A 
ENDBRANCH  14  17
ENDBRANCH  12  13
ENDBRANCH   7  12
BRANCH   1  25
HETATM   25  C   UNL     1      43.441  -9.686   9.656  1.00  0.00     0.259 C 
HETATM   26  N   UNL     1      42.663 -10.332  10.605  1.00  0.00    -0.355 N 
HETATM   27  H   UNL     1      42.006 -11.003  10.215  1.00  0.00     0.162 HD
HETATM   28  O   UNL     1      44.416  -9.029  10.014  1.00  0.00    -0.267 OA
BRANCH  26  29
HETATM   29  C   UNL     1      43.161 -10.591  11.949  1.00  0.00     0.150 C 
BRANCH  29  30
HETATM   30  C   UNL     1      42.396  -9.875  13.079  1.00  0.00     0.254 C 
BRANCH  30  31
HETATM   31  N   UNL     1      41.412  -8.848  12.529  1.00  0.00    -0.070 N 
HETATM   32  H   UNL     1      41.485  -8.971  11.508  1.00  0.00     0.279 HD
BRANCH  31  33
HETATM   33  C   UNL     1      41.830  -7.420  12.807  1.00  0.00     0.230 C 
HETATM   34  C   UNL     1      41.944  -6.625  11.518  1.00  0.00     0.034 C 
ENDBRANCH  31  33
BRANCH  31  35
HETATM   35  C   UNL     1      39.957  -9.110  12.852  1.00  0.00     0.230 C 
HETATM   36  C   UNL     1      39.664 -10.583  13.070  1.00  0.00     0.034 C 
ENDBRANCH  31  35
ENDBRANCH  30  31
ENDBRANCH  29  30
ENDBRANCH  26  29
ENDBRANCH   1  25
TORSDOF 9
ENDMDL
MODEL 4
REMARK VINA RESULT:      -7.9      1.497      1.875
REMARK  9 active torsions:
REMARK  status: ('A' for Active; 'I' for Inactive)
REMARK    1  A    between atoms: C_2  and  N_3 
REMARK    2  A    between atoms: N_3  and  C_5 
REMARK    3  A    between atoms: N_3  and  C_33 
REMARK    4  A    between atoms: C_5  and  C_6 
REMARK    5  A    between atoms: C_6  and  N_7 
REMARK       I    between atoms: N_7  and  C_8 
REMARK    6  A    between atoms: C_8  and  C_9 
REMARK    7  A    between atoms: N_15  and  C_16 
REMARK    8  A    between atoms: C_16  and  C_17 
REMARK       I    between atoms: C_17  and  N_18 
REMARK    9  A    between atoms: N_18  and  C_19 
ROOT
HETATM    1  C   UNL     1      40.700 -10.083   5.802  1.00  0.00     0.081 A 
HETATM    2  S   UNL     1      39.117 -10.323   5.184  1.00  0.00    -0.063 SA
HETATM    3  C   UNL     1      39.680 -11.272   3.895  1.00  0.00     0.116 A 
HETATM    4  C   UNL     1      41.050 -11.407   3.914  1.00  0.00     0.075 A 
HETATM    5  C   UNL     1      41.647 -12.270   2.901  1.00  0.00     0.262 A 
HETATM    6  O   UNL     1      42.853 -12.497   2.845  1.00  0.00    -0.267 OA
HETATM    7  N   UNL     1      40.727 -12.833   2.018  1.00  0.00    -0.299 N 
HETATM    8  C   UNL     1      39.370 -12.595   2.134  1.00  0.00     0.214 A 
HETATM    9  N   UNL     1      38.813 -11.825   3.013  1.00  0.00    -0.235 NA
HETATM   10  C   UNL     1      41.669 -10.666   4.990  1.00  0.00    -0.021 A 
HETATM   11  C   UNL     1      43.145 -10.607   5.245  1.00  0.00     0.051 C 
ENDROOT
BRANCH   7  12
HETATM   12  C   UNL     1      41.206 -13.835   1.079  1.00  0.00     0.236 C 
BRANCH  12  13
HETATM   13  C   UNL     1      41.308 -15.187   1.798  1.00  0.00     0.240 C 
HETATM   14  N   UNL     1      42.616 -15.547   2.086  1.00  0.00    -0.326 N 
HETATM   15  H   UNL     1      43.349 -14.905   1.809  1.00  0.00     0.169 HD
HETATM   16  O   UNL     1      40.308 -15.869   2.011  1.00  0.00    -0.271 OA
BRANCH  14  17
HETATM   17  C   UNL     1      43.052 -16.719   2.743  1.00  0.00     0.036 A 
HETATM   18  C   UNL     1      43.177 -17.965   2.126  1.00  0.00     0.053 A 
HETATM   19  C   UNL     1      43.607 -19.082   2.854  1.00  0.00     0.042 A 
HETATM   20 CL   UNL     1      43.721 -20.593   2.020  1.00  0.00    -0.084 Cl
HETATM   21  C   UNL     1      43.927 -18.975   4.215  1.00  0.00    -0.040 A 
HETATM   22  C   UNL     1      44.385 -20.157   5.021  1.00  0.00     0.050 C 
HETATM   23  C   UNL     1      43.797 -17.724   4.831  1.00  0.00     0.011 A 
HETATM   24  C   UNL     1      43.363 -16.610   4.104  1.00  0.00     0.030 A 
ENDBRANCH  14  17
ENDBRANCH  12  13
ENDBRANCH   7  12
BRANCH   1  25
HETATM   25  C   UNL     1      40.874  -9.325   7.030  1.00  0.00     0.259 C 
HETATM   26  N   UNL     1      41.269 -10.063   8.136  1.00  0.00    -0.355 N 
HETATM   27  H   UNL     1      41.586 -11.004   7.915  1.00  0.00     0.162 HD
HETATM   28  O   UNL     1      40.689  -8.116   7.140  1.00  0.00    -0.267 OA
BRANCH  26  29
HETATM   29  C   UNL     1      41.847  -9.422   9.311  1.00  0.00     0.150 C 
BRANCH  29  30
HETATM   30  C   UNL     1      40.944  -9.409  10.559  1.00  0.00     0.254 C 
BRANCH  30  31
HETATM   31  N   UNL     1      41.578 -10.169  11.720  1.00  0.00    -0.070 N 
HETATM   32  H   UNL     1      41.535 -11.152  11.414  1.00  0.00     0.279 HD
BRANCH  31  33
HETATM   33  C   UNL     1      40.762 -10.092  12.993  1.00  0.00     0.230 C 
HETATM   34  C   UNL     1      39.424 -10.792  12.825  1.00  0.00     0.034 C 
ENDBRANCH  31  33
BRANCH  31  35
HETATM   35  C   UNL     1      43.048  -9.892  11.946  1.00  0.00     0.230 C 
HETATM   36  C   UNL     1      43.300  -8.518  12.538  1.00  0.00     0.034 C 
ENDBRANCH  31  35
ENDBRANCH  30  31
ENDBRANCH  29  30
ENDBRANCH  26  29
ENDBRANCH   1  25
TORSDOF 9
ENDMDL
MODEL 5
REMARK VINA RESULT:      -7.9      3.328      5.303
REMARK  9 active torsions:
REMARK  status: ('A' for Active; 'I' for Inactive)
REMARK    1  A    between atoms: C_2  and  N_3 
REMARK    2  A    between atoms: N_3  and  C_5 
REMARK    3  A    between atoms: N_3  and  C_33 
REMARK    4  A    between atoms: C_5  and  C_6 
REMARK    5  A    between atoms: C_6  and  N_7 
REMARK       I    between atoms: N_7  and  C_8 
REMARK    6  A    between atoms: C_8  and  C_9 
REMARK    7  A    between atoms: N_15  and  C_16 
REMARK    8  A    between atoms: C_16  and  C_17 
REMARK       I    between atoms: C_17  and  N_18 
REMARK    9  A    between atoms: N_18  and  C_19 
ROOT
HETATM    1  C   UNL     1      43.550 -12.546   6.654  1.00  0.00     0.081 A 
HETATM    2  S   UNL     1      43.250 -14.144   7.204  1.00  0.00    -0.063 SA
HETATM    3  C   UNL     1      42.877 -14.694   5.644  1.00  0.00     0.116 A 
HETATM    4  C   UNL     1      42.965 -13.689   4.707  1.00  0.00     0.075 A 
HETATM    5  C   UNL     1      42.745 -14.059   3.313  1.00  0.00     0.262 A 
HETATM    6  O   UNL     1      42.838 -13.256   2.388  1.00  0.00    -0.267 OA
HETATM    7  N   UNL     1      42.446 -15.406   3.121  1.00  0.00    -0.299 N 
HETATM    8  C   UNL     1      42.395 -16.296   4.177  1.00  0.00     0.214 A 
HETATM    9  N   UNL     1      42.572 -15.996   5.424  1.00  0.00    -0.235 NA
HETATM   10  C   UNL     1      43.299 -12.410   5.291  1.00  0.00    -0.021 A 
HETATM   11  C   UNL     1      43.440 -11.132   4.521  1.00  0.00     0.051 C 
ENDROOT
BRANCH   7  12
HETATM   12  C   UNL     1      42.375 -15.902   1.756  1.00  0.00     0.236 C 
BRANCH  12  13
HETATM   13  C   UNL     1      41.013 -15.527   1.156  1.00  0.00     0.240 C 
HETATM   14  N   UNL     1      41.110 -14.575   0.153  1.00  0.00    -0.326 N 
HETATM   15  H   UNL     1      42.035 -14.233  -0.080  1.00  0.00     0.169 HD
HETATM   16  O   UNL     1      39.972 -16.004   1.601  1.00  0.00    -0.271 OA
BRANCH  14  17
HETATM   17  C   UNL     1      40.052 -14.022  -0.602  1.00  0.00     0.036 A 
HETATM   18  C   UNL     1      39.551 -14.582  -1.778  1.00  0.00     0.053 A 
HETATM   19  C   UNL     1      38.504 -13.962  -2.474  1.00  0.00     0.042 A 
HETATM   20 CL   UNL     1      37.951 -14.711  -3.932  1.00  0.00    -0.084 Cl
HETATM   21  C   UNL     1      37.933 -12.772  -2.004  1.00  0.00    -0.040 A 
HETATM   22  C   UNL     1      36.813 -12.084  -2.733  1.00  0.00     0.050 C 
HETATM   23  C   UNL     1      38.440 -12.212  -0.825  1.00  0.00     0.011 A 
HETATM   24  C   UNL     1      39.488 -12.829  -0.134  1.00  0.00     0.030 A 
ENDBRANCH  14  17
ENDBRANCH  12  13
ENDBRANCH   7  12
BRANCH   1  25
HETATM   25  C   UNL     1      43.993 -11.540   7.605  1.00  0.00     0.259 C 
HETATM   26  N   UNL     1      43.019 -10.647   8.027  1.00  0.00    -0.355 N 
HETATM   27  H   UNL     1      42.071 -10.922   7.783  1.00  0.00     0.162 HD
HETATM   28  O   UNL     1      45.140 -11.435   8.032  1.00  0.00    -0.267 OA
BRANCH  26  29
HETATM   29  C   UNL     1      43.192  -9.847   9.233  1.00  0.00     0.150 C 
BRANCH  29  30
HETATM   30  C   UNL     1      41.928  -9.106   9.712  1.00  0.00     0.254 C 
BRANCH  30  31
HETATM   31  N   UNL     1      41.917  -8.935  11.228  1.00  0.00    -0.070 N 
HETATM   32  H   UNL     1      41.485  -8.009  11.360  1.00  0.00     0.279 HD
BRANCH  31  33
HETATM   33  C   UNL     1      43.307  -8.836  11.822  1.00  0.00     0.230 C 
HETATM   34  C   UNL     1      43.304  -7.973  13.071  1.00  0.00     0.034 C 
ENDBRANCH  31  33
BRANCH  31  35
HETATM   35  C   UNL     1      41.023  -9.896  11.980  1.00  0.00     0.230 C 
HETATM   36  C   UNL     1      39.815  -9.212  12.593  1.00  0.00     0.034 C 
ENDBRANCH  31  35
ENDBRANCH  30  31
ENDBRANCH  29  30
ENDBRANCH  26  29
ENDBRANCH   1  25
TORSDOF 9
ENDMDL
MODEL 6
REMARK VINA RESULT:      -7.9      1.770      2.429
REMARK  9 active torsions:
REMARK  status: ('A' for Active; 'I' for Inactive)
REMARK    1  A    between atoms: C_2  and  N_3 
REMARK    2  A    between atoms: N_3  and  C_5 
REMARK    3  A    between atoms: N_3  and  C_33 
REMARK    4  A    between atoms: C_5  and  C_6 
REMARK    5  A    between atoms: C_6  and  N_7 
REMARK       I    between atoms: N_7  and  C_8 
REMARK    6  A    between atoms: C_8  and  C_9 
REMARK    7  A    between atoms: N_15  and  C_16 
REMARK    8  A    between atoms: C_16  and  C_17 
REMARK       I    between atoms: C_17  and  N_18 
REMARK    9  A    between atoms: N_18  and  C_19 
ROOT
HETATM    1  C   UNL     1      43.387  -9.007   7.995  1.00  0.00     0.081 A 
HETATM    2  S   UNL     1      44.315 -10.376   8.451  1.00  0.00    -0.063 SA
HETATM    3  C   UNL     1      43.649 -11.334   7.219  1.00  0.00     0.116 A 
HETATM    4  C   UNL     1      42.727 -10.641   6.467  1.00  0.00     0.075 A 
HETATM    5  C   UNL     1      42.144 -11.335   5.325  1.00  0.00     0.262 A 
HETATM    6  O   UNL     1      41.342 -10.804   4.561  1.00  0.00    -0.267 OA
HETATM    7  N   UNL     1      42.596 -12.643   5.162  1.00  0.00    -0.299 N 
HETATM    8  C   UNL     1      43.534 -13.198   6.011  1.00  0.00     0.214 A 
HETATM    9  N   UNL     1      44.058 -12.613   7.040  1.00  0.00    -0.235 NA
HETATM   10  C   UNL     1      42.517  -9.294   6.947  1.00  0.00    -0.021 A 
HETATM   11  C   UNL     1      41.556  -8.314   6.343  1.00  0.00     0.051 C 
ENDROOT
BRANCH   7  12
HETATM   12  C   UNL     1      42.200 -13.358   3.958  1.00  0.00     0.236 C 
BRANCH  12  13
HETATM   13  C   UNL     1      42.108 -14.857   4.272  1.00  0.00     0.240 C 
HETATM   14  N   UNL     1      43.219 -15.567   3.841  1.00  0.00    -0.326 N 
HETATM   15  H   UNL     1      43.957 -15.046   3.381  1.00  0.00     0.169 HD
HETATM   16  O   UNL     1      41.105 -15.335   4.794  1.00  0.00    -0.271 OA
BRANCH  14  17
HETATM   17  C   UNL     1      43.451 -16.953   3.980  1.00  0.00     0.036 A 
HETATM   18  C   UNL     1      43.462 -17.858   2.917  1.00  0.00     0.053 A 
HETATM   19  C   UNL     1      43.689 -19.221   3.144  1.00  0.00     0.042 A 
HETATM   20 CL   UNL     1      43.670 -20.279   1.775  1.00  0.00    -0.084 Cl
HETATM   21  C   UNL     1      43.918 -19.708   4.438  1.00  0.00    -0.040 A 
HETATM   22  C   UNL     1      44.160 -21.166   4.710  1.00  0.00     0.050 C 
HETATM   23  C   UNL     1      43.904 -18.797   5.502  1.00  0.00     0.011 A 
HETATM   24  C   UNL     1      43.672 -17.437   5.275  1.00  0.00     0.030 A 
ENDBRANCH  14  17
ENDBRANCH  12  13
ENDBRANCH   7  12
BRANCH   1  25
HETATM   25  C   UNL     1      43.571  -7.755   8.712  1.00  0.00     0.259 C 
HETATM   26  N   UNL     1      42.476  -7.320   9.444  1.00  0.00    -0.355 N 
HETATM   27  H   UNL     1      41.750  -8.022   9.560  1.00  0.00     0.162 HD
HETATM   28  O   UNL     1      44.599  -7.083   8.697  1.00  0.00    -0.267 OA
BRANCH  26  29
HETATM   29  C   UNL     1      42.614  -6.323  10.498  1.00  0.00     0.150 C 
BRANCH  29  30
HETATM   30  C   UNL     1      41.970  -6.703  11.846  1.00  0.00     0.254 C 
BRANCH  30  31
HETATM   31  N   UNL     1      42.773  -7.781  12.568  1.00  0.00    -0.070 N 
HETATM   32  H   UNL     1      43.606  -7.897  11.972  1.00  0.00     0.279 HD
BRANCH  31  33
HETATM   33  C   UNL     1      42.079  -9.126  12.582  1.00  0.00     0.230 C 
HETATM   34  C   UNL     1      42.998 -10.219  12.065  1.00  0.00     0.034 C 
ENDBRANCH  31  33
BRANCH  31  35
HETATM   35  C   UNL     1      43.314  -7.383  13.924  1.00  0.00     0.230 C 
HETATM   36  C   UNL     1      42.216  -7.173  14.951  1.00  0.00     0.034 C 
ENDBRANCH  31  35
ENDBRANCH  30  31
ENDBRANCH  29  30
ENDBRANCH  26  29
ENDBRANCH   1  25
TORSDOF 9
ENDMDL
MODEL 7
REMARK VINA RESULT:      -7.7      3.955     10.562
REMARK  9 active torsions:
REMARK  status: ('A' for Active; 'I' for Inactive)
REMARK    1  A    between atoms: C_2  and  N_3 
REMARK    2  A    between atoms: N_3  and  C_5 
REMARK    3  A    between atoms: N_3  and  C_33 
REMARK    4  A    between atoms: C_5  and  C_6 
REMARK    5  A    between atoms: C_6  and  N_7 
REMARK       I    between atoms: N_7  and  C_8 
REMARK    6  A    between atoms: C_8  and  C_9 
REMARK    7  A    between atoms: N_15  and  C_16 
REMARK    8  A    between atoms: C_16  and  C_17 
REMARK       I    between atoms: C_17  and  N_18 
REMARK    9  A    between atoms: N_18  and  C_19 
ROOT
HETATM    1  C   UNL     1      40.824 -13.618   3.666  1.00  0.00     0.081 A 
HETATM    2  S   UNL     1      39.845 -12.262   4.052  1.00  0.00    -0.063 SA
HETATM    3  C   UNL     1      40.984 -11.656   5.152  1.00  0.00     0.116 A 
HETATM    4  C   UNL     1      42.095 -12.464   5.244  1.00  0.00     0.075 A 
HETATM    5  C   UNL     1      43.183 -12.004   6.100  1.00  0.00     0.262 A 
HETATM    6  O   UNL     1      44.237 -12.622   6.227  1.00  0.00    -0.267 OA
HETATM    7  N   UNL     1      42.931 -10.792   6.739  1.00  0.00    -0.299 N 
HETATM    8  C   UNL     1      41.753 -10.097   6.540  1.00  0.00     0.214 A 
HETATM    9  N   UNL     1      40.766 -10.485   5.799  1.00  0.00    -0.235 NA
HETATM   10  C   UNL     1      41.990 -13.650   4.425  1.00  0.00    -0.021 A 
HETATM   11  C   UNL     1      43.034 -14.722   4.340  1.00  0.00     0.051 C 
ENDROOT
BRANCH   7  12
HETATM   12  C   UNL     1      44.019 -10.172   7.481  1.00  0.00     0.236 C 
BRANCH  12  13
HETATM   13  C   UNL     1      43.765 -10.347   8.984  1.00  0.00     0.240 C 
HETATM   14  N   UNL     1      43.075  -9.282   9.542  1.00  0.00    -0.326 N 
HETATM   15  H   UNL     1      42.811  -8.522   8.926  1.00  0.00     0.169 HD
HETATM   16  O   UNL     1      44.208 -11.318   9.592  1.00  0.00    -0.271 OA
BRANCH  14  17
HETATM   17  C   UNL     1      42.679  -9.136  10.890  1.00  0.00     0.036 A 
HETATM   18  C   UNL     1      41.579  -9.779  11.460  1.00  0.00     0.053 A 
HETATM   19  C   UNL     1      41.248  -9.570  12.805  1.00  0.00     0.042 A 
HETATM   20 CL   UNL     1      39.861 -10.392  13.431  1.00  0.00    -0.084 Cl
HETATM   21  C   UNL     1      42.015  -8.716  13.611  1.00  0.00    -0.040 A 
HETATM   22  C   UNL     1      41.680  -8.469  15.055  1.00  0.00     0.050 C 
HETATM   23  C   UNL     1      43.116  -8.070  13.034  1.00  0.00     0.011 A 
HETATM   24  C   UNL     1      43.442  -8.277  11.690  1.00  0.00     0.030 A 
ENDBRANCH  14  17
ENDBRANCH  12  13
ENDBRANCH   7  12
BRANCH   1  25
HETATM   25  C   UNL     1      40.365 -14.559   2.657  1.00  0.00     0.259 C 
HETATM   26  N   UNL     1      39.864 -13.991   1.495  1.00  0.00    -0.355 N 
HETATM   27  H   UNL     1      40.063 -12.999   1.399  1.00  0.00     0.162 HD
HETATM   28  O   UNL     1      40.386 -15.781   2.776  1.00  0.00    -0.267 OA
BRANCH  26  29
HETATM   29  C   UNL     1      39.728 -14.766   0.267  1.00  0.00     0.150 C 
BRANCH  29  30
HETATM   30  C   UNL     1      39.721 -13.936  -1.031  1.00  0.00     0.254 C 
BRANCH  30  31
HETATM   31  N   UNL     1      38.304 -13.559  -1.450  1.00  0.00    -0.070 N 
HETATM   32  H   UNL     1      37.715 -14.224  -0.926  1.00  0.00     0.279 HD
BRANCH  31  33
HETATM   33  C   UNL     1      38.030 -13.825  -2.916  1.00  0.00     0.230 C 
HETATM   34  C   UNL     1      38.392 -15.253  -3.287  1.00  0.00     0.034 C 
ENDBRANCH  31  33
BRANCH  31  35
HETATM   35  C   UNL     1      37.841 -12.190  -1.003  1.00  0.00     0.230 C 
HETATM   36  C   UNL     1      38.995 -11.268  -0.656  1.00  0.00     0.034 C 
ENDBRANCH  31  35
ENDBRANCH  30  31
ENDBRANCH  29  30
ENDBRANCH  26  29
ENDBRANCH   1  25
TORSDOF 9
ENDMDL
MODEL 8
REMARK VINA RESULT:      -7.5      2.114      3.086
REMARK  9 active torsions:
REMARK  status: ('A' for Active; 'I' for Inactive)
REMARK    1  A    between atoms: C_2  and  N_3 
REMARK    2  A    between atoms: N_3  and  C_5 
REMARK    3  A    between atoms: N_3  and  C_33 
REMARK    4  A    between atoms: C_5  and  C_6 
REMARK    5  A    between atoms: C_6  and  N_7 
REMARK       I    between atoms: N_7  and  C_8 
REMARK    6  A    between atoms: C_8  and  C_9 
REMARK    7  A    between atoms: N_15  and  C_16 
REMARK    8  A    between atoms: C_16  and  C_17 
REMARK       I    between atoms: C_17  and  N_18 
REMARK    9  A    between atoms: N_18  and  C_19 
ROOT
HETATM    1  C   UNL     1      43.298  -9.074   9.341  1.00  0.00     0.081 A 
HETATM    2  S   UNL     1      44.735  -9.968   9.060  1.00  0.00    -0.063 SA
HETATM    3  C   UNL     1      44.081 -10.738   7.697  1.00  0.00     0.116 A 
HETATM    4  C   UNL     1      42.787 -10.339   7.450  1.00  0.00     0.075 A 
HETATM    5  C   UNL     1      42.143 -10.872   6.255  1.00  0.00     0.262 A 
HETATM    6  O   UNL     1      41.007 -10.556   5.913  1.00  0.00    -0.267 OA
HETATM    7  N   UNL     1      42.939 -11.750   5.523  1.00  0.00    -0.299 N 
HETATM    8  C   UNL     1      44.232 -12.051   5.908  1.00  0.00     0.214 A 
HETATM    9  N   UNL     1      44.824 -11.606   6.969  1.00  0.00    -0.235 NA
HETATM   10  C   UNL     1      42.292  -9.410   8.441  1.00  0.00    -0.021 A 
HETATM   11  C   UNL     1      40.912  -8.823   8.444  1.00  0.00     0.051 C 
ENDROOT
BRANCH   7  12
HETATM   12  C   UNL     1      42.448 -12.203   4.230  1.00  0.00     0.236 C 
BRANCH  12  13
HETATM   13  C   UNL     1      42.243 -13.723   4.276  1.00  0.00     0.240 C 
HETATM   14  N   UNL     1      43.154 -14.413   3.490  1.00  0.00    -0.326 N 
HETATM   15  H   UNL     1      43.842 -13.868   2.984  1.00  0.00     0.169 HD
HETATM   16  O   UNL     1      41.312 -14.218   4.906  1.00  0.00    -0.271 OA
BRANCH  14  17
HETATM   17  C   UNL     1      43.242 -15.812   3.318  1.00  0.00     0.036 A 
HETATM   18  C   UNL     1      43.535 -16.712   4.344  1.00  0.00     0.053 A 
HETATM   19  C   UNL     1      43.615 -18.087   4.086  1.00  0.00     0.042 A 
HETATM   20 CL   UNL     1      43.999 -19.134   5.408  1.00  0.00    -0.084 Cl
HETATM   21  C   UNL     1      43.398 -18.591   2.796  1.00  0.00    -0.040 A 
HETATM   22  C   UNL     1      43.483 -20.060   2.489  1.00  0.00     0.050 C 
HETATM   23  C   UNL     1      43.107 -17.684   1.769  1.00  0.00     0.011 A 
HETATM   24  C   UNL     1      43.032 -16.311   2.027  1.00  0.00     0.030 A 
ENDBRANCH  14  17
ENDBRANCH  12  13
ENDBRANCH   7  12
BRANCH   1  25
HETATM   25  C   UNL     1      43.261  -8.120  10.438  1.00  0.00     0.259 C 
HETATM   26  N   UNL     1      43.161  -8.672  11.706  1.00  0.00    -0.355 N 
HETATM   27  H   UNL     1      43.331  -9.674  11.737  1.00  0.00     0.162 HD
HETATM   28  O   UNL     1      43.301  -6.899  10.308  1.00  0.00    -0.267 OA
BRANCH  26  29
HETATM   29  C   UNL     1      43.494  -7.903  12.899  1.00  0.00     0.150 C 
BRANCH  29  30
HETATM   30  C   UNL     1      42.327  -7.098  13.504  1.00  0.00     0.254 C 
BRANCH  30  31
HETATM   31  N   UNL     1      41.235  -8.014  14.049  1.00  0.00    -0.070 N 
HETATM   32  H   UNL     1      41.503  -8.943  13.691  1.00  0.00     0.279 HD
BRANCH  31  33
HETATM   33  C   UNL     1      39.870  -7.719  13.464  1.00  0.00     0.230 C 
HETATM   34  C   UNL     1      39.482  -8.764  12.433  1.00  0.00     0.034 C 
ENDBRANCH  31  33
BRANCH  31  35
HETATM   35  C   UNL     1      41.212  -8.165  15.554  1.00  0.00     0.230 C 
HETATM   36  C   UNL     1      41.917  -7.025  16.266  1.00  0.00     0.034 C 
ENDBRANCH  31  35
ENDBRANCH  30  31
ENDBRANCH  29  30
ENDBRANCH  26  29
ENDBRANCH   1  25
TORSDOF 9
ENDMDL
MODEL 9
REMARK VINA RESULT:      -7.2      2.067      2.715
REMARK  9 active torsions:
REMARK  status: ('A' for Active; 'I' for Inactive)
REMARK    1  A    between atoms: C_2  and  N_3 
REMARK    2  A    between atoms: N_3  and  C_5 
REMARK    3  A    between atoms: N_3  and  C_33 
REMARK    4  A    between atoms: C_5  and  C_6 
REMARK    5  A    between atoms: C_6  and  N_7 
REMARK       I    between atoms: N_7  and  C_8 
REMARK    6  A    between atoms: C_8  and  C_9 
REMARK    7  A    between atoms: N_15  and  C_16 
REMARK    8  A    between atoms: C_16  and  C_17 
REMARK       I    between atoms: C_17  and  N_18 
REMARK    9  A    between atoms: N_18  and  C_19 
ROOT
HETATM    1  C   UNL     1      39.755  -9.962   7.327  1.00  0.00     0.081 A 
HETATM    2  S   UNL     1      38.634 -11.067   6.644  1.00  0.00    -0.063 SA
HETATM    3  C   UNL     1      39.611 -11.337   5.284  1.00  0.00     0.116 A 
HETATM    4  C   UNL     1      40.772 -10.600   5.327  1.00  0.00     0.075 A 
HETATM    5  C   UNL     1      41.733 -10.808   4.250  1.00  0.00     0.262 A 
HETATM    6  O   UNL     1      42.819 -10.236   4.205  1.00  0.00    -0.267 OA
HETATM    7  N   UNL     1      41.321 -11.731   3.291  1.00  0.00    -0.299 N 
HETATM    8  C   UNL     1      40.113 -12.394   3.392  1.00  0.00     0.214 A 
HETATM    9  N   UNL     1      39.235 -12.221   4.327  1.00  0.00    -0.235 NA
HETATM   10  C   UNL     1      40.844  -9.742   6.488  1.00  0.00    -0.021 A 
HETATM   11  C   UNL     1      41.978  -8.809   6.789  1.00  0.00     0.051 C 
ENDROOT
BRANCH   7  12
HETATM   12  C   UNL     1      42.279 -12.129   2.270  1.00  0.00     0.236 C 
BRANCH  12  13
HETATM   13  C   UNL     1      42.252 -13.657   2.125  1.00  0.00     0.240 C 
HETATM   14  N   UNL     1      43.015 -14.303   3.086  1.00  0.00    -0.326 N 
HETATM   15  H   UNL     1      43.495 -13.726   3.767  1.00  0.00     0.169 HD
HETATM   16  O   UNL     1      41.654 -14.195   1.196  1.00  0.00    -0.271 OA
BRANCH  14  17
HETATM   17  C   UNL     1      43.195 -15.696   3.236  1.00  0.00     0.036 A 
HETATM   18  C   UNL     1      43.260 -16.351   4.466  1.00  0.00     0.053 A 
HETATM   19  C   UNL     1      43.452 -17.738   4.527  1.00  0.00     0.042 A 
HETATM   20 CL   UNL     1      43.537 -18.472   6.091  1.00  0.00    -0.084 Cl
HETATM   21  C   UNL     1      43.578 -18.499   3.357  1.00  0.00    -0.040 A 
HETATM   22  C   UNL     1      43.790 -19.986   3.393  1.00  0.00     0.050 C 
HETATM   23  C   UNL     1      43.515 -17.837   2.124  1.00  0.00     0.011 A 
HETATM   24  C   UNL     1      43.327 -16.452   2.065  1.00  0.00     0.030 A 
ENDBRANCH  14  17
ENDBRANCH  12  13
ENDBRANCH   7  12
BRANCH   1  25
HETATM   25  C   UNL     1      39.473  -9.379   8.629  1.00  0.00     0.259 C 
HETATM   26  N   UNL     1      40.240  -9.865   9.678  1.00  0.00    -0.355 N 
HETATM   27  H   UNL     1      41.042 -10.417   9.385  1.00  0.00     0.162 HD
HETATM   28  O   UNL     1      38.621  -8.522   8.844  1.00  0.00    -0.267 OA
BRANCH  26  29
HETATM   29  C   UNL     1      40.354  -9.137  10.936  1.00  0.00     0.150 C 
BRANCH  29  30
HETATM   30  C   UNL     1      41.291  -9.778  11.978  1.00  0.00     0.254 C 
BRANCH  30  31
HETATM   31  N   UNL     1      42.143  -8.730  12.688  1.00  0.00    -0.070 N 
HETATM   32  H   UNL     1      41.610  -7.858  12.553  1.00  0.00     0.279 HD
BRANCH  31  33
HETATM   33  C   UNL     1      43.484  -8.507  12.020  1.00  0.00     0.230 C 
HETATM   34  C   UNL     1      43.965  -9.772  11.330  1.00  0.00     0.034 C 
ENDBRANCH  31  33
BRANCH  31  35
HETATM   35  C   UNL     1      42.252  -8.895  14.188  1.00  0.00     0.230 C 
HETATM   36  C   UNL     1      42.220  -7.569  14.925  1.00  0.00     0.034 C 
ENDBRANCH  31  35
ENDBRANCH  30  31
ENDBRANCH  29  30
ENDBRANCH  26  29
ENDBRANCH   1  25
TORSDOF 9
ENDMDL
MODEL 10
REMARK VINA RESULT:      -7.1      5.493      9.335
REMARK  9 active torsions:
REMARK  status: ('A' for Active; 'I' for Inactive)
REMARK    1  A    between atoms: C_2  and  N_3 
REMARK    2  A    between atoms: N_3  and  C_5 
REMARK    3  A    between atoms: N_3  and  C_33 
REMARK    4  A    between atoms: C_5  and  C_6 
REMARK    5  A    between atoms: C_6  and  N_7 
REMARK       I    between atoms: N_7  and  C_8 
REMARK    6  A    between atoms: C_8  and  C_9 
REMARK    7  A    between atoms: N_15  and  C_16 
REMARK    8  A    between atoms: C_16  and  C_17 
REMARK       I    between atoms: C_17  and  N_18 
REMARK    9  A    between atoms: N_18  and  C_19 
ROOT
HETATM    1  C   UNL     1      41.911 -13.683   4.283  1.00  0.00     0.081 A 
HETATM    2  S   UNL     1      40.578 -12.795   4.900  1.00  0.00    -0.063 SA
HETATM    3  C   UNL     1      39.993 -12.445   3.347  1.00  0.00     0.116 A 
HETATM    4  C   UNL     1      40.792 -12.980   2.361  1.00  0.00     0.075 A 
HETATM    5  C   UNL     1      40.347 -12.815   0.982  1.00  0.00     0.262 A 
HETATM    6  O   UNL     1      40.956 -13.284   0.025  1.00  0.00    -0.267 OA
HETATM    7  N   UNL     1      39.158 -12.101   0.849  1.00  0.00    -0.299 N 
HETATM    8  C   UNL     1      38.469 -11.625   1.949  1.00  0.00     0.214 A 
HETATM    9  N   UNL     1      38.846 -11.744   3.182  1.00  0.00    -0.235 NA
HETATM   10  C   UNL     1      41.953 -13.657   2.892  1.00  0.00    -0.021 A 
HETATM   11  C   UNL     1      43.011 -14.315   2.058  1.00  0.00     0.051 C 
ENDROOT
BRANCH   7  12
HETATM   12  C   UNL     1      38.549 -12.028  -0.470  1.00  0.00     0.236 C 
BRANCH  12  13
HETATM   13  C   UNL     1      38.957 -10.709  -1.139  1.00  0.00     0.240 C 
HETATM   14  N   UNL     1      40.257 -10.729  -1.622  1.00  0.00    -0.326 N 
HETATM   15  H   UNL     1      40.790 -11.582  -1.495  1.00  0.00     0.169 HD
HETATM   16  O   UNL     1      38.196  -9.745  -1.158  1.00  0.00    -0.271 OA
BRANCH  14  17
HETATM   17  C   UNL     1      40.934  -9.686  -2.293  1.00  0.00     0.036 A 
HETATM   18  C   UNL     1      41.911  -8.880  -1.706  1.00  0.00     0.053 A 
HETATM   19  C   UNL     1      42.526  -7.857  -2.440  1.00  0.00     0.042 A 
HETATM   20 CL   UNL     1      43.716  -6.893  -1.636  1.00  0.00    -0.084 Cl
HETATM   21  C   UNL     1      42.182  -7.624  -3.778  1.00  0.00    -0.040 A 
HETATM   22  C   UNL     1      42.822  -6.530  -4.587  1.00  0.00     0.050 C 
HETATM   23  C   UNL     1      41.198  -8.432  -4.362  1.00  0.00     0.011 A 
HETATM   24  C   UNL     1      40.581  -9.450  -3.627  1.00  0.00     0.030 A 
ENDBRANCH  14  17
ENDBRANCH  12  13
ENDBRANCH   7  12
BRANCH   1  25
HETATM   25  C   UNL     1      42.825 -14.326   5.213  1.00  0.00     0.259 C 
HETATM   26  N   UNL     1      42.677 -15.699   5.343  1.00  0.00    -0.355 N 
HETATM   27  H   UNL     1      42.090 -16.122   4.628  1.00  0.00     0.162 HD
HETATM   28  O   UNL     1      43.683 -13.742   5.870  1.00  0.00    -0.267 OA
BRANCH  26  29
HETATM   29  C   UNL     1      43.731 -16.526   5.916  1.00  0.00     0.150 C 
BRANCH  29  30
HETATM   30  C   UNL     1      43.544 -18.045   5.729  1.00  0.00     0.254 C 
BRANCH  30  31
HETATM   31  N   UNL     1      44.133 -18.525   4.406  1.00  0.00    -0.070 N 
HETATM   32  H   UNL     1      45.086 -18.132   4.413  1.00  0.00     0.279 HD
BRANCH  31  33
HETATM   33  C   UNL     1      43.443 -17.925   3.199  1.00  0.00     0.230 C 
HETATM   34  C   UNL     1      43.098 -18.997   2.181  1.00  0.00     0.034 C 
ENDBRANCH  31  33
BRANCH  31  35
HETATM   35  C   UNL     1      44.326 -20.021   4.291  1.00  0.00     0.230 C 
HETATM   36  C   UNL     1      44.022 -20.750   5.587  1.00  0.00     0.034 C 
ENDBRANCH  31  35
ENDBRANCH  30  31
ENDBRANCH  29  30
ENDBRANCH  26  29
ENDBRANCH   1  25
TORSDOF 9
ENDMDL
