MODEL 1
REMARK VINA RESULT:      -8.9      0.000      0.000
REMARK  2 active torsions:
REMARK  status: ('A' for Active; 'I' for Inactive)
REMARK    1  A    between atoms: C_15  and  C_16 
REMARK    2  A    between atoms: C_19  and  O_20 
ROOT
HETATM    1  C   UNL     1      43.465 -20.574   1.552  1.00  0.00     0.048 C 
HETATM    2  C   UNL     1      43.597 -19.607   2.693  1.00  0.00    -0.061 A 
HETATM    3  C   UNL     1      43.342 -18.237   2.496  1.00  0.00     0.021 A 
HETATM    4  C   UNL     1      43.460 -17.338   3.576  1.00  0.00    -0.000 A 
HETATM    5  C   UNL     1      43.832 -17.848   4.826  1.00  0.00     0.043 A 
HETATM    6  N   UNL     1      43.917 -16.786   5.697  1.00  0.00    -0.353 N 
HETATM    7  H   UNL     1      44.175 -16.843   6.673  1.00  0.00     0.166 HD
HETATM    8  C   UNL     1      43.548 -15.645   5.056  1.00  0.00     0.066 A 
HETATM    9  C   UNL     1      43.274 -15.935   3.735  1.00  0.00    -0.017 A 
HETATM   10  C   UNL     1      42.855 -14.868   2.761  1.00  0.00     0.043 C 
HETATM   11  C   UNL     1      43.085 -13.437   3.338  1.00  0.00     0.018 C 
HETATM   12  C   UNL     1      42.630 -13.343   4.811  1.00  0.00     0.065 C 
HETATM   13  C   UNL     1      43.456 -14.330   5.586  1.00  0.00     0.082 C 
HETATM   14  N   UNL     1      44.094 -13.898   6.622  1.00  0.00    -0.203 NA
HETATM   15  C   UNL     1      42.985 -12.071   5.590  1.00  0.00     0.121 C 
HETATM   16  N   UNL     1      43.759 -12.594   6.729  1.00  0.00    -0.207 NA
HETATM   17  C   UNL     1      44.055 -19.209   5.054  1.00  0.00     0.031 A 
HETATM   18  C   UNL     1      43.925 -20.078   3.969  1.00  0.00     0.009 A 
HETATM   19  H   UNL     1      44.527 -11.987   7.012  1.00  0.00     0.149 HD
ENDROOT
BRANCH  15  20
HETATM   20  C   UNL     1      41.813 -11.281   6.150  1.00  0.00    -0.038 A 
HETATM   21  C   UNL     1      40.507 -11.802   6.143  1.00  0.00     0.011 A 
HETATM   22  C   UNL     1      39.464 -11.139   6.792  1.00  0.00     0.037 A 
HETATM   23  C   UNL     1      39.719  -9.969   7.499  1.00  0.00     0.068 A 
HETATM   24  C   UNL     1      40.998  -9.417   7.493  1.00  0.00     0.037 A 
HETATM   25  C   UNL     1      42.042 -10.071   6.826  1.00  0.00     0.011 A 
BRANCH  23  26
HETATM   26  O   UNL     1      38.659  -9.409   8.156  1.00  0.00    -0.356 OA
HETATM   27  C   UNL     1      39.014  -8.919   9.448  1.00  0.00     0.210 C 
ENDBRANCH  23  26
ENDBRANCH  15  20
TORSDOF 2
ENDMDL
MODEL 2
REMARK VINA RESULT:      -8.7      5.018      8.632
REMARK  2 active torsions:
REMARK  status: ('A' for Active; 'I' for Inactive)
REMARK    1  A    between atoms: C_15  and  C_16 
REMARK    2  A    between atoms: C_19  and  O_20 
ROOT
HETATM    1  C   UNL     1      40.620  -9.255  -4.155  1.00  0.00     0.048 C 
HETATM    2  C   UNL     1      40.887  -9.694  -2.745  1.00  0.00    -0.061 A 
HETATM    3  C   UNL     1      40.665 -11.030  -2.363  1.00  0.00     0.021 A 
HETATM    4  C   UNL     1      40.926 -11.435  -1.039  1.00  0.00    -0.000 A 
HETATM    5  C   UNL     1      41.407 -10.479  -0.134  1.00  0.00     0.043 A 
HETATM    6  N   UNL     1      41.546 -11.098   1.087  1.00  0.00    -0.353 N 
HETATM    7  H   UNL     1      41.866 -10.657   1.938  1.00  0.00     0.166 HD
HETATM    8  C   UNL     1      41.236 -12.416   0.964  1.00  0.00     0.066 A 
HETATM    9  C   UNL     1      40.829 -12.667  -0.331  1.00  0.00    -0.017 A 
HETATM   10  C   UNL     1      40.401 -14.040  -0.773  1.00  0.00     0.043 C 
HETATM   11  C   UNL     1      40.180 -14.996   0.441  1.00  0.00     0.018 C 
HETATM   12  C   UNL     1      41.308 -14.851   1.485  1.00  0.00     0.065 C 
HETATM   13  C   UNL     1      41.280 -13.426   1.962  1.00  0.00     0.082 C 
HETATM   14  N   UNL     1      41.206 -13.219   3.235  1.00  0.00    -0.203 NA
HETATM   15  C   UNL     1      41.128 -15.557   2.834  1.00  0.00     0.121 C 
HETATM   16  N   UNL     1      41.225 -14.447   3.797  1.00  0.00    -0.207 NA
HETATM   17  C   UNL     1      41.669  -9.156  -0.499  1.00  0.00     0.031 A 
HETATM   18  C   UNL     1      41.407  -8.783  -1.819  1.00  0.00     0.009 A 
HETATM   19  H   UNL     1      40.605 -14.549   4.600  1.00  0.00     0.149 HD
ENDROOT
BRANCH  15  20
HETATM   20  C   UNL     1      42.192 -16.580   3.199  1.00  0.00    -0.038 A 
HETATM   21  C   UNL     1      42.719 -16.659   4.500  1.00  0.00     0.011 A 
HETATM   22  C   UNL     1      43.581 -17.694   4.866  1.00  0.00     0.037 A 
HETATM   23  C   UNL     1      43.894 -18.693   3.951  1.00  0.00     0.068 A 
HETATM   24  C   UNL     1      43.411 -18.619   2.647  1.00  0.00     0.037 A 
HETATM   25  C   UNL     1      42.560 -17.569   2.273  1.00  0.00     0.011 A 
BRANCH  23  26
HETATM   26  O   UNL     1      44.699 -19.703   4.400  1.00  0.00    -0.356 OA
HETATM   27  C   UNL     1      44.014 -20.602   5.271  1.00  0.00     0.210 C 
ENDBRANCH  23  26
ENDBRANCH  15  20
TORSDOF 2
ENDMDL
MODEL 3
REMARK VINA RESULT:      -8.6      1.924      2.174
REMARK  2 active torsions:
REMARK  status: ('A' for Active; 'I' for Inactive)
REMARK    1  A    between atoms: C_15  and  C_16 
REMARK    2  A    between atoms: C_19  and  O_20 
ROOT
HETATM    1  C   UNL     1      43.794 -20.580   1.880  1.00  0.00     0.048 C 
HETATM    2  C   UNL     1      43.736 -19.375   2.773  1.00  0.00    -0.061 A 
HETATM    3  C   UNL     1      43.258 -18.147   2.279  1.00  0.00     0.021 A 
HETATM    4  C   UNL     1      43.200 -17.023   3.128  1.00  0.00    -0.000 A 
HETATM    5  C   UNL     1      43.625 -17.170   4.455  1.00  0.00     0.043 A 
HETATM    6  N   UNL     1      43.510 -15.941   5.064  1.00  0.00    -0.353 N 
HETATM    7  H   UNL     1      43.753 -15.734   6.024  1.00  0.00     0.166 HD
HETATM    8  C   UNL     1      42.969 -15.052   4.191  1.00  0.00     0.066 A 
HETATM    9  C   UNL     1      42.776 -15.672   2.972  1.00  0.00    -0.017 A 
HETATM   10  C   UNL     1      42.205 -14.936   1.792  1.00  0.00     0.043 C 
HETATM   11  C   UNL     1      42.177 -13.394   2.030  1.00  0.00     0.018 C 
HETATM   12  C   UNL     1      41.681 -13.052   3.452  1.00  0.00     0.065 C 
HETATM   13  C   UNL     1      42.645 -13.687   4.414  1.00  0.00     0.082 C 
HETATM   14  N   UNL     1      43.178 -12.932   5.316  1.00  0.00    -0.203 NA
HETATM   15  C   UNL     1      41.800 -11.597   3.920  1.00  0.00     0.121 C 
HETATM   16  N   UNL     1      42.625 -11.714   5.134  1.00  0.00    -0.207 NA
HETATM   17  C   UNL     1      44.069 -18.387   4.978  1.00  0.00     0.031 A 
HETATM   18  C   UNL     1      44.111 -19.486   4.117  1.00  0.00     0.009 A 
HETATM   19  H   UNL     1      43.274 -10.937   5.261  1.00  0.00     0.149 HD
ENDROOT
BRANCH  15  20
HETATM   20  C   UNL     1      40.499 -10.912   4.309  1.00  0.00    -0.038 A 
HETATM   21  C   UNL     1      40.015 -10.952   5.628  1.00  0.00     0.011 A 
HETATM   22  C   UNL     1      38.904 -10.198   6.010  1.00  0.00     0.037 A 
HETATM   23  C   UNL     1      38.287  -9.357   5.092  1.00  0.00     0.068 A 
HETATM   24  C   UNL     1      38.728  -9.325   3.771  1.00  0.00     0.037 A 
HETATM   25  C   UNL     1      39.832 -10.096   3.381  1.00  0.00     0.011 A 
BRANCH  23  26
HETATM   26  O   UNL     1      37.241  -8.608   5.554  1.00  0.00    -0.356 OA
HETATM   27  C   UNL     1      36.953  -7.491   4.713  1.00  0.00     0.210 C 
ENDBRANCH  23  26
ENDBRANCH  15  20
TORSDOF 2
ENDMDL
MODEL 4
REMARK VINA RESULT:      -8.2      3.798      9.582
REMARK  2 active torsions:
REMARK  status: ('A' for Active; 'I' for Inactive)
REMARK    1  A    between atoms: C_15  and  C_16 
REMARK    2  A    between atoms: C_19  and  O_20 
ROOT
HETATM    1  C   UNL     1      43.199  -7.080  14.685  1.00  0.00     0.048 C 
HETATM    2  C   UNL     1      42.730  -7.462  13.311  1.00  0.00    -0.061 A 
HETATM    3  C   UNL     1      43.558  -8.223  12.464  1.00  0.00     0.021 A 
HETATM    4  C   UNL     1      43.105  -8.584  11.179  1.00  0.00    -0.000 A 
HETATM    5  C   UNL     1      41.827  -8.167  10.783  1.00  0.00     0.043 A 
HETATM    6  N   UNL     1      41.631  -8.603   9.493  1.00  0.00    -0.353 N 
HETATM    7  H   UNL     1      40.802  -8.444   8.936  1.00  0.00     0.166 HD
HETATM    8  C   UNL     1      42.707  -9.332   9.093  1.00  0.00     0.066 A 
HETATM    9  C   UNL     1      43.654  -9.332  10.098  1.00  0.00    -0.017 A 
HETATM   10  C   UNL     1      44.970 -10.044   9.945  1.00  0.00     0.043 C 
HETATM   11  C   UNL     1      45.230 -10.466   8.465  1.00  0.00     0.018 C 
HETATM   12  C   UNL     1      43.962 -11.066   7.820  1.00  0.00     0.065 C 
HETATM   13  C   UNL     1      42.907  -9.996   7.853  1.00  0.00     0.082 C 
HETATM   14  N   UNL     1      42.323  -9.693   6.743  1.00  0.00    -0.203 NA
HETATM   15  C   UNL     1      43.985 -11.331   6.309  1.00  0.00     0.121 C 
HETATM   16  N   UNL     1      42.848 -10.531   5.823  1.00  0.00    -0.207 NA
HETATM   17  C   UNL     1      40.974  -7.442  11.620  1.00  0.00     0.031 A 
HETATM   18  C   UNL     1      41.445  -7.103  12.890  1.00  0.00     0.009 A 
HETATM   19  H   UNL     1      43.010 -10.103   4.912  1.00  0.00     0.149 HD
ENDROOT
BRANCH  15  20
HETATM   20  C   UNL     1      43.755 -12.771   5.880  1.00  0.00    -0.038 A 
HETATM   21  C   UNL     1      43.947 -13.842   6.771  1.00  0.00     0.011 A 
HETATM   22  C   UNL     1      43.590 -15.145   6.418  1.00  0.00     0.037 A 
HETATM   23  C   UNL     1      42.994 -15.391   5.187  1.00  0.00     0.068 A 
HETATM   24  C   UNL     1      42.824 -14.352   4.274  1.00  0.00     0.037 A 
HETATM   25  C   UNL     1      43.199 -13.047   4.620  1.00  0.00     0.011 A 
BRANCH  23  26
HETATM   26  O   UNL     1      42.621 -16.683   4.935  1.00  0.00    -0.356 OA
HETATM   27  C   UNL     1      43.149 -17.175   3.704  1.00  0.00     0.210 C 
ENDBRANCH  23  26
ENDBRANCH  15  20
TORSDOF 2
ENDMDL
MODEL 5
REMARK VINA RESULT:      -8.1      3.613      4.622
REMARK  2 active torsions:
REMARK  status: ('A' for Active; 'I' for Inactive)
REMARK    1  A    between atoms: C_15  and  C_16 
REMARK    2  A    between atoms: C_19  and  O_20 
ROOT
HETATM    1  C   UNL     1      44.454 -21.186   5.076  1.00  0.00     0.048 C 
HETATM    2  C   UNL     1      43.984 -19.774   5.276  1.00  0.00    -0.061 A 
HETATM    3  C   UNL     1      43.886 -18.895   4.181  1.00  0.00     0.021 A 
HETATM    4  C   UNL     1      43.436 -17.574   4.379  1.00  0.00    -0.000 A 
HETATM    5  C   UNL     1      43.095 -17.176   5.678  1.00  0.00     0.043 A 
HETATM    6  N   UNL     1      42.727 -15.851   5.621  1.00  0.00    -0.353 N 
HETATM    7  H   UNL     1      42.438 -15.285   6.407  1.00  0.00     0.166 HD
HETATM    8  C   UNL     1      42.760 -15.428   4.329  1.00  0.00     0.066 A 
HETATM    9  C   UNL     1      43.211 -16.456   3.526  1.00  0.00    -0.017 A 
HETATM   10  C   UNL     1      43.374 -16.286   2.041  1.00  0.00     0.043 C 
HETATM   11  C   UNL     1      43.287 -14.786   1.617  1.00  0.00     0.018 C 
HETATM   12  C   UNL     1      42.133 -14.062   2.343  1.00  0.00     0.065 C 
HETATM   13  C   UNL     1      42.422 -14.147   3.816  1.00  0.00     0.082 C 
HETATM   14  N   UNL     1      42.432 -13.047   4.491  1.00  0.00    -0.203 NA
HETATM   15  C   UNL     1      42.046 -12.537   2.205  1.00  0.00     0.121 C 
HETATM   16  N   UNL     1      42.107 -12.081   3.605  1.00  0.00    -0.207 NA
HETATM   17  C   UNL     1      43.150 -18.040   6.774  1.00  0.00     0.031 A 
HETATM   18  C   UNL     1      43.593 -19.345   6.550  1.00  0.00     0.009 A 
HETATM   19  H   UNL     1      42.622 -11.210   3.727  1.00  0.00     0.149 HD
ENDROOT
BRANCH  15  20
HETATM   20  C   UNL     1      40.764 -11.993   1.597  1.00  0.00    -0.038 A 
HETATM   21  C   UNL     1      40.675 -11.681   0.229  1.00  0.00     0.011 A 
HETATM   22  C   UNL     1      39.455 -11.327  -0.352  1.00  0.00     0.037 A 
HETATM   23  C   UNL     1      38.297 -11.324   0.416  1.00  0.00     0.068 A 
HETATM   24  C   UNL     1      38.364 -11.598   1.780  1.00  0.00     0.037 A 
HETATM   25  C   UNL     1      39.591 -11.935   2.368  1.00  0.00     0.011 A 
BRANCH  23  26
HETATM   26  O   UNL     1      37.133 -11.023  -0.235  1.00  0.00    -0.356 OA
HETATM   27  C   UNL     1      37.347 -10.651  -1.596  1.00  0.00     0.210 C 
ENDBRANCH  23  26
ENDBRANCH  15  20
TORSDOF 2
ENDMDL
MODEL 6
REMARK VINA RESULT:      -8.1      2.349      3.300
REMARK  2 active torsions:
REMARK  status: ('A' for Active; 'I' for Inactive)
REMARK    1  A    between atoms: C_15  and  C_16 
REMARK    2  A    between atoms: C_19  and  O_20 
ROOT
HETATM    1  C   UNL     1      44.313 -21.641   4.541  1.00  0.00     0.048 C 
HETATM    2  C   UNL     1      43.999 -20.222   4.167  1.00  0.00    -0.061 A 
HETATM    3  C   UNL     1      43.723 -19.269   5.165  1.00  0.00     0.021 A 
HETATM    4  C   UNL     1      43.438 -17.936   4.804  1.00  0.00    -0.000 A 
HETATM    5  C   UNL     1      43.441 -17.601   3.444  1.00  0.00     0.043 A 
HETATM    6  N   UNL     1      43.101 -16.271   3.345  1.00  0.00    -0.353 N 
HETATM    7  H   UNL     1      43.012 -15.748   2.484  1.00  0.00     0.166 HD
HETATM    8  C   UNL     1      42.952 -15.749   4.590  1.00  0.00     0.066 A 
HETATM    9  C   UNL     1      43.133 -16.747   5.526  1.00  0.00    -0.017 A 
HETATM   10  C   UNL     1      43.013 -16.480   7.001  1.00  0.00     0.043 C 
HETATM   11  C   UNL     1      42.369 -15.087   7.286  1.00  0.00     0.018 C 
HETATM   12  C   UNL     1      42.953 -13.997   6.361  1.00  0.00     0.065 C 
HETATM   13  C   UNL     1      42.641 -14.410   4.950  1.00  0.00     0.082 C 
HETATM   14  N   UNL     1      42.035 -13.557   4.194  1.00  0.00    -0.203 NA
HETATM   15  C   UNL     1      42.276 -12.621   6.362  1.00  0.00     0.121 C 
HETATM   16  N   UNL     1      41.897 -12.446   4.949  1.00  0.00    -0.207 NA
HETATM   17  C   UNL     1      43.748 -18.521   2.438  1.00  0.00     0.031 A 
HETATM   18  C   UNL     1      44.032 -19.833   2.823  1.00  0.00     0.009 A 
HETATM   19  H   UNL     1      41.008 -11.963   4.823  1.00  0.00     0.149 HD
ENDROOT
BRANCH  15  20
HETATM   20  C   UNL     1      43.155 -11.445   6.754  1.00  0.00    -0.038 A 
HETATM   21  C   UNL     1      42.609 -10.175   7.015  1.00  0.00     0.011 A 
HETATM   22  C   UNL     1      43.400  -9.141   7.520  1.00  0.00     0.037 A 
HETATM   23  C   UNL     1      44.738  -9.372   7.815  1.00  0.00     0.068 A 
HETATM   24  C   UNL     1      45.310 -10.612   7.536  1.00  0.00     0.037 A 
HETATM   25  C   UNL     1      44.521 -11.645   7.011  1.00  0.00     0.011 A 
BRANCH  23  26
HETATM   26  O   UNL     1      45.434  -8.328   8.360  1.00  0.00    -0.356 OA
HETATM   27  C   UNL     1      44.591  -7.421   9.069  1.00  0.00     0.210 C 
ENDBRANCH  23  26
ENDBRANCH  15  20
TORSDOF 2
ENDMDL
MODEL 7
REMARK VINA RESULT:      -8.1      1.204      1.926
REMARK  2 active torsions:
REMARK  status: ('A' for Active; 'I' for Inactive)
REMARK    1  A    between atoms: C_15  and  C_16 
REMARK    2  A    between atoms: C_19  and  O_20 
ROOT
HETATM    1  C   UNL     1      43.403 -18.993   2.124  1.00  0.00     0.048 C 
HETATM    2  C   UNL     1      43.515 -18.077   3.308  1.00  0.00    -0.061 A 
HETATM    3  C   UNL     1      43.215 -16.708   3.178  1.00  0.00     0.021 A 
HETATM    4  C   UNL     1      43.315 -15.857   4.297  1.00  0.00    -0.000 A 
HETATM    5  C   UNL     1      43.714 -16.413   5.520  1.00  0.00     0.043 A 
HETATM    6  N   UNL     1      43.773 -15.390   6.439  1.00  0.00    -0.353 N 
HETATM    7  H   UNL     1      44.042 -15.485   7.410  1.00  0.00     0.166 HD
HETATM    8  C   UNL     1      43.363 -14.234   5.855  1.00  0.00     0.066 A 
HETATM    9  C   UNL     1      43.086 -14.470   4.524  1.00  0.00    -0.017 A 
HETATM   10  C   UNL     1      42.624 -13.373   3.605  1.00  0.00     0.043 C 
HETATM   11  C   UNL     1      42.813 -11.963   4.247  1.00  0.00     0.018 C 
HETATM   12  C   UNL     1      42.369 -11.953   5.726  1.00  0.00     0.065 C 
HETATM   13  C   UNL     1      43.234 -12.948   6.447  1.00  0.00     0.082 C 
HETATM   14  N   UNL     1      43.867 -12.544   7.497  1.00  0.00    -0.203 NA
HETATM   15  C   UNL     1      42.691 -10.708   6.561  1.00  0.00     0.121 C 
HETATM   16  N   UNL     1      43.492 -11.258   7.668  1.00  0.00    -0.207 NA
HETATM   17  C   UNL     1      43.982 -17.775   5.682  1.00  0.00     0.031 A 
HETATM   18  C   UNL     1      43.870 -18.596   4.558  1.00  0.00     0.009 A 
HETATM   19  H   UNL     1      44.243 -10.641   7.974  1.00  0.00     0.149 HD
ENDROOT
BRANCH  15  20
HETATM   20  C   UNL     1      41.500  -9.984   7.167  1.00  0.00    -0.038 A 
HETATM   21  C   UNL     1      41.593  -9.326   8.406  1.00  0.00     0.011 A 
HETATM   22  C   UNL     1      40.544  -8.538   8.884  1.00  0.00     0.037 A 
HETATM   23  C   UNL     1      39.404  -8.358   8.110  1.00  0.00     0.068 A 
HETATM   24  C   UNL     1      39.274  -9.025   6.894  1.00  0.00     0.037 A 
HETATM   25  C   UNL     1      40.319  -9.831   6.422  1.00  0.00     0.011 A 
BRANCH  23  26
HETATM   26  O   UNL     1      38.444  -7.528   8.619  1.00  0.00    -0.356 OA
HETATM   27  C   UNL     1      38.946  -6.680   9.652  1.00  0.00     0.210 C 
ENDBRANCH  23  26
ENDBRANCH  15  20
TORSDOF 2
ENDMDL
MODEL 8
REMARK VINA RESULT:      -8.1      3.209      8.534
REMARK  2 active torsions:
REMARK  status: ('A' for Active; 'I' for Inactive)
REMARK    1  A    between atoms: C_15  and  C_16 
REMARK    2  A    between atoms: C_19  and  O_20 
ROOT
HETATM    1  C   UNL     1      41.208  -7.394   7.544  1.00  0.00     0.048 C 
HETATM    2  C   UNL     1      40.780  -8.723   6.994  1.00  0.00    -0.061 A 
HETATM    3  C   UNL     1      41.655  -9.472   6.185  1.00  0.00     0.021 A 
HETATM    4  C   UNL     1      41.247 -10.723   5.680  1.00  0.00    -0.000 A 
HETATM    5  C   UNL     1      39.966 -11.185   6.006  1.00  0.00     0.043 A 
HETATM    6  N   UNL     1      39.788 -12.394   5.372  1.00  0.00    -0.353 N 
HETATM    7  H   UNL     1      38.954 -12.964   5.413  1.00  0.00     0.166 HD
HETATM    8  C   UNL     1      40.931 -12.734   4.719  1.00  0.00     0.066 A 
HETATM    9  C   UNL     1      41.857 -11.721   4.866  1.00  0.00    -0.017 A 
HETATM   10  C   UNL     1      43.221 -11.799   4.238  1.00  0.00     0.043 C 
HETATM   11  C   UNL     1      43.311 -12.954   3.193  1.00  0.00     0.018 C 
HETATM   12  C   UNL     1      42.642 -14.242   3.718  1.00  0.00     0.065 C 
HETATM   13  C   UNL     1      41.198 -13.912   3.970  1.00  0.00     0.082 C 
HETATM   14  N   UNL     1      40.304 -14.662   3.418  1.00  0.00    -0.203 NA
HETATM   15  C   UNL     1      42.452 -15.402   2.733  1.00  0.00     0.121 C 
HETATM   16  N   UNL     1      40.996 -15.622   2.768  1.00  0.00    -0.207 NA
HETATM   17  C   UNL     1      39.093 -10.477   6.836  1.00  0.00     0.031 A 
HETATM   18  C   UNL     1      39.524  -9.243   7.328  1.00  0.00     0.009 A 
HETATM   19  H   UNL     1      40.602 -15.882   1.864  1.00  0.00     0.149 HD
ENDROOT
BRANCH  15  20
HETATM   20  C   UNL     1      43.127 -16.712   3.106  1.00  0.00    -0.038 A 
HETATM   21  C   UNL     1      43.616 -16.943   4.404  1.00  0.00     0.011 A 
HETATM   22  C   UNL     1      44.097 -18.198   4.780  1.00  0.00     0.037 A 
HETATM   23  C   UNL     1      44.053 -19.256   3.880  1.00  0.00     0.068 A 
HETATM   24  C   UNL     1      43.604 -19.045   2.578  1.00  0.00     0.037 A 
HETATM   25  C   UNL     1      43.138 -17.780   2.193  1.00  0.00     0.011 A 
BRANCH  23  26
HETATM   26  O   UNL     1      44.488 -20.468   4.339  1.00  0.00    -0.356 OA
HETATM   27  C   UNL     1      43.908 -20.818   5.595  1.00  0.00     0.210 C 
ENDBRANCH  23  26
ENDBRANCH  15  20
TORSDOF 2
ENDMDL
MODEL 9
REMARK VINA RESULT:      -7.9      5.418      7.131
REMARK  2 active torsions:
REMARK  status: ('A' for Active; 'I' for Inactive)
REMARK    1  A    between atoms: C_15  and  C_16 
REMARK    2  A    between atoms: C_19  and  O_20 
ROOT
HETATM    1  C   UNL     1      44.575 -16.453   6.845  1.00  0.00     0.048 C 
HETATM    2  C   UNL     1      43.881 -16.519   5.516  1.00  0.00    -0.061 A 
HETATM    3  C   UNL     1      43.111 -15.433   5.062  1.00  0.00     0.021 A 
HETATM    4  C   UNL     1      42.470 -15.501   3.808  1.00  0.00    -0.000 A 
HETATM    5  C   UNL     1      42.626 -16.665   3.045  1.00  0.00     0.043 A 
HETATM    6  N   UNL     1      41.885 -16.509   1.896  1.00  0.00    -0.353 N 
HETATM    7  H   UNL     1      41.795 -17.191   1.155  1.00  0.00     0.166 HD
HETATM    8  C   UNL     1      41.329 -15.269   1.882  1.00  0.00     0.066 A 
HETATM    9  C   UNL     1      41.648 -14.614   3.055  1.00  0.00    -0.017 A 
HETATM   10  C   UNL     1      41.159 -13.221   3.341  1.00  0.00     0.043 C 
HETATM   11  C   UNL     1      40.042 -12.784   2.344  1.00  0.00     0.018 C 
HETATM   12  C   UNL     1      40.393 -13.182   0.894  1.00  0.00     0.065 C 
HETATM   13  C   UNL     1      40.521 -14.680   0.872  1.00  0.00     0.082 C 
HETATM   14  N   UNL     1      39.824 -15.330   0.002  1.00  0.00    -0.203 NA
HETATM   15  C   UNL     1      39.307 -13.020  -0.176  1.00  0.00     0.121 C 
HETATM   16  N   UNL     1      39.175 -14.385  -0.713  1.00  0.00    -0.207 NA
HETATM   17  C   UNL     1      43.415 -17.742   3.458  1.00  0.00     0.031 A 
HETATM   18  C   UNL     1      44.043 -17.646   4.702  1.00  0.00     0.009 A 
HETATM   19  H   UNL     1      38.218 -14.634  -0.963  1.00  0.00     0.149 HD
ENDROOT
BRANCH  15  20
HETATM   20  C   UNL     1      39.644 -12.097  -1.336  1.00  0.00    -0.038 A 
HETATM   21  C   UNL     1      39.244 -10.749  -1.341  1.00  0.00     0.011 A 
HETATM   22  C   UNL     1      39.685  -9.871  -2.334  1.00  0.00     0.037 A 
HETATM   23  C   UNL     1      40.568 -10.316  -3.310  1.00  0.00     0.068 A 
HETATM   24  C   UNL     1      40.953 -11.654  -3.345  1.00  0.00     0.037 A 
HETATM   25  C   UNL     1      40.496 -12.541  -2.360  1.00  0.00     0.011 A 
BRANCH  23  26
HETATM   26  O   UNL     1      41.000  -9.385  -4.214  1.00  0.00    -0.356 OA
HETATM   27  C   UNL     1      41.483  -8.197  -3.588  1.00  0.00     0.210 C 
ENDBRANCH  23  26
ENDBRANCH  15  20
TORSDOF 2
ENDMDL
MODEL 10
REMARK VINA RESULT:      -7.9      3.830      7.879
REMARK  2 active torsions:
REMARK  status: ('A' for Active; 'I' for Inactive)
REMARK    1  A    between atoms: C_15  and  C_16 
REMARK    2  A    between atoms: C_19  and  O_20 
ROOT
HETATM    1  C   UNL     1      44.323  -7.360   9.300  1.00  0.00     0.048 C 
HETATM    2  C   UNL     1      44.439  -8.652   8.544  1.00  0.00    -0.061 A 
HETATM    3  C   UNL     1      43.302  -9.236   7.956  1.00  0.00     0.021 A 
HETATM    4  C   UNL     1      43.422 -10.445   7.241  1.00  0.00    -0.000 A 
HETATM    5  C   UNL     1      44.690 -11.032   7.139  1.00  0.00     0.043 A 
HETATM    6  N   UNL     1      44.546 -12.207   6.438  1.00  0.00    -0.353 N 
HETATM    7  H   UNL     1      45.289 -12.856   6.214  1.00  0.00     0.166 HD
HETATM    8  C   UNL     1      43.252 -12.342   6.042  1.00  0.00     0.066 A 
HETATM    9  C   UNL     1      42.515 -11.283   6.533  1.00  0.00    -0.017 A 
HETATM   10  C   UNL     1      41.038 -11.161   6.276  1.00  0.00     0.043 C 
HETATM   11  C   UNL     1      40.440 -12.484   5.702  1.00  0.00     0.018 C 
HETATM   12  C   UNL     1      41.353 -13.090   4.614  1.00  0.00     0.065 C 
HETATM   13  C   UNL     1      42.674 -13.384   5.268  1.00  0.00     0.082 C 
HETATM   14  N   UNL     1      43.146 -14.581   5.158  1.00  0.00    -0.203 NA
HETATM   15  C   UNL     1      41.021 -14.497   4.104  1.00  0.00     0.121 C 
HETATM   16  N   UNL     1      42.259 -15.244   4.386  1.00  0.00    -0.207 NA
HETATM   17  C   UNL     1      45.839 -10.453   7.683  1.00  0.00     0.031 A 
HETATM   18  C   UNL     1      45.693  -9.252   8.381  1.00  0.00     0.009 A 
HETATM   19  H   UNL     1      42.096 -16.209   4.672  1.00  0.00     0.149 HD
ENDROOT
BRANCH  15  20
HETATM   20  C   UNL     1      40.737 -14.618   2.616  1.00  0.00    -0.038 A 
HETATM   21  C   UNL     1      40.187 -15.790   2.066  1.00  0.00     0.011 A 
HETATM   22  C   UNL     1      39.789 -15.840   0.729  1.00  0.00     0.037 A 
HETATM   23  C   UNL     1      39.891 -14.706  -0.068  1.00  0.00     0.068 A 
HETATM   24  C   UNL     1      40.462 -13.544   0.444  1.00  0.00     0.037 A 
HETATM   25  C   UNL     1      40.880 -13.498   1.781  1.00  0.00     0.011 A 
BRANCH  23  26
HETATM   26  O   UNL     1      39.428 -14.816  -1.350  1.00  0.00    -0.356 OA
HETATM   27  C   UNL     1      38.740 -13.645  -1.786  1.00  0.00     0.210 C 
ENDBRANCH  23  26
ENDBRANCH  15  20
TORSDOF 2
ENDMDL
