MODEL 1
REMARK VINA RESULT:      -9.0      0.000      0.000
REMARK  6 active torsions:
REMARK  status: ('A' for Active; 'I' for Inactive)
REMARK    1  A    between atoms: C_3  and  C_4 
REMARK       I    between atoms: C_4  and  N_5 
REMARK    2  A    between atoms: N_5  and  C_6 
REMARK    3  A    between atoms: C_6  and  C_7 
REMARK    4  A    between atoms: C_7  and  C_8 
REMARK    5  A    between atoms: C_19  and  O_20 
REMARK    6  A    between atoms: C_29  and  O_30 
ROOT
HETATM    1  C   UNL     1      42.100 -12.047   3.473  1.00  0.00     0.158 A 
HETATM    2  N   UNL     1      43.287 -11.845   2.887  1.00  0.00    -0.111 NA
HETATM    3  O   UNL     1      44.089 -11.394   3.935  1.00  0.00    -0.189 OA
HETATM    4  C   UNL     1      43.306 -11.379   5.059  1.00  0.00     0.223 A 
HETATM    5  C   UNL     1      43.762 -10.972   6.346  1.00  0.00     0.089 A 
HETATM    6  N   UNL     1      42.934 -10.959   7.438  1.00  0.00    -0.352 N 
HETATM    7  H   UNL     1      41.958 -11.228   7.417  1.00  0.00     0.166 HD
HETATM    8  C   UNL     1      43.614 -10.527   8.553  1.00  0.00     0.045 A 
HETATM    9  C   UNL     1      44.921 -10.254   8.153  1.00  0.00    -0.007 A 
HETATM   10  C   UNL     1      45.004 -10.538   6.762  1.00  0.00     0.048 A 
HETATM   11  C   UNL     1      43.179 -10.356   9.872  1.00  0.00     0.067 A 
HETATM   12  C   UNL     1      44.100  -9.892  10.820  1.00  0.00     0.070 A 
HETATM   13  C   UNL     1      45.414  -9.610  10.443  1.00  0.00     0.038 A 
HETATM   14  C   UNL     1      45.836  -9.788   9.116  1.00  0.00     0.016 A 
HETATM   15  N   UNL     1      42.075 -11.788   4.822  1.00  0.00    -0.203 NA
ENDROOT
BRANCH   1  16
HETATM   16  C   UNL     1      40.931 -12.557   2.715  1.00  0.00     0.103 C 
BRANCH  16  17
HETATM   17  C   UNL     1      41.293 -13.670   1.729  1.00  0.00     0.133 C 
BRANCH  17  18
HETATM   18  N   UNL     1      41.616 -14.931   2.402  1.00  0.00    -0.352 N 
HETATM   19  C   UNL     1      42.918 -15.419   2.290  1.00  0.00     0.254 C 
HETATM   20  O   UNL     1      43.826 -14.791   1.753  1.00  0.00    -0.267 OA
HETATM   21  C   UNL     1      40.573 -15.525   3.230  1.00  0.00     0.152 C 
BRANCH  19  22
HETATM   22  C   UNL     1      43.221 -16.766   2.829  1.00  0.00     0.038 A 
HETATM   23  C   UNL     1      43.589 -16.946   4.174  1.00  0.00    -0.044 A 
HETATM   24  C   UNL     1      43.711 -15.783   5.120  1.00  0.00     0.049 C 
HETATM   25  C   UNL     1      43.876 -18.247   4.628  1.00  0.00     0.044 A 
HETATM   26  C   UNL     1      43.792 -19.343   3.764  1.00  0.00     0.068 A 
HETATM   27  C   UNL     1      43.448 -19.139   2.426  1.00  0.00     0.038 A 
HETATM   28  C   UNL     1      43.169 -17.857   1.953  1.00  0.00     0.020 A 
BRANCH  26  29
HETATM   29  O   UNL     1      44.032 -20.648   4.095  1.00  0.00    -0.356 OA
HETATM   30  C   UNL     1      43.985 -20.982   5.476  1.00  0.00     0.210 C 
ENDBRANCH  26  29
ENDBRANCH  19  22
ENDBRANCH  17  18
ENDBRANCH  16  17
ENDBRANCH   1  16
BRANCH  12  31
HETATM   31  O   UNL     1      43.584  -9.756  12.082  1.00  0.00    -0.356 OA
HETATM   32  C   UNL     1      42.168  -9.795  12.208  1.00  0.00     0.210 C 
ENDBRANCH  12  31
TORSDOF 6
ENDMDL
MODEL 2
REMARK VINA RESULT:      -8.9      2.098      3.489
REMARK  6 active torsions:
REMARK  status: ('A' for Active; 'I' for Inactive)
REMARK    1  A    between atoms: C_3  and  C_4 
REMARK       I    between atoms: C_4  and  N_5 
REMARK    2  A    between atoms: N_5  and  C_6 
REMARK    3  A    between atoms: C_6  and  C_7 
REMARK    4  A    between atoms: C_7  and  C_8 
REMARK    5  A    between atoms: C_19  and  O_20 
REMARK    6  A    between atoms: C_29  and  O_30 
ROOT
HETATM    1  C   UNL     1      44.205 -11.317   6.344  1.00  0.00     0.158 A 
HETATM    2  N   UNL     1      45.391 -11.607   6.892  1.00  0.00    -0.111 NA
HETATM    3  O   UNL     1      45.226 -11.234   8.226  1.00  0.00    -0.189 OA
HETATM    4  C   UNL     1      43.946 -10.765   8.353  1.00  0.00     0.223 A 
HETATM    5  C   UNL     1      43.389 -10.283   9.573  1.00  0.00     0.089 A 
HETATM    6  N   UNL     1      42.105  -9.807   9.646  1.00  0.00    -0.352 N 
HETATM    7  H   UNL     1      41.469  -9.761   8.861  1.00  0.00     0.166 HD
HETATM    8  C   UNL     1      41.814  -9.402  10.928  1.00  0.00     0.045 A 
HETATM    9  C   UNL     1      42.955  -9.627  11.696  1.00  0.00    -0.007 A 
HETATM   10  C   UNL     1      43.941 -10.181  10.834  1.00  0.00     0.048 A 
HETATM   11  C   UNL     1      40.641  -8.858  11.463  1.00  0.00     0.067 A 
HETATM   12  C   UNL     1      40.624  -8.529  12.825  1.00  0.00     0.070 A 
HETATM   13  C   UNL     1      41.755  -8.744  13.614  1.00  0.00     0.038 A 
HETATM   14  C   UNL     1      42.924  -9.291  13.063  1.00  0.00     0.016 A 
HETATM   15  N   UNL     1      43.275 -10.813   7.219  1.00  0.00    -0.203 NA
ENDROOT
BRANCH   1  16
HETATM   16  C   UNL     1      43.923 -11.577   4.910  1.00  0.00     0.103 C 
BRANCH  16  17
HETATM   17  C   UNL     1      42.627 -12.357   4.683  1.00  0.00     0.133 C 
BRANCH  17  18
HETATM   18  N   UNL     1      42.853 -13.627   3.985  1.00  0.00    -0.352 N 
HETATM   19  C   UNL     1      42.365 -14.793   4.573  1.00  0.00     0.254 C 
HETATM   20  O   UNL     1      41.665 -14.794   5.583  1.00  0.00    -0.267 OA
HETATM   21  C   UNL     1      43.478 -13.557   2.670  1.00  0.00     0.152 C 
BRANCH  19  22
HETATM   22  C   UNL     1      42.718 -16.098   3.964  1.00  0.00     0.038 A 
HETATM   23  C   UNL     1      41.978 -16.624   2.892  1.00  0.00    -0.044 A 
HETATM   24  C   UNL     1      40.786 -15.902   2.326  1.00  0.00     0.049 C 
HETATM   25  C   UNL     1      42.353 -17.873   2.360  1.00  0.00     0.044 A 
HETATM   26  C   UNL     1      43.442 -18.577   2.882  1.00  0.00     0.068 A 
HETATM   27  C   UNL     1      44.149 -18.046   3.964  1.00  0.00     0.038 A 
HETATM   28  C   UNL     1      43.788 -16.816   4.511  1.00  0.00     0.020 A 
BRANCH  26  29
HETATM   29  O   UNL     1      43.906 -19.785   2.439  1.00  0.00    -0.356 OA
HETATM   30  C   UNL     1      43.854 -20.871   3.353  1.00  0.00     0.210 C 
ENDBRANCH  26  29
ENDBRANCH  19  22
ENDBRANCH  17  18
ENDBRANCH  16  17
ENDBRANCH   1  16
BRANCH  12  31
HETATM   31  O   UNL     1      39.435  -8.003  13.259  1.00  0.00    -0.356 OA
HETATM   32  C   UNL     1      39.429  -6.626  13.613  1.00  0.00     0.210 C 
ENDBRANCH  12  31
TORSDOF 6
ENDMDL
MODEL 3
REMARK VINA RESULT:      -8.8      2.404      3.420
REMARK  6 active torsions:
REMARK  status: ('A' for Active; 'I' for Inactive)
REMARK    1  A    between atoms: C_3  and  C_4 
REMARK       I    between atoms: C_4  and  N_5 
REMARK    2  A    between atoms: N_5  and  C_6 
REMARK    3  A    between atoms: C_6  and  C_7 
REMARK    4  A    between atoms: C_7  and  C_8 
REMARK    5  A    between atoms: C_19  and  O_20 
REMARK    6  A    between atoms: C_29  and  O_30 
ROOT
HETATM    1  C   UNL     1      43.839 -11.281   6.324  1.00  0.00     0.158 A 
HETATM    2  N   UNL     1      44.686 -12.084   6.980  1.00  0.00    -0.111 NA
HETATM    3  O   UNL     1      44.694 -11.555   8.271  1.00  0.00    -0.189 OA
HETATM    4  C   UNL     1      43.838 -10.486   8.268  1.00  0.00     0.223 A 
HETATM    5  C   UNL     1      43.571  -9.673   9.408  1.00  0.00     0.089 A 
HETATM    6  N   UNL     1      42.717  -8.601   9.351  1.00  0.00    -0.352 N 
HETATM    7  H   UNL     1      42.222  -8.311   8.517  1.00  0.00     0.166 HD
HETATM    8  C   UNL     1      42.636  -7.985  10.578  1.00  0.00     0.045 A 
HETATM    9  C   UNL     1      43.470  -8.689  11.444  1.00  0.00    -0.007 A 
HETATM   10  C   UNL     1      44.054  -9.750  10.698  1.00  0.00     0.048 A 
HETATM   11  C   UNL     1      41.897  -6.869  10.985  1.00  0.00     0.067 A 
HETATM   12  C   UNL     1      42.007  -6.449  12.317  1.00  0.00     0.070 A 
HETATM   13  C   UNL     1      42.838  -7.138  13.203  1.00  0.00     0.038 A 
HETATM   14  C   UNL     1      43.572  -8.257  12.780  1.00  0.00     0.016 A 
HETATM   15  N   UNL     1      43.277 -10.290   7.091  1.00  0.00    -0.203 NA
ENDROOT
BRANCH   1  16
HETATM   16  C   UNL     1      43.511 -11.494   4.892  1.00  0.00     0.103 C 
BRANCH  16  17
HETATM   17  C   UNL     1      42.327 -12.439   4.681  1.00  0.00     0.133 C 
BRANCH  17  18
HETATM   18  N   UNL     1      42.731 -13.722   4.097  1.00  0.00    -0.352 N 
HETATM   19  C   UNL     1      42.329 -14.891   4.743  1.00  0.00     0.254 C 
HETATM   20  O   UNL     1      41.567 -14.898   5.706  1.00  0.00    -0.267 OA
HETATM   21  C   UNL     1      43.433 -13.675   2.820  1.00  0.00     0.152 C 
BRANCH  19  22
HETATM   22  C   UNL     1      42.858 -16.188   4.258  1.00  0.00     0.038 A 
HETATM   23  C   UNL     1      43.878 -16.863   4.951  1.00  0.00    -0.044 A 
HETATM   24  C   UNL     1      44.492 -16.295   6.201  1.00  0.00     0.049 C 
HETATM   25  C   UNL     1      44.348 -18.086   4.437  1.00  0.00     0.044 A 
HETATM   26  C   UNL     1      43.812 -18.626   3.264  1.00  0.00     0.068 A 
HETATM   27  C   UNL     1      42.816 -17.927   2.578  1.00  0.00     0.038 A 
HETATM   28  C   UNL     1      42.343 -16.709   3.065  1.00  0.00     0.020 A 
BRANCH  26  29
HETATM   29  O   UNL     1      44.177 -19.809   2.682  1.00  0.00    -0.356 OA
HETATM   30  C   UNL     1      43.198 -20.470   1.893  1.00  0.00     0.210 C 
ENDBRANCH  26  29
ENDBRANCH  19  22
ENDBRANCH  17  18
ENDBRANCH  16  17
ENDBRANCH   1  16
BRANCH  12  31
HETATM   31  O   UNL     1      41.249  -5.351  12.623  1.00  0.00    -0.356 OA
HETATM   32  C   UNL     1      41.933  -4.219  13.146  1.00  0.00     0.210 C 
ENDBRANCH  12  31
TORSDOF 6
ENDMDL
MODEL 4
REMARK VINA RESULT:      -8.6      4.734      7.732
REMARK  6 active torsions:
REMARK  status: ('A' for Active; 'I' for Inactive)
REMARK    1  A    between atoms: C_3  and  C_4 
REMARK       I    between atoms: C_4  and  N_5 
REMARK    2  A    between atoms: N_5  and  C_6 
REMARK    3  A    between atoms: C_6  and  C_7 
REMARK    4  A    between atoms: C_7  and  C_8 
REMARK    5  A    between atoms: C_19  and  O_20 
REMARK    6  A    between atoms: C_29  and  O_30 
ROOT
HETATM    1  C   UNL     1      40.201 -13.459  -0.852  1.00  0.00     0.158 A 
HETATM    2  N   UNL     1      39.556 -13.587  -2.019  1.00  0.00    -0.111 NA
HETATM    3  O   UNL     1      39.851 -12.395  -2.679  1.00  0.00    -0.189 OA
HETATM    4  C   UNL     1      40.659 -11.667  -1.846  1.00  0.00     0.223 A 
HETATM    5  C   UNL     1      41.177 -10.377  -2.162  1.00  0.00     0.089 A 
HETATM    6  N   UNL     1      41.969  -9.680  -1.286  1.00  0.00    -0.352 N 
HETATM    7  H   UNL     1      42.241 -10.017  -0.371  1.00  0.00     0.166 HD
HETATM    8  C   UNL     1      42.334  -8.469  -1.827  1.00  0.00     0.045 A 
HETATM    9  C   UNL     1      41.751  -8.394  -3.091  1.00  0.00    -0.007 A 
HETATM   10  C   UNL     1      41.025  -9.600  -3.292  1.00  0.00     0.048 A 
HETATM   11  C   UNL     1      43.126  -7.443  -1.301  1.00  0.00     0.067 A 
HETATM   12  C   UNL     1      43.335  -6.298  -2.083  1.00  0.00     0.070 A 
HETATM   13  C   UNL     1      42.760  -6.200  -3.350  1.00  0.00     0.038 A 
HETATM   14  C   UNL     1      41.968  -7.238  -3.865  1.00  0.00     0.016 A 
HETATM   15  N   UNL     1      40.912 -12.293  -0.714  1.00  0.00    -0.203 NA
ENDROOT
BRANCH   1  16
HETATM   16  C   UNL     1      40.175 -14.529   0.176  1.00  0.00     0.103 C 
BRANCH  16  17
HETATM   17  C   UNL     1      40.686 -14.065   1.541  1.00  0.00     0.133 C 
BRANCH  17  18
HETATM   18  N   UNL     1      41.222 -15.169   2.344  1.00  0.00    -0.352 N 
HETATM   19  C   UNL     1      42.606 -15.338   2.384  1.00  0.00     0.254 C 
HETATM   20  O   UNL     1      43.394 -14.547   1.874  1.00  0.00    -0.267 OA
HETATM   21  C   UNL     1      40.265 -15.940   3.128  1.00  0.00     0.152 C 
BRANCH  19  22
HETATM   22  C   UNL     1      43.155 -16.538   3.060  1.00  0.00     0.038 A 
HETATM   23  C   UNL     1      43.502 -16.510   4.421  1.00  0.00    -0.044 A 
HETATM   24  C   UNL     1      43.351 -15.264   5.249  1.00  0.00     0.049 C 
HETATM   25  C   UNL     1      44.029 -17.677   5.008  1.00  0.00     0.044 A 
HETATM   26  C   UNL     1      44.202 -18.843   4.256  1.00  0.00     0.068 A 
HETATM   27  C   UNL     1      43.873 -18.840   2.899  1.00  0.00     0.038 A 
HETATM   28  C   UNL     1      43.358 -17.693   2.296  1.00  0.00     0.020 A 
BRANCH  26  29
HETATM   29  O   UNL     1      44.688 -20.034   4.720  1.00  0.00    -0.356 OA
HETATM   30  C   UNL     1      43.823 -20.810   5.538  1.00  0.00     0.210 C 
ENDBRANCH  26  29
ENDBRANCH  19  22
ENDBRANCH  17  18
ENDBRANCH  16  17
ENDBRANCH   1  16
BRANCH  12  31
HETATM   31  O   UNL     1      44.122  -5.349  -1.486  1.00  0.00    -0.356 OA
HETATM   32  C   UNL     1      43.915  -5.118  -0.099  1.00  0.00     0.210 C 
ENDBRANCH  12  31
TORSDOF 6
ENDMDL
MODEL 5
REMARK VINA RESULT:      -8.6      1.647      9.648
REMARK  6 active torsions:
REMARK  status: ('A' for Active; 'I' for Inactive)
REMARK    1  A    between atoms: C_3  and  C_4 
REMARK       I    between atoms: C_4  and  N_5 
REMARK    2  A    between atoms: N_5  and  C_6 
REMARK    3  A    between atoms: C_6  and  C_7 
REMARK    4  A    between atoms: C_7  and  C_8 
REMARK    5  A    between atoms: C_19  and  O_20 
REMARK    6  A    between atoms: C_29  and  O_30 
ROOT
HETATM    1  C   UNL     1      42.762 -11.869   4.149  1.00  0.00     0.158 A 
HETATM    2  N   UNL     1      42.279 -11.712   2.909  1.00  0.00    -0.111 NA
HETATM    3  O   UNL     1      42.318 -13.004   2.385  1.00  0.00    -0.189 OA
HETATM    4  C   UNL     1      42.811 -13.819   3.370  1.00  0.00     0.223 A 
HETATM    5  C   UNL     1      43.006 -15.223   3.222  1.00  0.00     0.089 A 
HETATM    6  N   UNL     1      43.520 -15.994   4.233  1.00  0.00    -0.352 N 
HETATM    7  H   UNL     1      43.794 -15.637   5.140  1.00  0.00     0.166 HD
HETATM    8  C   UNL     1      43.608 -17.309   3.838  1.00  0.00     0.045 A 
HETATM    9  C   UNL     1      43.137 -17.374   2.528  1.00  0.00    -0.007 A 
HETATM   10  C   UNL     1      42.760 -16.056   2.150  1.00  0.00     0.048 A 
HETATM   11  C   UNL     1      44.067 -18.435   4.530  1.00  0.00     0.067 A 
HETATM   12  C   UNL     1      44.048 -19.672   3.872  1.00  0.00     0.070 A 
HETATM   13  C   UNL     1      43.582 -19.762   2.560  1.00  0.00     0.038 A 
HETATM   14  C   UNL     1      43.124 -18.623   1.879  1.00  0.00     0.016 A 
HETATM   15  N   UNL     1      43.084 -13.162   4.480  1.00  0.00    -0.203 NA
ENDROOT
BRANCH   1  16
HETATM   16  C   UNL     1      42.883 -10.728   5.090  1.00  0.00     0.103 C 
BRANCH  16  17
HETATM   17  C   UNL     1      43.854 -10.997   6.240  1.00  0.00     0.133 C 
BRANCH  17  18
HETATM   18  N   UNL     1      43.403 -10.408   7.504  1.00  0.00    -0.352 N 
HETATM   19  C   UNL     1      44.341 -10.248   8.524  1.00  0.00     0.254 C 
HETATM   20  O   UNL     1      45.540 -10.472   8.376  1.00  0.00    -0.267 OA
HETATM   21  C   UNL     1      42.026  -9.933   7.558  1.00  0.00     0.152 C 
BRANCH  19  22
HETATM   22  C   UNL     1      43.871  -9.802   9.858  1.00  0.00     0.038 A 
HETATM   23  C   UNL     1      43.709  -8.437  10.153  1.00  0.00    -0.044 A 
HETATM   24  C   UNL     1      44.021  -7.369   9.141  1.00  0.00     0.049 C 
HETATM   25  C   UNL     1      43.270  -8.071  11.439  1.00  0.00     0.044 A 
HETATM   26  C   UNL     1      42.996  -9.043  12.407  1.00  0.00     0.068 A 
HETATM   27  C   UNL     1      43.187 -10.392  12.100  1.00  0.00     0.038 A 
HETATM   28  C   UNL     1      43.630 -10.775  10.834  1.00  0.00     0.020 A 
BRANCH  26  29
HETATM   29  O   UNL     1      42.551  -8.808  13.679  1.00  0.00    -0.356 OA
HETATM   30  C   UNL     1      42.447  -7.450  14.085  1.00  0.00     0.210 C 
ENDBRANCH  26  29
ENDBRANCH  19  22
ENDBRANCH  17  18
ENDBRANCH  16  17
ENDBRANCH   1  16
BRANCH  12  31
HETATM   31  O   UNL     1      44.515 -20.715   4.628  1.00  0.00    -0.356 OA
HETATM   32  C   UNL     1      43.893 -20.928   5.888  1.00  0.00     0.210 C 
ENDBRANCH  12  31
TORSDOF 6
ENDMDL
MODEL 6
REMARK VINA RESULT:      -8.3      2.036     10.227
REMARK  6 active torsions:
REMARK  status: ('A' for Active; 'I' for Inactive)
REMARK    1  A    between atoms: C_3  and  C_4 
REMARK       I    between atoms: C_4  and  N_5 
REMARK    2  A    between atoms: N_5  and  C_6 
REMARK    3  A    between atoms: C_6  and  C_7 
REMARK    4  A    between atoms: C_7  and  C_8 
REMARK    5  A    between atoms: C_19  and  O_20 
REMARK    6  A    between atoms: C_29  and  O_30 
ROOT
HETATM    1  C   UNL     1      42.374 -10.560   5.720  1.00  0.00     0.158 A 
HETATM    2  N   UNL     1      42.217 -10.128   4.462  1.00  0.00    -0.111 NA
HETATM    3  O   UNL     1      42.388 -11.286   3.703  1.00  0.00    -0.189 OA
HETATM    4  C   UNL     1      42.620 -12.309   4.584  1.00  0.00     0.223 A 
HETATM    5  C   UNL     1      42.848 -13.661   4.195  1.00  0.00     0.089 A 
HETATM    6  N   UNL     1      43.093 -14.649   5.115  1.00  0.00    -0.352 N 
HETATM    7  H   UNL     1      43.131 -14.499   6.116  1.00  0.00     0.166 HD
HETATM    8  C   UNL     1      43.280 -15.857   4.486  1.00  0.00     0.045 A 
HETATM    9  C   UNL     1      43.152 -15.628   3.117  1.00  0.00    -0.007 A 
HETATM   10  C   UNL     1      42.880 -14.243   2.945  1.00  0.00     0.048 A 
HETATM   11  C   UNL     1      43.552 -17.123   5.015  1.00  0.00     0.067 A 
HETATM   12  C   UNL     1      43.701 -18.197   4.127  1.00  0.00     0.070 A 
HETATM   13  C   UNL     1      43.579 -17.992   2.752  1.00  0.00     0.038 A 
HETATM   14  C   UNL     1      43.304 -16.716   2.236  1.00  0.00     0.016 A 
HETATM   15  N   UNL     1      42.605 -11.908   5.840  1.00  0.00    -0.203 NA
ENDROOT
BRANCH   1  16
HETATM   16  C   UNL     1      42.253  -9.643   6.881  1.00  0.00     0.103 C 
BRANCH  16  17
HETATM   17  C   UNL     1      43.103 -10.074   8.078  1.00  0.00     0.133 C 
BRANCH  17  18
HETATM   18  N   UNL     1      42.823  -9.279   9.278  1.00  0.00    -0.352 N 
HETATM   19  C   UNL     1      43.050  -9.869  10.522  1.00  0.00     0.254 C 
HETATM   20  O   UNL     1      43.573 -10.973  10.657  1.00  0.00    -0.267 OA
HETATM   21  C   UNL     1      42.432  -7.890   9.075  1.00  0.00     0.152 C 
BRANCH  19  22
HETATM   22  C   UNL     1      42.626  -9.140  11.742  1.00  0.00     0.038 A 
HETATM   23  C   UNL     1      41.300  -9.201  12.201  1.00  0.00    -0.044 A 
HETATM   24  C   UNL     1      40.247  -9.989  11.471  1.00  0.00     0.049 C 
HETATM   25  C   UNL     1      40.952  -8.480  13.359  1.00  0.00     0.044 A 
HETATM   26  C   UNL     1      41.906  -7.720  14.044  1.00  0.00     0.068 A 
HETATM   27  C   UNL     1      43.212  -7.654  13.556  1.00  0.00     0.038 A 
HETATM   28  C   UNL     1      43.575  -8.354  12.406  1.00  0.00     0.020 A 
BRANCH  26  29
HETATM   29  O   UNL     1      41.688  -6.994  15.183  1.00  0.00    -0.356 OA
HETATM   30  C   UNL     1      41.307  -7.717  16.346  1.00  0.00     0.210 C 
ENDBRANCH  26  29
ENDBRANCH  19  22
ENDBRANCH  17  18
ENDBRANCH  16  17
ENDBRANCH   1  16
BRANCH  12  31
HETATM   31  O   UNL     1      43.965 -19.395   4.736  1.00  0.00    -0.356 OA
HETATM   32  C   UNL     1      43.933 -20.556   3.917  1.00  0.00     0.210 C 
ENDBRANCH  12  31
TORSDOF 6
ENDMDL
MODEL 7
REMARK VINA RESULT:      -8.2      3.682      8.278
REMARK  6 active torsions:
REMARK  status: ('A' for Active; 'I' for Inactive)
REMARK    1  A    between atoms: C_3  and  C_4 
REMARK       I    between atoms: C_4  and  N_5 
REMARK    2  A    between atoms: N_5  and  C_6 
REMARK    3  A    between atoms: C_6  and  C_7 
REMARK    4  A    between atoms: C_7  and  C_8 
REMARK    5  A    between atoms: C_19  and  O_20 
REMARK    6  A    between atoms: C_29  and  O_30 
ROOT
HETATM    1  C   UNL     1      42.574 -12.206   4.696  1.00  0.00     0.158 A 
HETATM    2  N   UNL     1      42.539 -12.168   6.034  1.00  0.00    -0.111 NA
HETATM    3  O   UNL     1      42.745 -13.499   6.397  1.00  0.00    -0.189 OA
HETATM    4  C   UNL     1      42.897 -14.210   5.236  1.00  0.00     0.223 A 
HETATM    5  C   UNL     1      43.126 -15.615   5.185  1.00  0.00     0.089 A 
HETATM    6  N   UNL     1      43.255 -16.286   3.995  1.00  0.00    -0.352 N 
HETATM    7  H   UNL     1      43.199 -15.847   3.085  1.00  0.00     0.166 HD
HETATM    8  C   UNL     1      43.466 -17.626   4.219  1.00  0.00     0.045 A 
HETATM    9  C   UNL     1      43.469 -17.814   5.600  1.00  0.00    -0.007 A 
HETATM   10  C   UNL     1      43.254 -16.542   6.199  1.00  0.00     0.048 A 
HETATM   11  C   UNL     1      43.652 -18.678   3.316  1.00  0.00     0.067 A 
HETATM   12  C   UNL     1      43.847 -19.968   3.829  1.00  0.00     0.070 A 
HETATM   13  C   UNL     1      43.852 -20.181   5.209  1.00  0.00     0.038 A 
HETATM   14  C   UNL     1      43.665 -19.115   6.102  1.00  0.00     0.016 A 
HETATM   15  N   UNL     1      42.814 -13.449   4.163  1.00  0.00    -0.203 NA
ENDROOT
BRANCH   1  16
HETATM   16  C   UNL     1      42.414 -10.980   3.875  1.00  0.00     0.103 C 
BRANCH  16  17
HETATM   17  C   UNL     1      40.954 -10.556   3.705  1.00  0.00     0.133 C 
BRANCH  17  18
HETATM   18  N   UNL     1      40.446 -10.827   2.357  1.00  0.00    -0.352 N 
HETATM   19  C   UNL     1      39.592 -11.917   2.185  1.00  0.00     0.254 C 
HETATM   20  O   UNL     1      39.162 -12.587   3.120  1.00  0.00    -0.267 OA
HETATM   21  C   UNL     1      40.788  -9.866   1.315  1.00  0.00     0.152 C 
BRANCH  19  22
HETATM   22  C   UNL     1      39.195 -12.298   0.808  1.00  0.00     0.038 A 
HETATM   23  C   UNL     1      38.074 -11.721   0.189  1.00  0.00    -0.044 A 
HETATM   24  C   UNL     1      37.216 -10.708   0.895  1.00  0.00     0.049 C 
HETATM   25  C   UNL     1      37.738 -12.130  -1.116  1.00  0.00     0.044 A 
HETATM   26  C   UNL     1      38.504 -13.087  -1.788  1.00  0.00     0.068 A 
HETATM   27  C   UNL     1      39.600 -13.666  -1.144  1.00  0.00     0.038 A 
HETATM   28  C   UNL     1      39.945 -13.282   0.152  1.00  0.00     0.020 A 
BRANCH  26  29
HETATM   29  O   UNL     1      38.284 -13.548  -3.056  1.00  0.00    -0.356 OA
HETATM   30  C   UNL     1      38.367 -14.953  -3.256  1.00  0.00     0.210 C 
ENDBRANCH  26  29
ENDBRANCH  19  22
ENDBRANCH  17  18
ENDBRANCH  16  17
ENDBRANCH   1  16
BRANCH  12  31
HETATM   31  O   UNL     1      44.020 -20.931   2.871  1.00  0.00    -0.356 OA
HETATM   32  C   UNL     1      43.691 -20.579   1.534  1.00  0.00     0.210 C 
ENDBRANCH  12  31
TORSDOF 6
ENDMDL
MODEL 8
REMARK VINA RESULT:      -8.2      2.802      4.893
REMARK  6 active torsions:
REMARK  status: ('A' for Active; 'I' for Inactive)
REMARK    1  A    between atoms: C_3  and  C_4 
REMARK       I    between atoms: C_4  and  N_5 
REMARK    2  A    between atoms: N_5  and  C_6 
REMARK    3  A    between atoms: C_6  and  C_7 
REMARK    4  A    between atoms: C_7  and  C_8 
REMARK    5  A    between atoms: C_19  and  O_20 
REMARK    6  A    between atoms: C_29  and  O_30 
ROOT
HETATM    1  C   UNL     1      44.179 -11.247   5.983  1.00  0.00     0.158 A 
HETATM    2  N   UNL     1      45.476 -11.124   6.292  1.00  0.00    -0.111 NA
HETATM    3  O   UNL     1      45.448 -10.570   7.572  1.00  0.00    -0.189 OA
HETATM    4  C   UNL     1      44.129 -10.424   7.914  1.00  0.00     0.223 A 
HETATM    5  C   UNL     1      43.681  -9.885   9.155  1.00  0.00     0.089 A 
HETATM    6  N   UNL     1      42.348  -9.743   9.444  1.00  0.00    -0.352 N 
HETATM    7  H   UNL     1      41.598 -10.003   8.816  1.00  0.00     0.166 HD
HETATM    8  C   UNL     1      42.183  -9.200  10.697  1.00  0.00     0.045 A 
HETATM    9  C   UNL     1      43.457  -8.987  11.221  1.00  0.00    -0.007 A 
HETATM   10  C   UNL     1      44.393  -9.421  10.242  1.00  0.00     0.048 A 
HETATM   11  C   UNL     1      41.016  -8.882  11.401  1.00  0.00     0.067 A 
HETATM   12  C   UNL     1      41.144  -8.327  12.681  1.00  0.00     0.070 A 
HETATM   13  C   UNL     1      42.409  -8.103  13.226  1.00  0.00     0.038 A 
HETATM   14  C   UNL     1      43.570  -8.429  12.508  1.00  0.00     0.016 A 
HETATM   15  N   UNL     1      43.313 -10.843   6.968  1.00  0.00    -0.203 NA
ENDROOT
BRANCH   1  16
HETATM   16  C   UNL     1      43.737 -11.824   4.689  1.00  0.00     0.103 C 
BRANCH  16  17
HETATM   17  C   UNL     1      42.998 -13.154   4.844  1.00  0.00     0.133 C 
BRANCH  17  18
HETATM   18  N   UNL     1      41.997 -13.366   3.795  1.00  0.00    -0.352 N 
HETATM   19  C   UNL     1      42.440 -13.794   2.544  1.00  0.00     0.254 C 
HETATM   20  O   UNL     1      43.605 -14.108   2.315  1.00  0.00    -0.267 OA
HETATM   21  C   UNL     1      40.597 -13.215   4.175  1.00  0.00     0.152 C 
BRANCH  19  22
HETATM   22  C   UNL     1      41.464 -13.862   1.429  1.00  0.00     0.038 A 
HETATM   23  C   UNL     1      40.766 -15.048   1.144  1.00  0.00    -0.044 A 
HETATM   24  C   UNL     1      40.989 -16.305   1.940  1.00  0.00     0.049 C 
HETATM   25  C   UNL     1      39.860 -15.057   0.067  1.00  0.00     0.044 A 
HETATM   26  C   UNL     1      39.651 -13.909  -0.704  1.00  0.00     0.068 A 
HETATM   27  C   UNL     1      40.373 -12.749  -0.418  1.00  0.00     0.038 A 
HETATM   28  C   UNL     1      41.282 -12.721   0.638  1.00  0.00     0.020 A 
BRANCH  26  29
HETATM   29  O   UNL     1      38.788 -13.796  -1.759  1.00  0.00    -0.356 OA
HETATM   30  C   UNL     1      38.728 -14.890  -2.664  1.00  0.00     0.210 C 
ENDBRANCH  26  29
ENDBRANCH  19  22
ENDBRANCH  17  18
ENDBRANCH  16  17
ENDBRANCH   1  16
BRANCH  12  31
HETATM   31  O   UNL     1      39.950  -8.049  13.293  1.00  0.00    -0.356 OA
HETATM   32  C   UNL     1      39.937  -6.978  14.227  1.00  0.00     0.210 C 
ENDBRANCH  12  31
TORSDOF 6
ENDMDL
MODEL 9
REMARK VINA RESULT:      -8.0      3.722      7.830
REMARK  6 active torsions:
REMARK  status: ('A' for Active; 'I' for Inactive)
REMARK    1  A    between atoms: C_3  and  C_4 
REMARK       I    between atoms: C_4  and  N_5 
REMARK    2  A    between atoms: N_5  and  C_6 
REMARK    3  A    between atoms: C_6  and  C_7 
REMARK    4  A    between atoms: C_7  and  C_8 
REMARK    5  A    between atoms: C_19  and  O_20 
REMARK    6  A    between atoms: C_29  and  O_30 
ROOT
HETATM    1  C   UNL     1      40.776 -11.078   4.970  1.00  0.00     0.158 A 
HETATM    2  N   UNL     1      41.439 -10.934   6.124  1.00  0.00    -0.111 NA
HETATM    3  O   UNL     1      42.155 -12.125   6.233  1.00  0.00    -0.189 OA
HETATM    4  C   UNL     1      41.861 -12.870   5.121  1.00  0.00     0.223 A 
HETATM    5  C   UNL     1      42.399 -14.163   4.861  1.00  0.00     0.089 A 
HETATM    6  N   UNL     1      42.060 -14.877   3.740  1.00  0.00    -0.352 N 
HETATM    7  H   UNL     1      41.419 -14.551   3.028  1.00  0.00     0.166 HD
HETATM    8  C   UNL     1      42.711 -16.089   3.727  1.00  0.00     0.045 A 
HETATM    9  C   UNL     1      43.488 -16.148   4.883  1.00  0.00    -0.007 A 
HETATM   10  C   UNL     1      43.284 -14.931   5.589  1.00  0.00     0.048 A 
HETATM   11  C   UNL     1      42.671 -17.130   2.793  1.00  0.00     0.067 A 
HETATM   12  C   UNL     1      43.446 -18.272   3.037  1.00  0.00     0.070 A 
HETATM   13  C   UNL     1      44.231 -18.354   4.188  1.00  0.00     0.038 A 
HETATM   14  C   UNL     1      44.261 -17.301   5.116  1.00  0.00     0.016 A 
HETATM   15  N   UNL     1      41.026 -12.255   4.308  1.00  0.00    -0.203 NA
ENDROOT
BRANCH   1  16
HETATM   16  C   UNL     1      39.885 -10.014   4.442  1.00  0.00     0.103 C 
BRANCH  16  17
HETATM   17  C   UNL     1      40.317  -9.493   3.070  1.00  0.00     0.133 C 
BRANCH  17  18
HETATM   18  N   UNL     1      39.973 -10.418   1.986  1.00  0.00    -0.352 N 
HETATM   19  C   UNL     1      41.005 -10.890   1.176  1.00  0.00     0.254 C 
HETATM   20  O   UNL     1      42.192 -10.659   1.396  1.00  0.00    -0.267 OA
HETATM   21  C   UNL     1      38.585 -10.857   1.907  1.00  0.00     0.152 C 
BRANCH  19  22
HETATM   22  C   UNL     1      40.659 -11.698  -0.018  1.00  0.00     0.038 A 
HETATM   23  C   UNL     1      40.405 -11.090  -1.259  1.00  0.00    -0.044 A 
HETATM   24  C   UNL     1      40.454  -9.596  -1.430  1.00  0.00     0.049 C 
HETATM   25  C   UNL     1      40.070 -11.907  -2.356  1.00  0.00     0.044 A 
HETATM   26  C   UNL     1      39.994 -13.296  -2.219  1.00  0.00     0.068 A 
HETATM   27  C   UNL     1      40.226 -13.878  -0.971  1.00  0.00     0.038 A 
HETATM   28  C   UNL     1      40.551 -13.086   0.130  1.00  0.00     0.020 A 
BRANCH  26  29
HETATM   29  O   UNL     1      39.695 -14.187  -3.213  1.00  0.00    -0.356 OA
HETATM   30  C   UNL     1      38.324 -14.516  -3.393  1.00  0.00     0.210 C 
ENDBRANCH  26  29
ENDBRANCH  19  22
ENDBRANCH  17  18
ENDBRANCH  16  17
ENDBRANCH   1  16
BRANCH  12  31
HETATM   31  O   UNL     1      43.343 -19.235   2.069  1.00  0.00    -0.356 OA
HETATM   32  C   UNL     1      43.676 -20.566   2.445  1.00  0.00     0.210 C 
ENDBRANCH  12  31
TORSDOF 6
ENDMDL
MODEL 10
REMARK VINA RESULT:      -7.7     16.742     18.229
REMARK  6 active torsions:
REMARK  status: ('A' for Active; 'I' for Inactive)
REMARK    1  A    between atoms: C_3  and  C_4 
REMARK       I    between atoms: C_4  and  N_5 
REMARK    2  A    between atoms: N_5  and  C_6 
REMARK    3  A    between atoms: C_6  and  C_7 
REMARK    4  A    between atoms: C_7  and  C_8 
REMARK    5  A    between atoms: C_19  and  O_20 
REMARK    6  A    between atoms: C_29  and  O_30 
ROOT
HETATM    1  C   UNL     1      42.030 -30.569   1.904  1.00  0.00     0.158 A 
HETATM    2  N   UNL     1      40.804 -31.055   1.673  1.00  0.00    -0.111 NA
HETATM    3  O   UNL     1      40.381 -31.470   2.935  1.00  0.00    -0.189 OA
HETATM    4  C   UNL     1      41.395 -31.180   3.810  1.00  0.00     0.223 A 
HETATM    5  C   UNL     1      41.348 -31.456   5.207  1.00  0.00     0.089 A 
HETATM    6  N   UNL     1      42.397 -31.163   6.040  1.00  0.00    -0.352 N 
HETATM    7  H   UNL     1      43.264 -30.739   5.737  1.00  0.00     0.166 HD
HETATM    8  C   UNL     1      42.101 -31.528   7.333  1.00  0.00     0.045 A 
HETATM    9  C   UNL     1      40.819 -32.075   7.320  1.00  0.00    -0.007 A 
HETATM   10  C   UNL     1      40.354 -32.025   5.977  1.00  0.00     0.048 A 
HETATM   11  C   UNL     1      42.862 -31.419   8.503  1.00  0.00     0.067 A 
HETATM   12  C   UNL     1      42.304 -31.882   9.702  1.00  0.00     0.070 A 
HETATM   13  C   UNL     1      41.023 -32.435   9.714  1.00  0.00     0.038 A 
HETATM   14  C   UNL     1      40.272 -32.536   8.532  1.00  0.00     0.016 A 
HETATM   15  N   UNL     1      42.426 -30.610   3.218  1.00  0.00    -0.203 NA
ENDROOT
BRANCH   1  16
HETATM   16  C   UNL     1      42.859 -29.991   0.817  1.00  0.00     0.103 C 
BRANCH  16  17
HETATM   17  C   UNL     1      44.043 -29.172   1.334  1.00  0.00     0.133 C 
BRANCH  17  18
HETATM   18  N   UNL     1      45.331 -29.690   0.861  1.00  0.00    -0.352 N 
HETATM   19  C   UNL     1      46.474 -28.930   1.110  1.00  0.00     0.254 C 
HETATM   20  O   UNL     1      46.467 -27.912   1.797  1.00  0.00    -0.267 OA
HETATM   21  C   UNL     1      45.329 -31.019   0.261  1.00  0.00     0.152 C 
BRANCH  19  22
HETATM   22  C   UNL     1      47.758 -29.359   0.505  1.00  0.00     0.038 A 
HETATM   23  C   UNL     1      48.086 -29.023  -0.820  1.00  0.00    -0.044 A 
HETATM   24  C   UNL     1      47.146 -28.233  -1.689  1.00  0.00     0.049 C 
HETATM   25  C   UNL     1      49.314 -29.466  -1.345  1.00  0.00     0.044 A 
HETATM   26  C   UNL     1      50.196 -30.222  -0.566  1.00  0.00     0.068 A 
HETATM   27  C   UNL     1      49.839 -30.565   0.740  1.00  0.00     0.038 A 
HETATM   28  C   UNL     1      48.623 -30.144   1.276  1.00  0.00     0.020 A 
BRANCH  26  29
HETATM   29  O   UNL     1      51.418 -30.693  -0.963  1.00  0.00    -0.356 OA
HETATM   30  C   UNL     1      51.703 -30.656  -2.354  1.00  0.00     0.210 C 
ENDBRANCH  26  29
ENDBRANCH  19  22
ENDBRANCH  17  18
ENDBRANCH  16  17
ENDBRANCH   1  16
BRANCH  12  31
HETATM   31  O   UNL     1      43.121 -31.734  10.792  1.00  0.00    -0.356 OA
HETATM   32  C   UNL     1      42.532 -31.933  12.071  1.00  0.00     0.210 C 
ENDBRANCH  12  31
TORSDOF 6
ENDMDL
