MODEL 1
REMARK VINA RESULT:      -8.1      0.000      0.000
REMARK  9 active torsions:
REMARK  status: ('A' for Active; 'I' for Inactive)
REMARK    1  A    between atoms: C_4  and  C_5 
REMARK    2  A    between atoms: C_6  and  N_7 
REMARK    3  A    between atoms: N_7  and  S_8 
REMARK    4  A    between atoms: C_17  and  C_18 
REMARK    5  A    between atoms: C_18  and  N_19 
REMARK    6  A    between atoms: N_19  and  C_21 
REMARK    7  A    between atoms: C_21  and  C_22 
REMARK    8  A    between atoms: C_24  and  C_25 
REMARK    9  A    between atoms: C_25  and  N_26 
ROOT
HETATM    1  C   UNL     1      40.564 -13.803  -0.302  1.00  0.00     0.079 C 
HETATM    2  C   UNL     1      41.270 -14.002   0.977  1.00  0.00     0.078 A 
HETATM    3  O   UNL     1      41.792 -15.246   1.215  1.00  0.00    -0.294 OA
HETATM    4  C   UNL     1      42.354 -15.161   2.466  1.00  0.00     0.182 A 
HETATM    5  N   UNL     1      42.261 -13.956   2.988  1.00  0.00    -0.224 NA
HETATM    6  C   UNL     1      41.530 -13.226   2.082  1.00  0.00     0.092 A 
ENDROOT
BRANCH   6   7
HETATM    7  C   UNL     1      41.118 -11.848   2.447  1.00  0.00     0.296 C 
BRANCH   7   8
HETATM    8  N   UNL     1      40.850 -11.723   3.936  1.00  0.00    -0.065 N 
HETATM    9  H   UNL     1      41.453 -12.471   4.333  1.00  0.00     0.280 HD
HETATM   10  C   UNL     1      39.449 -12.050   4.315  1.00  0.00     0.270 C 
BRANCH   8  11
HETATM   11  C   UNL     1      41.399 -10.485   4.605  1.00  0.00     0.280 C 
BRANCH  11  12
HETATM   12  C   UNL     1      42.598 -10.676   5.495  1.00  0.00     0.009 A 
HETATM   13  S   UNL     1      42.577 -10.165   7.131  1.00  0.00    -0.096 SA
HETATM   14  C   UNL     1      44.114 -10.861   7.451  1.00  0.00     0.009 A 
HETATM   15  C   UNL     1      44.659 -11.413   6.309  1.00  0.00     0.017 A 
HETATM   16  C   UNL     1      43.781 -11.323   5.190  1.00  0.00     0.017 A 
BRANCH  14  17
HETATM   17  C   UNL     1      44.697 -10.831   8.835  1.00  0.00     0.280 C 
BRANCH  17  18
HETATM   18  N   UNL     1      43.821 -10.108   9.839  1.00  0.00    -0.067 N 
HETATM   19  H   UNL     1      42.869 -10.142   9.452  1.00  0.00     0.280 HD
HETATM   20  C   UNL     1      43.785 -10.784  11.192  1.00  0.00     0.235 C 
HETATM   21  C   UNL     1      42.767 -10.078  12.078  1.00  0.00     0.028 C 
HETATM   22  C   UNL     1      43.070  -8.591  12.209  1.00  0.00     0.003 C 
HETATM   23  C   UNL     1      43.199  -7.930  10.840  1.00  0.00     0.028 C 
HETATM   24  C   UNL     1      44.208  -8.650   9.957  1.00  0.00     0.235 C 
ENDBRANCH  17  18
ENDBRANCH  14  17
ENDBRANCH  11  12
ENDBRANCH   8  11
ENDBRANCH   7   8
ENDBRANCH   6   7
BRANCH   4  25
HETATM   25  C   UNL     1      42.932 -16.380   3.030  1.00  0.00     0.044 A 
HETATM   26  C   UNL     1      43.373 -16.462   4.370  1.00  0.00     0.057 A 
HETATM   27  C   UNL     1      43.940 -17.650   4.855  1.00  0.00     0.031 A 
HETATM   28  C   UNL     1      44.067 -18.764   4.027  1.00  0.00     0.002 A 
HETATM   29  C   UNL     1      43.633 -18.699   2.708  1.00  0.00     0.001 A 
HETATM   30  C   UNL     1      43.073 -17.519   2.215  1.00  0.00     0.018 A 
BRANCH  26  31
HETATM   31  N   UNL     1      43.308 -15.353   5.281  1.00  0.00    -0.284 N 
HETATM   32  H   UNL     1      44.194 -15.125   5.734  1.00  0.00     0.178 HD
BRANCH  31  33
HETATM   33  S   UNL     1      41.996 -15.217   6.330  1.00  0.00     0.227 S 
HETATM   34  C   UNL     1      40.760 -16.254   5.570  1.00  0.00     0.186 C 
HETATM   35  O   UNL     1      42.433 -15.857   7.558  1.00  0.00    -0.206 OA
HETATM   36  O   UNL     1      41.515 -13.856   6.391  1.00  0.00    -0.206 OA
ENDBRANCH  31  33
ENDBRANCH  26  31
ENDBRANCH   4  25
TORSDOF 9
ENDMDL
MODEL 2
REMARK VINA RESULT:      -7.9      2.446      7.994
REMARK  9 active torsions:
REMARK  status: ('A' for Active; 'I' for Inactive)
REMARK    1  A    between atoms: C_4  and  C_5 
REMARK    2  A    between atoms: C_6  and  N_7 
REMARK    3  A    between atoms: N_7  and  S_8 
REMARK    4  A    between atoms: C_17  and  C_18 
REMARK    5  A    between atoms: C_18  and  N_19 
REMARK    6  A    between atoms: N_19  and  C_21 
REMARK    7  A    between atoms: C_21  and  C_22 
REMARK    8  A    between atoms: C_24  and  C_25 
REMARK    9  A    between atoms: C_25  and  N_26 
ROOT
HETATM    1  C   UNL     1      41.552 -15.120   6.134  1.00  0.00     0.079 C 
HETATM    2  C   UNL     1      41.861 -13.679   6.085  1.00  0.00     0.078 A 
HETATM    3  O   UNL     1      42.973 -13.256   6.764  1.00  0.00    -0.294 OA
HETATM    4  C   UNL     1      43.004 -11.894   6.579  1.00  0.00     0.182 A 
HETATM    5  N   UNL     1      42.033 -11.461   5.803  1.00  0.00    -0.224 NA
HETATM    6  C   UNL     1      41.270 -12.570   5.528  1.00  0.00     0.092 A 
ENDROOT
BRANCH   6   7
HETATM    7  C   UNL     1      39.997 -12.390   4.786  1.00  0.00     0.296 C 
BRANCH   7   8
HETATM    8  N   UNL     1      40.245 -12.055   3.326  1.00  0.00    -0.065 N 
HETATM    9  H   UNL     1      41.281 -12.122   3.257  1.00  0.00     0.280 HD
HETATM   10  C   UNL     1      39.877 -10.659   2.969  1.00  0.00     0.270 C 
BRANCH   8  11
HETATM   11  C   UNL     1      39.794 -13.091   2.325  1.00  0.00     0.280 C 
BRANCH  11  12
HETATM   12  C   UNL     1      40.543 -14.396   2.321  1.00  0.00     0.009 A 
HETATM   13  S   UNL     1      42.257 -14.434   2.345  1.00  0.00    -0.096 SA
HETATM   14  C   UNL     1      42.295 -16.144   2.505  1.00  0.00     0.009 A 
HETATM   15  C   UNL     1      41.023 -16.677   2.470  1.00  0.00     0.017 A 
HETATM   16  C   UNL     1      40.016 -15.672   2.383  1.00  0.00     0.017 A 
BRANCH  14  17
HETATM   17  C   UNL     1      43.600 -16.870   2.668  1.00  0.00     0.280 C 
BRANCH  17  18
HETATM   18  N   UNL     1      43.470 -18.168   3.440  1.00  0.00    -0.067 N 
HETATM   19  H   UNL     1      42.461 -18.324   3.557  1.00  0.00     0.280 HD
HETATM   20  C   UNL     1      44.030 -19.362   2.696  1.00  0.00     0.235 C 
HETATM   21  C   UNL     1      43.717 -20.631   3.478  1.00  0.00     0.028 C 
HETATM   22  C   UNL     1      44.256 -20.562   4.901  1.00  0.00     0.003 C 
HETATM   23  C   UNL     1      43.766 -19.309   5.618  1.00  0.00     0.028 C 
HETATM   24  C   UNL     1      44.069 -18.047   4.824  1.00  0.00     0.235 C 
ENDBRANCH  17  18
ENDBRANCH  14  17
ENDBRANCH  11  12
ENDBRANCH   8  11
ENDBRANCH   7   8
ENDBRANCH   6   7
BRANCH   4  25
HETATM   25  C   UNL     1      44.056 -11.145   7.264  1.00  0.00     0.044 A 
HETATM   26  C   UNL     1      43.800 -10.337   8.395  1.00  0.00     0.057 A 
HETATM   27  C   UNL     1      44.844  -9.621   9.002  1.00  0.00     0.031 A 
HETATM   28  C   UNL     1      46.142  -9.703   8.503  1.00  0.00     0.002 A 
HETATM   29  C   UNL     1      46.410 -10.497   7.394  1.00  0.00     0.001 A 
HETATM   30  C   UNL     1      45.377 -11.209   6.780  1.00  0.00     0.018 A 
BRANCH  26  31
HETATM   31  N   UNL     1      42.488 -10.171   8.954  1.00  0.00    -0.284 N 
HETATM   32  H   UNL     1      41.855 -10.956   8.790  1.00  0.00     0.178 HD
BRANCH  31  33
HETATM   33  S   UNL     1      41.712  -8.681   8.823  1.00  0.00     0.227 S 
HETATM   34  C   UNL     1      42.174  -8.125   7.193  1.00  0.00     0.186 C 
HETATM   35  O   UNL     1      40.295  -8.999   8.809  1.00  0.00    -0.206 OA
HETATM   36  O   UNL     1      42.202  -7.747   9.811  1.00  0.00    -0.206 OA
ENDBRANCH  31  33
ENDBRANCH  26  31
ENDBRANCH   4  25
TORSDOF 9
ENDMDL
MODEL 3
REMARK VINA RESULT:      -7.8      3.165      9.335
REMARK  9 active torsions:
REMARK  status: ('A' for Active; 'I' for Inactive)
REMARK    1  A    between atoms: C_4  and  C_5 
REMARK    2  A    between atoms: C_6  and  N_7 
REMARK    3  A    between atoms: N_7  and  S_8 
REMARK    4  A    between atoms: C_17  and  C_18 
REMARK    5  A    between atoms: C_18  and  N_19 
REMARK    6  A    between atoms: N_19  and  C_21 
REMARK    7  A    between atoms: C_21  and  C_22 
REMARK    8  A    between atoms: C_24  and  C_25 
REMARK    9  A    between atoms: C_25  and  N_26 
ROOT
HETATM    1  C   UNL     1      46.743 -10.757   7.228  1.00  0.00     0.079 C 
HETATM    2  C   UNL     1      45.352 -10.744   7.717  1.00  0.00     0.078 A 
HETATM    3  O   UNL     1      45.085  -9.975   8.818  1.00  0.00    -0.294 OA
HETATM    4  C   UNL     1      43.748 -10.170   9.070  1.00  0.00     0.182 A 
HETATM    5  N   UNL     1      43.169 -10.953   8.184  1.00  0.00    -0.224 NA
HETATM    6  C   UNL     1      44.182 -11.368   7.354  1.00  0.00     0.092 A 
ENDROOT
BRANCH   6   7
HETATM    7  C   UNL     1      43.881 -12.392   6.322  1.00  0.00     0.296 C 
BRANCH   7   8
HETATM    8  N   UNL     1      42.678 -13.234   6.709  1.00  0.00    -0.065 N 
HETATM    9  H   UNL     1      42.254 -12.675   7.476  1.00  0.00     0.280 HD
HETATM   10  C   UNL     1      43.041 -14.556   7.286  1.00  0.00     0.270 C 
BRANCH   8  11
HETATM   11  C   UNL     1      41.557 -13.286   5.699  1.00  0.00     0.280 C 
BRANCH  11  12
HETATM   12  C   UNL     1      41.581 -14.432   4.724  1.00  0.00     0.009 A 
HETATM   13  S   UNL     1      42.872 -14.625   3.614  1.00  0.00    -0.096 SA
HETATM   14  C   UNL     1      42.275 -16.136   3.058  1.00  0.00     0.009 A 
HETATM   15  C   UNL     1      41.074 -16.450   3.662  1.00  0.00     0.017 A 
HETATM   16  C   UNL     1      40.685 -15.481   4.632  1.00  0.00     0.017 A 
BRANCH  14  17
HETATM   17  C   UNL     1      43.042 -16.940   2.048  1.00  0.00     0.280 C 
BRANCH  17  18
HETATM   18  N   UNL     1      43.669 -18.192   2.631  1.00  0.00    -0.067 N 
HETATM   19  H   UNL     1      44.636 -18.207   2.282  1.00  0.00     0.280 HD
HETATM   20  C   UNL     1      43.734 -18.177   4.143  1.00  0.00     0.235 C 
HETATM   21  C   UNL     1      44.513 -19.394   4.623  1.00  0.00     0.028 C 
HETATM   22  C   UNL     1      43.904 -20.692   4.107  1.00  0.00     0.003 C 
HETATM   23  C   UNL     1      43.753 -20.667   2.590  1.00  0.00     0.028 C 
HETATM   24  C   UNL     1      42.986 -19.440   2.117  1.00  0.00     0.235 C 
ENDBRANCH  17  18
ENDBRANCH  14  17
ENDBRANCH  11  12
ENDBRANCH   8  11
ENDBRANCH   7   8
ENDBRANCH   6   7
BRANCH   4  25
HETATM   25  C   UNL     1      43.184  -9.525  10.255  1.00  0.00     0.044 A 
HETATM   26  C   UNL     1      41.791  -9.386  10.454  1.00  0.00     0.057 A 
HETATM   27  C   UNL     1      41.303  -8.739  11.600  1.00  0.00     0.031 A 
HETATM   28  C   UNL     1      42.181  -8.235  12.556  1.00  0.00     0.002 A 
HETATM   29  C   UNL     1      43.553  -8.369  12.376  1.00  0.00     0.001 A 
HETATM   30  C   UNL     1      44.049  -9.006  11.237  1.00  0.00     0.018 A 
BRANCH  26  31
HETATM   31  N   UNL     1      40.818  -9.848   9.504  1.00  0.00    -0.284 N 
HETATM   32  H   UNL     1      41.170 -10.537   8.837  1.00  0.00     0.178 HD
BRANCH  31  33
HETATM   33  S   UNL     1      39.765  -8.742   8.790  1.00  0.00     0.227 S 
HETATM   34  C   UNL     1      39.468  -9.446   7.179  1.00  0.00     0.186 C 
HETATM   35  O   UNL     1      38.539  -8.844   9.563  1.00  0.00    -0.206 OA
HETATM   36  O   UNL     1      40.387  -7.446   8.646  1.00  0.00    -0.206 OA
ENDBRANCH  31  33
ENDBRANCH  26  31
ENDBRANCH   4  25
TORSDOF 9
ENDMDL
MODEL 4
REMARK VINA RESULT:      -7.8      2.266      4.182
REMARK  9 active torsions:
REMARK  status: ('A' for Active; 'I' for Inactive)
REMARK    1  A    between atoms: C_4  and  C_5 
REMARK    2  A    between atoms: C_6  and  N_7 
REMARK    3  A    between atoms: N_7  and  S_8 
REMARK    4  A    between atoms: C_17  and  C_18 
REMARK    5  A    between atoms: C_18  and  N_19 
REMARK    6  A    between atoms: N_19  and  C_21 
REMARK    7  A    between atoms: C_21  and  C_22 
REMARK    8  A    between atoms: C_24  and  C_25 
REMARK    9  A    between atoms: C_25  and  N_26 
ROOT
HETATM    1  C   UNL     1      40.527 -11.423   5.998  1.00  0.00     0.079 C 
HETATM    2  C   UNL     1      41.680 -12.303   5.733  1.00  0.00     0.078 A 
HETATM    3  O   UNL     1      41.558 -13.201   4.706  1.00  0.00    -0.294 OA
HETATM    4  C   UNL     1      42.741 -13.899   4.703  1.00  0.00     0.182 A 
HETATM    5  N   UNL     1      43.593 -13.467   5.609  1.00  0.00    -0.224 NA
HETATM    6  C   UNL     1      42.916 -12.494   6.304  1.00  0.00     0.092 A 
ENDROOT
BRANCH   6   7
HETATM    7  C   UNL     1      43.557 -11.904   7.506  1.00  0.00     0.296 C 
BRANCH   7   8
HETATM    8  N   UNL     1      44.306 -10.627   7.166  1.00  0.00    -0.065 N 
HETATM    9  H   UNL     1      43.916 -10.384   6.234  1.00  0.00     0.280 HD
HETATM   10  C   UNL     1      45.768 -10.830   6.985  1.00  0.00     0.270 C 
BRANCH   8  11
HETATM   11  C   UNL     1      43.946  -9.412   7.987  1.00  0.00     0.280 C 
BRANCH  11  12
HETATM   12  C   UNL     1      43.605  -9.652   9.433  1.00  0.00     0.009 A 
HETATM   13  S   UNL     1      42.077  -9.205  10.070  1.00  0.00    -0.096 SA
HETATM   14  C   UNL     1      42.409  -9.932  11.589  1.00  0.00     0.009 A 
HETATM   15  C   UNL     1      43.690 -10.445  11.628  1.00  0.00     0.017 A 
HETATM   16  C   UNL     1      44.370 -10.300  10.384  1.00  0.00     0.017 A 
BRANCH  14  17
HETATM   17  C   UNL     1      41.366  -9.964  12.669  1.00  0.00     0.280 C 
BRANCH  17  18
HETATM   18  N   UNL     1      41.462  -8.795  13.630  1.00  0.00    -0.067 N 
HETATM   19  H   UNL     1      41.368  -9.199  14.571  1.00  0.00     0.280 HD
HETATM   20  C   UNL     1      42.796  -8.085  13.572  1.00  0.00     0.235 C 
HETATM   21  C   UNL     1      42.853  -7.032  14.671  1.00  0.00     0.028 C 
HETATM   22  C   UNL     1      41.695  -6.047  14.567  1.00  0.00     0.003 C 
HETATM   23  C   UNL     1      40.354  -6.771  14.531  1.00  0.00     0.028 C 
HETATM   24  C   UNL     1      40.312  -7.830  13.439  1.00  0.00     0.235 C 
ENDBRANCH  17  18
ENDBRANCH  14  17
ENDBRANCH  11  12
ENDBRANCH   8  11
ENDBRANCH   7   8
ENDBRANCH   6   7
BRANCH   4  25
HETATM   25  C   UNL     1      42.874 -14.997   3.747  1.00  0.00     0.044 A 
HETATM   26  C   UNL     1      42.662 -16.348   4.106  1.00  0.00     0.057 A 
HETATM   27  C   UNL     1      42.823 -17.366   3.154  1.00  0.00     0.031 A 
HETATM   28  C   UNL     1      43.186 -17.059   1.844  1.00  0.00     0.002 A 
HETATM   29  C   UNL     1      43.393 -15.735   1.475  1.00  0.00     0.001 A 
HETATM   30  C   UNL     1      43.240 -14.715   2.417  1.00  0.00     0.018 A 
BRANCH  26  31
HETATM   31  N   UNL     1      42.317 -16.754   5.440  1.00  0.00    -0.284 N 
HETATM   32  H   UNL     1      41.538 -16.239   5.852  1.00  0.00     0.178 HD
BRANCH  31  33
HETATM   33  S   UNL     1      43.542 -17.068   6.555  1.00  0.00     0.227 S 
HETATM   34  C   UNL     1      43.126 -16.006   7.925  1.00  0.00     0.186 C 
HETATM   35  O   UNL     1      43.326 -18.445   6.966  1.00  0.00    -0.206 OA
HETATM   36  O   UNL     1      44.835 -16.698   6.028  1.00  0.00    -0.206 OA
ENDBRANCH  31  33
ENDBRANCH  26  31
ENDBRANCH   4  25
TORSDOF 9
ENDMDL
MODEL 5
REMARK VINA RESULT:      -7.8      1.876      2.751
REMARK  9 active torsions:
REMARK  status: ('A' for Active; 'I' for Inactive)
REMARK    1  A    between atoms: C_4  and  C_5 
REMARK    2  A    between atoms: C_6  and  N_7 
REMARK    3  A    between atoms: N_7  and  S_8 
REMARK    4  A    between atoms: C_17  and  C_18 
REMARK    5  A    between atoms: C_18  and  N_19 
REMARK    6  A    between atoms: N_19  and  C_21 
REMARK    7  A    between atoms: C_21  and  C_22 
REMARK    8  A    between atoms: C_24  and  C_25 
REMARK    9  A    between atoms: C_25  and  N_26 
ROOT
HETATM    1  C   UNL     1      40.210 -14.555   0.338  1.00  0.00     0.079 C 
HETATM    2  C   UNL     1      41.315 -14.817   1.279  1.00  0.00     0.078 A 
HETATM    3  O   UNL     1      41.631 -16.127   1.523  1.00  0.00    -0.294 OA
HETATM    4  C   UNL     1      42.652 -16.080   2.440  1.00  0.00     0.182 A 
HETATM    5  N   UNL     1      43.019 -14.850   2.736  1.00  0.00    -0.224 NA
HETATM    6  C   UNL     1      42.146 -14.040   2.051  1.00  0.00     0.092 A 
ENDROOT
BRANCH   6   7
HETATM    7  C   UNL     1      42.198 -12.576   2.292  1.00  0.00     0.296 C 
BRANCH   7   8
HETATM    8  N   UNL     1      40.989 -11.872   1.702  1.00  0.00    -0.065 N 
HETATM    9  H   UNL     1      40.552 -12.624   1.132  1.00  0.00     0.280 HD
HETATM   10  C   UNL     1      41.342 -10.771   0.768  1.00  0.00     0.270 C 
BRANCH   8  11
HETATM   11  C   UNL     1      39.885 -11.530   2.674  1.00  0.00     0.280 C 
BRANCH  11  12
HETATM   12  C   UNL     1      40.281 -11.381   4.118  1.00  0.00     0.009 A 
HETATM   13  S   UNL     1      41.162 -10.013   4.659  1.00  0.00    -0.096 SA
HETATM   14  C   UNL     1      41.045 -10.489   6.305  1.00  0.00     0.009 A 
HETATM   15  C   UNL     1      40.404 -11.705   6.428  1.00  0.00     0.017 A 
HETATM   16  C   UNL     1      39.950 -12.209   5.174  1.00  0.00     0.017 A 
BRANCH  14  17
HETATM   17  C   UNL     1      41.592  -9.616   7.397  1.00  0.00     0.280 C 
BRANCH  17  18
HETATM   18  N   UNL     1      43.107  -9.575   7.429  1.00  0.00    -0.067 N 
HETATM   19  H   UNL     1      43.392  -9.117   6.553  1.00  0.00     0.280 HD
HETATM   20  C   UNL     1      43.656  -8.748   8.572  1.00  0.00     0.235 C 
HETATM   21  C   UNL     1      45.169  -8.640   8.430  1.00  0.00     0.028 C 
HETATM   22  C   UNL     1      45.829 -10.012   8.371  1.00  0.00     0.003 C 
HETATM   23  C   UNL     1      45.209 -10.877   7.279  1.00  0.00     0.028 C 
HETATM   24  C   UNL     1      43.696 -10.968   7.420  1.00  0.00     0.235 C 
ENDBRANCH  17  18
ENDBRANCH  14  17
ENDBRANCH  11  12
ENDBRANCH   8  11
ENDBRANCH   7   8
ENDBRANCH   6   7
BRANCH   4  25
HETATM   25  C   UNL     1      43.154 -17.353   2.957  1.00  0.00     0.044 A 
HETATM   26  C   UNL     1      43.719 -17.479   4.246  1.00  0.00     0.057 A 
HETATM   27  C   UNL     1      44.204 -18.721   4.686  1.00  0.00     0.031 A 
HETATM   28  C   UNL     1      44.128 -19.842   3.862  1.00  0.00     0.002 A 
HETATM   29  C   UNL     1      43.571 -19.733   2.593  1.00  0.00     0.001 A 
HETATM   30  C   UNL     1      43.091 -18.501   2.145  1.00  0.00     0.018 A 
BRANCH  26  31
HETATM   31  N   UNL     1      43.864 -16.369   5.146  1.00  0.00    -0.284 N 
HETATM   32  H   UNL     1      44.829 -16.144   5.389  1.00  0.00     0.178 HD
BRANCH  31  33
HETATM   33  S   UNL     1      42.820 -16.226   6.462  1.00  0.00     0.227 S 
HETATM   34  C   UNL     1      42.927 -14.496   6.879  1.00  0.00     0.186 C 
HETATM   35  O   UNL     1      41.498 -16.481   5.918  1.00  0.00    -0.206 OA
HETATM   36  O   UNL     1      43.274 -17.023   7.579  1.00  0.00    -0.206 OA
ENDBRANCH  31  33
ENDBRANCH  26  31
ENDBRANCH   4  25
TORSDOF 9
ENDMDL
MODEL 6
REMARK VINA RESULT:      -7.7      1.879      2.413
REMARK  9 active torsions:
REMARK  status: ('A' for Active; 'I' for Inactive)
REMARK    1  A    between atoms: C_4  and  C_5 
REMARK    2  A    between atoms: C_6  and  N_7 
REMARK    3  A    between atoms: N_7  and  S_8 
REMARK    4  A    between atoms: C_17  and  C_18 
REMARK    5  A    between atoms: C_18  and  N_19 
REMARK    6  A    between atoms: N_19  and  C_21 
REMARK    7  A    between atoms: C_21  and  C_22 
REMARK    8  A    between atoms: C_24  and  C_25 
REMARK    9  A    between atoms: C_25  and  N_26 
ROOT
HETATM    1  C   UNL     1      43.039 -11.883   2.968  1.00  0.00     0.079 C 
HETATM    2  C   UNL     1      42.360 -13.188   3.071  1.00  0.00     0.078 A 
HETATM    3  O   UNL     1      43.154 -14.296   3.201  1.00  0.00    -0.294 OA
HETATM    4  C   UNL     1      42.280 -15.355   3.242  1.00  0.00     0.182 A 
HETATM    5  N   UNL     1      41.018 -14.979   3.199  1.00  0.00    -0.224 NA
HETATM    6  C   UNL     1      41.054 -13.616   3.036  1.00  0.00     0.092 A 
ENDROOT
BRANCH   6   7
HETATM    7  C   UNL     1      39.778 -12.894   2.800  1.00  0.00     0.296 C 
BRANCH   7   8
HETATM    8  N   UNL     1      39.466 -11.932   3.932  1.00  0.00    -0.065 N 
HETATM    9  H   UNL     1      38.432 -12.004   4.004  1.00  0.00     0.280 HD
HETATM   10  C   UNL     1      39.780 -10.515   3.607  1.00  0.00     0.270 C 
BRANCH   8  11
HETATM   11  C   UNL     1      39.911 -12.364   5.308  1.00  0.00     0.280 C 
BRANCH  11  12
HETATM   12  C   UNL     1      40.548 -11.310   6.173  1.00  0.00     0.009 A 
HETATM   13  S   UNL     1      39.608 -10.347   7.235  1.00  0.00    -0.096 SA
HETATM   14  C   UNL     1      40.997  -9.605   7.920  1.00  0.00     0.009 A 
HETATM   15  C   UNL     1      42.151 -10.037   7.298  1.00  0.00     0.017 A 
HETATM   16  C   UNL     1      41.895 -11.030   6.307  1.00  0.00     0.017 A 
BRANCH  14  17
HETATM   17  C   UNL     1      40.866  -8.632   9.056  1.00  0.00     0.280 C 
BRANCH  17  18
HETATM   18  N   UNL     1      41.682  -9.018  10.274  1.00  0.00    -0.067 N 
HETATM   19  H   UNL     1      42.184  -9.876  10.012  1.00  0.00     0.280 HD
HETATM   20  C   UNL     1      42.719  -7.982  10.648  1.00  0.00     0.235 C 
HETATM   21  C   UNL     1      43.584  -8.525  11.778  1.00  0.00     0.028 C 
HETATM   22  C   UNL     1      42.746  -8.931  12.984  1.00  0.00     0.003 C 
HETATM   23  C   UNL     1      41.641  -9.903  12.587  1.00  0.00     0.028 C 
HETATM   24  C   UNL     1      40.790  -9.359  11.448  1.00  0.00     0.235 C 
ENDBRANCH  17  18
ENDBRANCH  14  17
ENDBRANCH  11  12
ENDBRANCH   8  11
ENDBRANCH   7   8
ENDBRANCH   6   7
BRANCH   4  25
HETATM   25  C   UNL     1      42.851 -16.700   3.301  1.00  0.00     0.044 A 
HETATM   26  C   UNL     1      43.714 -17.114   4.341  1.00  0.00     0.057 A 
HETATM   27  C   UNL     1      44.251 -18.411   4.338  1.00  0.00     0.031 A 
HETATM   28  C   UNL     1      43.935 -19.305   3.317  1.00  0.00     0.002 A 
HETATM   29  C   UNL     1      43.084 -18.913   2.290  1.00  0.00     0.001 A 
HETATM   30  C   UNL     1      42.549 -17.623   2.282  1.00  0.00     0.018 A 
BRANCH  26  31
HETATM   31  N   UNL     1      44.115 -16.247   5.413  1.00  0.00    -0.284 N 
HETATM   32  H   UNL     1      45.122 -16.215   5.578  1.00  0.00     0.178 HD
BRANCH  31  33
HETATM   33  S   UNL     1      43.227 -16.233   6.846  1.00  0.00     0.227 S 
HETATM   34  C   UNL     1      43.016 -14.494   7.176  1.00  0.00     0.186 C 
HETATM   35  O   UNL     1      41.934 -16.788   6.487  1.00  0.00    -0.206 OA
HETATM   36  O   UNL     1      43.968 -16.845   7.925  1.00  0.00    -0.206 OA
ENDBRANCH  31  33
ENDBRANCH  26  31
ENDBRANCH   4  25
TORSDOF 9
ENDMDL
MODEL 7
REMARK VINA RESULT:      -7.7      3.271      9.614
REMARK  9 active torsions:
REMARK  status: ('A' for Active; 'I' for Inactive)
REMARK    1  A    between atoms: C_4  and  C_5 
REMARK    2  A    between atoms: C_6  and  N_7 
REMARK    3  A    between atoms: N_7  and  S_8 
REMARK    4  A    between atoms: C_17  and  C_18 
REMARK    5  A    between atoms: C_18  and  N_19 
REMARK    6  A    between atoms: N_19  and  C_21 
REMARK    7  A    between atoms: C_21  and  C_22 
REMARK    8  A    between atoms: C_24  and  C_25 
REMARK    9  A    between atoms: C_25  and  N_26 
ROOT
HETATM    1  C   UNL     1      45.752  -8.936   8.466  1.00  0.00     0.079 C 
HETATM    2  C   UNL     1      44.498  -9.127   9.218  1.00  0.00     0.078 A 
HETATM    3  O   UNL     1      44.444  -8.610  10.485  1.00  0.00    -0.294 OA
HETATM    4  C   UNL     1      43.200  -8.954  10.955  1.00  0.00     0.182 A 
HETATM    5  N   UNL     1      42.473  -9.593  10.062  1.00  0.00    -0.224 NA
HETATM    6  C   UNL     1      43.300  -9.758   8.978  1.00  0.00     0.092 A 
ENDROOT
BRANCH   6   7
HETATM    7  C   UNL     1      42.824 -10.584   7.840  1.00  0.00     0.296 C 
BRANCH   7   8
HETATM    8  N   UNL     1      42.643  -9.750   6.584  1.00  0.00    -0.065 N 
HETATM    9  H   UNL     1      43.600  -9.374   6.429  1.00  0.00     0.280 HD
HETATM   10  C   UNL     1      41.744  -8.581   6.774  1.00  0.00     0.270 C 
BRANCH   8  11
HETATM   11  C   UNL     1      42.396 -10.521   5.309  1.00  0.00     0.280 C 
BRANCH  11  12
HETATM   12  C   UNL     1      41.790 -11.890   5.456  1.00  0.00     0.009 A 
HETATM   13  S   UNL     1      42.761 -13.301   5.389  1.00  0.00    -0.096 SA
HETATM   14  C   UNL     1      41.443 -14.324   5.798  1.00  0.00     0.009 A 
HETATM   15  C   UNL     1      40.271 -13.604   5.914  1.00  0.00     0.017 A 
HETATM   16  C   UNL     1      40.473 -12.205   5.736  1.00  0.00     0.017 A 
BRANCH  14  17
HETATM   17  C   UNL     1      41.648 -15.799   5.992  1.00  0.00     0.280 C 
BRANCH  17  18
HETATM   18  N   UNL     1      42.615 -16.406   4.995  1.00  0.00    -0.067 N 
HETATM   19  H   UNL     1      43.357 -15.706   4.865  1.00  0.00     0.280 HD
HETATM   20  C   UNL     1      43.271 -17.674   5.499  1.00  0.00     0.235 C 
HETATM   21  C   UNL     1      44.331 -18.120   4.501  1.00  0.00     0.028 C 
HETATM   22  C   UNL     1      43.746 -18.314   3.107  1.00  0.00     0.003 C 
HETATM   23  C   UNL     1      43.005 -17.067   2.640  1.00  0.00     0.028 C 
HETATM   24  C   UNL     1      41.957 -16.619   3.650  1.00  0.00     0.235 C 
ENDBRANCH  17  18
ENDBRANCH  14  17
ENDBRANCH  11  12
ENDBRANCH   8  11
ENDBRANCH   7   8
ENDBRANCH   6   7
BRANCH   4  25
HETATM   25  C   UNL     1      42.878  -8.598  12.337  1.00  0.00     0.044 A 
HETATM   26  C   UNL     1      41.938  -9.318  13.108  1.00  0.00     0.057 A 
HETATM   27  C   UNL     1      41.651  -8.920  14.423  1.00  0.00     0.031 A 
HETATM   28  C   UNL     1      42.293  -7.818  14.985  1.00  0.00     0.002 A 
HETATM   29  C   UNL     1      43.224  -7.103  14.240  1.00  0.00     0.001 A 
HETATM   30  C   UNL     1      43.512  -7.488  12.929  1.00  0.00     0.018 A 
BRANCH  26  31
HETATM   31  N   UNL     1      41.209 -10.444  12.596  1.00  0.00    -0.284 N 
HETATM   32  H   UNL     1      41.682 -10.950  11.846  1.00  0.00     0.178 HD
BRANCH  31  33
HETATM   33  S   UNL     1      39.549 -10.309  12.335  1.00  0.00     0.227 S 
HETATM   34  C   UNL     1      39.215  -8.602  12.723  1.00  0.00     0.186 C 
HETATM   35  O   UNL     1      39.382 -10.491  10.904  1.00  0.00    -0.206 OA
HETATM   36  O   UNL     1      38.808 -11.165  13.233  1.00  0.00    -0.206 OA
ENDBRANCH  31  33
ENDBRANCH  26  31
ENDBRANCH   4  25
TORSDOF 9
ENDMDL
MODEL 8
REMARK VINA RESULT:      -7.7      2.177      4.229
REMARK  9 active torsions:
REMARK  status: ('A' for Active; 'I' for Inactive)
REMARK    1  A    between atoms: C_4  and  C_5 
REMARK    2  A    between atoms: C_6  and  N_7 
REMARK    3  A    between atoms: N_7  and  S_8 
REMARK    4  A    between atoms: C_17  and  C_18 
REMARK    5  A    between atoms: C_18  and  N_19 
REMARK    6  A    between atoms: N_19  and  C_21 
REMARK    7  A    between atoms: C_21  and  C_22 
REMARK    8  A    between atoms: C_24  and  C_25 
REMARK    9  A    between atoms: C_25  and  N_26 
ROOT
HETATM    1  C   UNL     1      39.917 -12.420   6.037  1.00  0.00     0.079 C 
HETATM    2  C   UNL     1      41.144 -12.814   5.320  1.00  0.00     0.078 A 
HETATM    3  O   UNL     1      41.157 -14.054   4.740  1.00  0.00    -0.294 OA
HETATM    4  C   UNL     1      42.406 -14.170   4.180  1.00  0.00     0.182 A 
HETATM    5  N   UNL     1      43.136 -13.084   4.327  1.00  0.00    -0.224 NA
HETATM    6  C   UNL     1      42.372 -12.238   5.094  1.00  0.00     0.092 A 
ENDROOT
BRANCH   6   7
HETATM    7  C   UNL     1      42.976 -10.968   5.569  1.00  0.00     0.296 C 
BRANCH   7   8
HETATM    8  N   UNL     1      44.146 -11.224   6.503  1.00  0.00    -0.065 N 
HETATM    9  H   UNL     1      44.926 -11.396   5.838  1.00  0.00     0.280 HD
HETATM   10  C   UNL     1      43.992 -12.458   7.319  1.00  0.00     0.270 C 
BRANCH   8  11
HETATM   11  C   UNL     1      44.647 -10.028   7.277  1.00  0.00     0.280 C 
BRANCH  11  12
HETATM   12  C   UNL     1      44.173  -9.900   8.700  1.00  0.00     0.009 A 
HETATM   13  S   UNL     1      42.591  -9.349   9.061  1.00  0.00    -0.096 SA
HETATM   14  C   UNL     1      42.782  -9.653  10.740  1.00  0.00     0.009 A 
HETATM   15  C   UNL     1      44.057 -10.101  11.024  1.00  0.00     0.017 A 
HETATM   16  C   UNL     1      44.850 -10.260   9.850  1.00  0.00     0.017 A 
BRANCH  14  17
HETATM   17  C   UNL     1      41.643  -9.437  11.695  1.00  0.00     0.280 C 
BRANCH  17  18
HETATM   18  N   UNL     1      42.073  -8.823  13.013  1.00  0.00    -0.067 N 
HETATM   19  H   UNL     1      42.818  -9.433  13.374  1.00  0.00     0.280 HD
HETATM   20  C   UNL     1      42.657  -7.436  12.860  1.00  0.00     0.235 C 
HETATM   21  C   UNL     1      43.197  -6.969  14.205  1.00  0.00     0.028 C 
HETATM   22  C   UNL     1      42.123  -7.003  15.286  1.00  0.00     0.003 C 
HETATM   23  C   UNL     1      41.471  -8.379  15.373  1.00  0.00     0.028 C 
HETATM   24  C   UNL     1      40.947  -8.844  14.022  1.00  0.00     0.235 C 
ENDBRANCH  17  18
ENDBRANCH  14  17
ENDBRANCH  11  12
ENDBRANCH   8  11
ENDBRANCH   7   8
ENDBRANCH   6   7
BRANCH   4  25
HETATM   25  C   UNL     1      42.745 -15.443   3.545  1.00  0.00     0.044 A 
HETATM   26  C   UNL     1      42.647 -15.646   2.149  1.00  0.00     0.057 A 
HETATM   27  C   UNL     1      42.965 -16.894   1.594  1.00  0.00     0.031 A 
HETATM   28  C   UNL     1      43.388 -17.944   2.406  1.00  0.00     0.002 A 
HETATM   29  C   UNL     1      43.494 -17.758   3.780  1.00  0.00     0.001 A 
HETATM   30  C   UNL     1      43.174 -16.520   4.343  1.00  0.00     0.018 A 
BRANCH  26  31
HETATM   31  N   UNL     1      42.191 -14.628   1.244  1.00  0.00    -0.284 N 
HETATM   32  H   UNL     1      42.651 -13.724   1.355  1.00  0.00     0.178 HD
BRANCH  31  33
HETATM   33  S   UNL     1      40.541 -14.476   0.930  1.00  0.00     0.227 S 
HETATM   34  C   UNL     1      40.167 -12.834   1.514  1.00  0.00     0.186 C 
HETATM   35  O   UNL     1      40.437 -14.478  -0.519  1.00  0.00    -0.206 OA
HETATM   36  O   UNL     1      39.775 -15.444   1.681  1.00  0.00    -0.206 OA
ENDBRANCH  31  33
ENDBRANCH  26  31
ENDBRANCH   4  25
TORSDOF 9
ENDMDL
MODEL 9
REMARK VINA RESULT:      -7.5      2.125      3.310
REMARK  9 active torsions:
REMARK  status: ('A' for Active; 'I' for Inactive)
REMARK    1  A    between atoms: C_4  and  C_5 
REMARK    2  A    between atoms: C_6  and  N_7 
REMARK    3  A    between atoms: N_7  and  S_8 
REMARK    4  A    between atoms: C_17  and  C_18 
REMARK    5  A    between atoms: C_18  and  N_19 
REMARK    6  A    between atoms: N_19  and  C_21 
REMARK    7  A    between atoms: C_21  and  C_22 
REMARK    8  A    between atoms: C_24  and  C_25 
REMARK    9  A    between atoms: C_25  and  N_26 
ROOT
HETATM    1  C   UNL     1      42.700 -11.468   6.456  1.00  0.00     0.079 C 
HETATM    2  C   UNL     1      42.363 -12.125   5.179  1.00  0.00     0.078 A 
HETATM    3  O   UNL     1      42.725 -13.438   5.039  1.00  0.00    -0.294 OA
HETATM    4  C   UNL     1      42.327 -13.781   3.769  1.00  0.00     0.182 A 
HETATM    5  N   UNL     1      41.709 -12.801   3.144  1.00  0.00    -0.224 NA
HETATM    6  C   UNL     1      41.773 -11.730   4.002  1.00  0.00     0.092 A 
ENDROOT
BRANCH   6   7
HETATM    7  C   UNL     1      41.290 -10.409   3.527  1.00  0.00     0.296 C 
BRANCH   7   8
HETATM    8  N   UNL     1      39.795 -10.425   3.262  1.00  0.00    -0.065 N 
HETATM    9  H   UNL     1      39.535 -11.398   3.522  1.00  0.00     0.280 HD
HETATM   10  C   UNL     1      39.446 -10.253   1.827  1.00  0.00     0.270 C 
BRANCH   8  11
HETATM   11  C   UNL     1      38.948  -9.608   4.208  1.00  0.00     0.280 C 
BRANCH  11  12
HETATM   12  C   UNL     1      39.184  -9.821   5.680  1.00  0.00     0.009 A 
HETATM   13  S   UNL     1      39.937  -8.617   6.640  1.00  0.00    -0.096 SA
HETATM   14  C   UNL     1      39.672  -9.497   8.091  1.00  0.00     0.009 A 
HETATM   15  C   UNL     1      39.083 -10.718   7.833  1.00  0.00     0.017 A 
HETATM   16  C   UNL     1      38.786 -10.897   6.451  1.00  0.00     0.017 A 
BRANCH  14  17
HETATM   17  C   UNL     1      40.060  -8.918   9.421  1.00  0.00     0.280 C 
BRANCH  17  18
HETATM   18  N   UNL     1      41.264  -9.598  10.043  1.00  0.00    -0.067 N 
HETATM   19  H   UNL     1      41.107 -10.607   9.923  1.00  0.00     0.280 HD
HETATM   20  C   UNL     1      42.565  -9.256   9.349  1.00  0.00     0.235 C 
HETATM   21  C   UNL     1      43.686 -10.099   9.942  1.00  0.00     0.028 C 
HETATM   22  C   UNL     1      43.795  -9.910  11.450  1.00  0.00     0.003 C 
HETATM   23  C   UNL     1      42.458 -10.164  12.138  1.00  0.00     0.028 C 
HETATM   24  C   UNL     1      41.341  -9.328  11.530  1.00  0.00     0.235 C 
ENDBRANCH  17  18
ENDBRANCH  14  17
ENDBRANCH  11  12
ENDBRANCH   8  11
ENDBRANCH   7   8
ENDBRANCH   6   7
BRANCH   4  25
HETATM   25  C   UNL     1      42.655 -15.127   3.300  1.00  0.00     0.044 A 
HETATM   26  C   UNL     1      42.641 -16.253   4.152  1.00  0.00     0.057 A 
HETATM   27  C   UNL     1      42.985 -17.520   3.655  1.00  0.00     0.031 A 
HETATM   28  C   UNL     1      43.336 -17.683   2.316  1.00  0.00     0.002 A 
HETATM   29  C   UNL     1      43.350 -16.584   1.464  1.00  0.00     0.001 A 
HETATM   30  C   UNL     1      43.014 -15.319   1.952  1.00  0.00     0.018 A 
BRANCH  26  31
HETATM   31  N   UNL     1      42.323 -16.169   5.550  1.00  0.00    -0.284 N 
HETATM   32  H   UNL     1      41.764 -15.355   5.809  1.00  0.00     0.178 HD
BRANCH  31  33
HETATM   33  S   UNL     1      43.508 -16.527   6.695  1.00  0.00     0.227 S 
HETATM   34  C   UNL     1      43.048 -15.511   8.086  1.00  0.00     0.186 C 
HETATM   35  O   UNL     1      43.275 -17.916   7.050  1.00  0.00    -0.206 OA
HETATM   36  O   UNL     1      44.820 -16.143   6.226  1.00  0.00    -0.206 OA
ENDBRANCH  31  33
ENDBRANCH  26  31
ENDBRANCH   4  25
TORSDOF 9
ENDMDL
MODEL 10
REMARK VINA RESULT:      -7.5      2.905      8.849
REMARK  9 active torsions:
REMARK  status: ('A' for Active; 'I' for Inactive)
REMARK    1  A    between atoms: C_4  and  C_5 
REMARK    2  A    between atoms: C_6  and  N_7 
REMARK    3  A    between atoms: N_7  and  S_8 
REMARK    4  A    between atoms: C_17  and  C_18 
REMARK    5  A    between atoms: C_18  and  N_19 
REMARK    6  A    between atoms: N_19  and  C_21 
REMARK    7  A    between atoms: C_21  and  C_22 
REMARK    8  A    between atoms: C_24  and  C_25 
REMARK    9  A    between atoms: C_25  and  N_26 
ROOT
HETATM    1  C   UNL     1      42.871 -15.612   7.696  1.00  0.00     0.079 C 
HETATM    2  C   UNL     1      43.269 -14.368   7.012  1.00  0.00     0.078 A 
HETATM    3  O   UNL     1      43.734 -13.345   7.796  1.00  0.00    -0.294 OA
HETATM    4  C   UNL     1      43.996 -12.319   6.920  1.00  0.00     0.182 A 
HETATM    5  N   UNL     1      43.777 -12.649   5.664  1.00  0.00    -0.224 NA
HETATM    6  C   UNL     1      43.265 -13.923   5.711  1.00  0.00     0.092 A 
ENDROOT
BRANCH   6   7
HETATM    7  C   UNL     1      42.769 -14.536   4.453  1.00  0.00     0.296 C 
BRANCH   7   8
HETATM    8  N   UNL     1      41.280 -14.824   4.524  1.00  0.00    -0.065 N 
HETATM    9  H   UNL     1      41.150 -15.072   5.526  1.00  0.00     0.280 HD
HETATM   10  C   UNL     1      40.868 -16.011   3.728  1.00  0.00     0.270 C 
BRANCH   8  11
HETATM   11  C   UNL     1      40.369 -13.630   4.373  1.00  0.00     0.280 C 
BRANCH  11  12
HETATM   12  C   UNL     1      40.561 -12.787   3.141  1.00  0.00     0.009 A 
HETATM   13  S   UNL     1      39.774 -13.177   1.669  1.00  0.00    -0.096 SA
HETATM   14  C   UNL     1      40.327 -11.743   0.902  1.00  0.00     0.009 A 
HETATM   15  C   UNL     1      41.153 -11.018   1.736  1.00  0.00     0.017 A 
HETATM   16  C   UNL     1      41.273 -11.608   3.028  1.00  0.00     0.017 A 
BRANCH  14  17
HETATM   17  C   UNL     1      39.898 -11.407  -0.498  1.00  0.00     0.280 C 
BRANCH  17  18
HETATM   18  N   UNL     1      39.196 -12.552  -1.201  1.00  0.00    -0.067 N 
HETATM   19  H   UNL     1      38.827 -13.154  -0.453  1.00  0.00     0.280 HD
HETATM   20  C   UNL     1      38.021 -12.104  -2.042  1.00  0.00     0.235 C 
HETATM   21  C   UNL     1      37.292 -13.328  -2.579  1.00  0.00     0.028 C 
HETATM   22  C   UNL     1      38.225 -14.237  -3.370  1.00  0.00     0.003 C 
HETATM   23  C   UNL     1      39.456 -14.612  -2.552  1.00  0.00     0.028 C 
HETATM   24  C   UNL     1      40.170 -13.383  -2.007  1.00  0.00     0.235 C 
ENDBRANCH  17  18
ENDBRANCH  14  17
ENDBRANCH  11  12
ENDBRANCH   8  11
ENDBRANCH   7   8
ENDBRANCH   6   7
BRANCH   4  25
HETATM   25  C   UNL     1      44.440 -11.046   7.486  1.00  0.00     0.044 A 
HETATM   26  C   UNL     1      43.541 -10.101   8.030  1.00  0.00     0.057 A 
HETATM   27  C   UNL     1      44.019  -8.885   8.541  1.00  0.00     0.031 A 
HETATM   28  C   UNL     1      45.382  -8.598   8.527  1.00  0.00     0.002 A 
HETATM   29  C   UNL     1      46.279  -9.520   8.000  1.00  0.00     0.001 A 
HETATM   30  C   UNL     1      45.812 -10.731   7.484  1.00  0.00     0.018 A 
BRANCH  26  31
HETATM   31  N   UNL     1      42.119 -10.303   8.055  1.00  0.00    -0.284 N 
HETATM   32  H   UNL     1      41.831 -11.268   8.223  1.00  0.00     0.178 HD
BRANCH  31  33
HETATM   33  S   UNL     1      41.151  -9.532   6.910  1.00  0.00     0.227 S 
HETATM   34  C   UNL     1      39.832 -10.701   6.641  1.00  0.00     0.186 C 
HETATM   35  O   UNL     1      40.602  -8.379   7.602  1.00  0.00    -0.206 OA
HETATM   36  O   UNL     1      41.871  -9.320   5.675  1.00  0.00    -0.206 OA
ENDBRANCH  31  33
ENDBRANCH  26  31
ENDBRANCH   4  25
TORSDOF 9
ENDMDL
