MODEL 1
REMARK VINA RESULT:      -8.7      0.000      0.000
REMARK  3 active torsions:
REMARK  status: ('A' for Active; 'I' for Inactive)
REMARK    1  A    between atoms: C_3  and  N_4 
REMARK       I    between atoms: N_7  and  C_8 
REMARK    2  A    between atoms: C_8  and  C_9 
REMARK    3  A    between atoms: C_23  and  O_24 
ROOT
HETATM    1  N   UNL     1      42.732 -16.738   2.964  1.00  0.00    -0.278 NA
HETATM    2  C   UNL     1      41.399 -16.401   3.530  1.00  0.00     0.115 C 
HETATM    3  C   UNL     1      41.047 -14.929   3.245  1.00  0.00     0.141 C 
HETATM    4  N   UNL     1      41.146 -14.624   1.811  1.00  0.00    -0.346 N 
HETATM    5  C   UNL     1      40.256 -13.695   1.280  1.00  0.00     0.256 C 
HETATM    6  O   UNL     1      39.445 -13.082   1.973  1.00  0.00    -0.267 OA
HETATM    7  C   UNL     1      42.450 -14.979   1.229  1.00  0.00     0.141 C 
HETATM    8  C   UNL     1      42.806 -16.454   1.502  1.00  0.00     0.115 C 
ENDROOT
BRANCH   5   9
HETATM    9  C   UNL     1      40.231 -13.444  -0.177  1.00  0.00     0.064 A 
HETATM   10  C   UNL     1      40.684 -12.243  -0.690  1.00  0.00     0.077 A 
HETATM   11  C   UNL     1      40.648 -11.966  -2.059  1.00  0.00     0.065 A 
HETATM   12  N   UNL     1      41.208 -11.118  -0.047  1.00  0.00    -0.330 N 
HETATM   13  N   UNL     1      41.158 -10.684  -2.256  1.00  0.00    -0.331 N 
HETATM   14  C   UNL     1      40.151 -12.857  -2.978  1.00  0.00     0.074 A 
HETATM   15  C   UNL     1      41.486 -10.142  -1.007  1.00  0.00     0.176 A 
HETATM   16  H   UNL     1      41.235 -10.190  -3.133  1.00  0.00     0.168 HD
HETATM   17  S   UNL     1      42.074  -8.629  -0.729  1.00  0.00    -0.041 SA
HETATM   18  C   UNL     1      39.653 -14.055  -2.466  1.00  0.00     0.119 A 
HETATM   19  F   UNL     1      39.132 -14.955  -3.310  1.00  0.00    -0.206 F 
HETATM   20  C   UNL     1      39.670 -14.349  -1.090  1.00  0.00     0.061 A 
HETATM   21  H   UNL     1      41.275 -11.008   0.959  1.00  0.00     0.168 HD
ENDBRANCH   5   9
BRANCH   1  22
HETATM   22  C   UNL     1      43.177 -18.059   3.229  1.00  0.00     0.044 A 
HETATM   23  C   UNL     1      43.066 -19.130   2.336  1.00  0.00     0.026 A 
HETATM   24  C   UNL     1      43.574 -20.392   2.667  1.00  0.00     0.002 A 
HETATM   25  C   UNL     1      44.206 -20.603   3.894  1.00  0.00     0.003 A 
HETATM   26  C   UNL     1      44.324 -19.553   4.802  1.00  0.00     0.038 A 
HETATM   27  C   UNL     1      43.806 -18.310   4.464  1.00  0.00     0.087 A 
BRANCH  27  28
HETATM   28  O   UNL     1      43.881 -17.295   5.382  1.00  0.00    -0.359 OA
HETATM   29  H   UNL     1      44.837 -17.089   5.395  1.00  0.00     0.218 HD
ENDBRANCH  27  28
ENDBRANCH   1  22
TORSDOF 3
ENDMDL
MODEL 2
REMARK VINA RESULT:      -8.7      6.333      7.808
REMARK  3 active torsions:
REMARK  status: ('A' for Active; 'I' for Inactive)
REMARK    1  A    between atoms: C_3  and  N_4 
REMARK       I    between atoms: N_7  and  C_8 
REMARK    2  A    between atoms: C_8  and  C_9 
REMARK    3  A    between atoms: C_23  and  O_24 
ROOT
HETATM    1  N   UNL     1      42.759 -16.042   5.501  1.00  0.00    -0.278 NA
HETATM    2  C   UNL     1      42.262 -15.056   4.506  1.00  0.00     0.115 C 
HETATM    3  C   UNL     1      41.718 -13.801   5.212  1.00  0.00     0.141 C 
HETATM    4  N   UNL     1      42.717 -13.227   6.125  1.00  0.00    -0.346 N 
HETATM    5  C   UNL     1      42.740 -11.843   6.278  1.00  0.00     0.256 C 
HETATM    6  O   UNL     1      41.923 -11.102   5.733  1.00  0.00    -0.267 OA
HETATM    7  C   UNL     1      43.241 -14.198   7.099  1.00  0.00     0.141 C 
HETATM    8  C   UNL     1      43.796 -15.454   6.399  1.00  0.00     0.115 C 
ENDROOT
BRANCH   5   9
HETATM    9  C   UNL     1      43.802 -11.206   7.086  1.00  0.00     0.064 A 
HETATM   10  C   UNL     1      43.476 -10.366   8.134  1.00  0.00     0.077 A 
HETATM   11  C   UNL     1      44.457  -9.729   8.899  1.00  0.00     0.065 A 
HETATM   12  N   UNL     1      42.232  -9.963   8.626  1.00  0.00    -0.330 N 
HETATM   13  N   UNL     1      43.818  -8.949   9.861  1.00  0.00    -0.331 N 
HETATM   14  C   UNL     1      45.800  -9.884   8.652  1.00  0.00     0.074 A 
HETATM   15  C   UNL     1      42.434  -9.072   9.682  1.00  0.00     0.176 A 
HETATM   16  H   UNL     1      44.256  -8.348  10.543  1.00  0.00     0.168 HD
HETATM   17  S   UNL     1      41.271  -8.293  10.548  1.00  0.00    -0.041 SA
HETATM   18  C   UNL     1      46.136 -10.696   7.571  1.00  0.00     0.119 A 
HETATM   19  F   UNL     1      47.429 -10.867   7.265  1.00  0.00    -0.206 F 
HETATM   20  C   UNL     1      45.165 -11.339   6.781  1.00  0.00     0.061 A 
HETATM   21  H   UNL     1      41.340 -10.208   8.210  1.00  0.00     0.168 HD
ENDBRANCH   5   9
BRANCH   1  22
HETATM   22  C   UNL     1      43.225 -17.265   4.952  1.00  0.00     0.044 A 
HETATM   23  C   UNL     1      43.494 -17.476   3.595  1.00  0.00     0.026 A 
HETATM   24  C   UNL     1      43.993 -18.707   3.150  1.00  0.00     0.002 A 
HETATM   25  C   UNL     1      44.236 -19.743   4.054  1.00  0.00     0.003 A 
HETATM   26  C   UNL     1      43.970 -19.558   5.408  1.00  0.00     0.038 A 
HETATM   27  C   UNL     1      43.466 -18.337   5.834  1.00  0.00     0.087 A 
BRANCH  27  28
HETATM   28  O   UNL     1      43.159 -18.177   7.161  1.00  0.00    -0.359 OA
HETATM   29  H   UNL     1      44.012 -17.886   7.543  1.00  0.00     0.218 HD
ENDBRANCH  27  28
ENDBRANCH   1  22
TORSDOF 3
ENDMDL
MODEL 3
REMARK VINA RESULT:      -8.5      2.382      2.874
REMARK  3 active torsions:
REMARK  status: ('A' for Active; 'I' for Inactive)
REMARK    1  A    between atoms: C_3  and  N_4 
REMARK       I    between atoms: N_7  and  C_8 
REMARK    2  A    between atoms: C_8  and  C_9 
REMARK    3  A    between atoms: C_23  and  O_24 
ROOT
HETATM    1  N   UNL     1      42.573 -16.073   3.340  1.00  0.00    -0.278 NA
HETATM    2  C   UNL     1      41.143 -15.894   3.706  1.00  0.00     0.115 C 
HETATM    3  C   UNL     1      40.798 -14.398   3.827  1.00  0.00     0.141 C 
HETATM    4  N   UNL     1      41.165 -13.665   2.607  1.00  0.00    -0.346 N 
HETATM    5  C   UNL     1      40.363 -12.594   2.225  1.00  0.00     0.256 C 
HETATM    6  O   UNL     1      39.408 -12.207   2.898  1.00  0.00    -0.267 OA
HETATM    7  C   UNL     1      42.572 -13.855   2.216  1.00  0.00     0.141 C 
HETATM    8  C   UNL     1      42.923 -15.350   2.083  1.00  0.00     0.115 C 
ENDROOT
BRANCH   5   9
HETATM    9  C   UNL     1      40.615 -11.901   0.943  1.00  0.00     0.064 A 
HETATM   10  C   UNL     1      40.195 -12.459  -0.250  1.00  0.00     0.077 A 
HETATM   11  C   UNL     1      40.442 -11.841  -1.479  1.00  0.00     0.065 A 
HETATM   12  N   UNL     1      39.518 -13.654  -0.508  1.00  0.00    -0.330 N 
HETATM   13  N   UNL     1      39.910 -12.647  -2.484  1.00  0.00    -0.331 N 
HETATM   14  C   UNL     1      41.126 -10.655  -1.583  1.00  0.00     0.074 A 
HETATM   15  C   UNL     1      39.354 -13.787  -1.889  1.00  0.00     0.176 A 
HETATM   16  H   UNL     1      39.955 -12.484  -3.479  1.00  0.00     0.168 HD
HETATM   17  S   UNL     1      38.656 -15.052  -2.679  1.00  0.00    -0.041 SA
HETATM   18  C   UNL     1      41.591 -10.106  -0.389  1.00  0.00     0.119 A 
HETATM   19  F   UNL     1      42.286  -8.962  -0.426  1.00  0.00    -0.206 F 
HETATM   20  C   UNL     1      41.362 -10.717   0.859  1.00  0.00     0.061 A 
HETATM   21  H   UNL     1      39.281 -14.345   0.194  1.00  0.00     0.168 HD
ENDBRANCH   5   9
BRANCH   1  22
HETATM   22  C   UNL     1      43.008 -17.421   3.265  1.00  0.00     0.044 A 
HETATM   23  C   UNL     1      42.755 -18.280   2.190  1.00  0.00     0.026 A 
HETATM   24  C   UNL     1      43.262 -19.585   2.185  1.00  0.00     0.002 A 
HETATM   25  C   UNL     1      44.034 -20.052   3.252  1.00  0.00     0.003 A 
HETATM   26  C   UNL     1      44.293 -19.217   4.335  1.00  0.00     0.038 A 
HETATM   27  C   UNL     1      43.775 -17.929   4.332  1.00  0.00     0.087 A 
BRANCH  27  28
HETATM   28  O   UNL     1      43.992 -17.129   5.424  1.00  0.00    -0.359 OA
HETATM   29  H   UNL     1      44.902 -17.373   5.690  1.00  0.00     0.218 HD
ENDBRANCH  27  28
ENDBRANCH   1  22
TORSDOF 3
ENDMDL
MODEL 4
REMARK VINA RESULT:      -8.1      7.000      8.747
REMARK  3 active torsions:
REMARK  status: ('A' for Active; 'I' for Inactive)
REMARK    1  A    between atoms: C_3  and  N_4 
REMARK       I    between atoms: N_7  and  C_8 
REMARK    2  A    between atoms: C_8  and  C_9 
REMARK    3  A    between atoms: C_23  and  O_24 
ROOT
HETATM    1  N   UNL     1      41.902 -13.656   4.308  1.00  0.00    -0.278 NA
HETATM    2  C   UNL     1      41.663 -12.307   3.730  1.00  0.00     0.115 C 
HETATM    3  C   UNL     1      41.246 -11.313   4.830  1.00  0.00     0.141 C 
HETATM    4  N   UNL     1      42.222 -11.292   5.929  1.00  0.00    -0.346 N 
HETATM    5  C   UNL     1      42.439 -10.084   6.585  1.00  0.00     0.256 C 
HETATM    6  O   UNL     1      41.804  -9.064   6.322  1.00  0.00    -0.267 OA
HETATM    7  C   UNL     1      42.492 -12.625   6.493  1.00  0.00     0.141 C 
HETATM    8  C   UNL     1      42.919 -13.624   5.399  1.00  0.00     0.115 C 
ENDROOT
BRANCH   5   9
HETATM    9  C   UNL     1      43.497  -9.979   7.613  1.00  0.00     0.064 A 
HETATM   10  C   UNL     1      43.167  -9.879   8.951  1.00  0.00     0.077 A 
HETATM   11  C   UNL     1      44.143  -9.753   9.942  1.00  0.00     0.065 A 
HETATM   12  N   UNL     1      41.920  -9.856   9.582  1.00  0.00    -0.330 N 
HETATM   13  N   UNL     1      43.500  -9.663  11.176  1.00  0.00    -0.331 N 
HETATM   14  C   UNL     1      45.485  -9.705   9.654  1.00  0.00     0.074 A 
HETATM   15  C   UNL     1      42.117  -9.704  10.956  1.00  0.00     0.176 A 
HETATM   16  H   UNL     1      43.933  -9.536  12.078  1.00  0.00     0.168 HD
HETATM   17  S   UNL     1      40.947  -9.576  12.109  1.00  0.00    -0.041 SA
HETATM   18  C   UNL     1      45.826  -9.763   8.303  1.00  0.00     0.119 A 
HETATM   19  F   UNL     1      47.117  -9.697   7.955  1.00  0.00    -0.206 F 
HETATM   20  C   UNL     1      44.858  -9.880   7.287  1.00  0.00     0.061 A 
HETATM   21  H   UNL     1      41.029  -9.851   9.099  1.00  0.00     0.168 HD
ENDBRANCH   5   9
BRANCH   1  22
HETATM   22  C   UNL     1      42.231 -14.662   3.363  1.00  0.00     0.044 A 
HETATM   23  C   UNL     1      43.271 -14.570   2.432  1.00  0.00     0.026 A 
HETATM   24  C   UNL     1      43.550 -15.634   1.565  1.00  0.00     0.002 A 
HETATM   25  C   UNL     1      42.797 -16.809   1.619  1.00  0.00     0.003 A 
HETATM   26  C   UNL     1      41.754 -16.921   2.533  1.00  0.00     0.038 A 
HETATM   27  C   UNL     1      41.482 -15.855   3.380  1.00  0.00     0.087 A 
BRANCH  27  28
HETATM   28  O   UNL     1      40.422 -15.953   4.243  1.00  0.00    -0.359 OA
HETATM   29  H   UNL     1      40.361 -15.048   4.610  1.00  0.00     0.218 HD
ENDBRANCH  27  28
ENDBRANCH   1  22
TORSDOF 3
ENDMDL
MODEL 5
REMARK VINA RESULT:      -8.0      4.888      5.854
REMARK  3 active torsions:
REMARK  status: ('A' for Active; 'I' for Inactive)
REMARK    1  A    between atoms: C_3  and  N_4 
REMARK       I    between atoms: N_7  and  C_8 
REMARK    2  A    between atoms: C_8  and  C_9 
REMARK    3  A    between atoms: C_23  and  O_24 
ROOT
HETATM    1  N   UNL     1      42.320 -15.950   5.119  1.00  0.00    -0.278 NA
HETATM    2  C   UNL     1      40.841 -15.928   5.267  1.00  0.00     0.115 C 
HETATM    3  C   UNL     1      40.407 -14.793   6.212  1.00  0.00     0.141 C 
HETATM    4  N   UNL     1      40.950 -13.499   5.775  1.00  0.00    -0.346 N 
HETATM    5  C   UNL     1      40.177 -12.362   5.993  1.00  0.00     0.256 C 
HETATM    6  O   UNL     1      39.100 -12.395   6.587  1.00  0.00    -0.267 OA
HETATM    7  C   UNL     1      42.411 -13.511   5.596  1.00  0.00     0.141 C 
HETATM    8  C   UNL     1      42.852 -14.640   4.644  1.00  0.00     0.115 C 
ENDROOT
BRANCH   5   9
HETATM    9  C   UNL     1      40.619 -11.053   5.464  1.00  0.00     0.064 A 
HETATM   10  C   UNL     1      41.071 -10.067   6.320  1.00  0.00     0.077 A 
HETATM   11  C   UNL     1      41.471  -8.813   5.852  1.00  0.00     0.065 A 
HETATM   12  N   UNL     1      41.204 -10.060   7.711  1.00  0.00    -0.330 N 
HETATM   13  N   UNL     1      41.857  -8.044   6.949  1.00  0.00    -0.331 N 
HETATM   14  C   UNL     1      41.429  -8.474   4.522  1.00  0.00     0.074 A 
HETATM   15  C   UNL     1      41.672  -8.806   8.110  1.00  0.00     0.176 A 
HETATM   16  H   UNL     1      42.168  -7.084   6.937  1.00  0.00     0.168 HD
HETATM   17  S   UNL     1      41.941  -8.302   9.654  1.00  0.00    -0.041 SA
HETATM   18  C   UNL     1      40.936  -9.448   3.655  1.00  0.00     0.119 A 
HETATM   19  F   UNL     1      40.847  -9.171   2.348  1.00  0.00    -0.206 F 
HETATM   20  C   UNL     1      40.518 -10.715   4.106  1.00  0.00     0.061 A 
HETATM   21  H   UNL     1      40.910 -10.813   8.323  1.00  0.00     0.168 HD
ENDBRANCH   5   9
BRANCH   1  22
HETATM   22  C   UNL     1      42.826 -17.003   4.315  1.00  0.00     0.044 A 
HETATM   23  C   UNL     1      42.538 -17.177   2.956  1.00  0.00     0.026 A 
HETATM   24  C   UNL     1      43.119 -18.225   2.232  1.00  0.00     0.002 A 
HETATM   25  C   UNL     1      44.002 -19.112   2.851  1.00  0.00     0.003 A 
HETATM   26  C   UNL     1      44.299 -18.962   4.202  1.00  0.00     0.038 A 
HETATM   27  C   UNL     1      43.707 -17.926   4.912  1.00  0.00     0.087 A 
BRANCH  27  28
HETATM   28  O   UNL     1      43.965 -17.814   6.253  1.00  0.00    -0.359 OA
HETATM   29  H   UNL     1      43.514 -16.978   6.488  1.00  0.00     0.218 HD
ENDBRANCH  27  28
ENDBRANCH   1  22
TORSDOF 3
ENDMDL
MODEL 6
REMARK VINA RESULT:      -7.9      1.457      1.736
REMARK  3 active torsions:
REMARK  status: ('A' for Active; 'I' for Inactive)
REMARK    1  A    between atoms: C_3  and  N_4 
REMARK       I    between atoms: N_7  and  C_8 
REMARK    2  A    between atoms: C_8  and  C_9 
REMARK    3  A    between atoms: C_23  and  O_24 
ROOT
HETATM    1  N   UNL     1      42.354 -15.821   3.137  1.00  0.00    -0.278 NA
HETATM    2  C   UNL     1      40.872 -15.765   3.239  1.00  0.00     0.115 C 
HETATM    3  C   UNL     1      40.382 -14.306   3.203  1.00  0.00     0.141 C 
HETATM    4  N   UNL     1      40.893 -13.600   2.019  1.00  0.00    -0.346 N 
HETATM    5  C   UNL     1      40.080 -12.632   1.437  1.00  0.00     0.256 C 
HETATM    6  O   UNL     1      38.992 -12.308   1.910  1.00  0.00    -0.267 OA
HETATM    7  C   UNL     1      42.358 -13.671   1.887  1.00  0.00     0.141 C 
HETATM    8  C   UNL     1      42.856 -15.130   1.914  1.00  0.00     0.115 C 
ENDROOT
BRANCH   5   9
HETATM    9  C   UNL     1      40.493 -11.981   0.174  1.00  0.00     0.064 A 
HETATM   10  C   UNL     1      40.647 -10.609   0.111  1.00  0.00     0.077 A 
HETATM   11  C   UNL     1      41.011  -9.964  -1.074  1.00  0.00     0.065 A 
HETATM   12  N   UNL     1      40.475  -9.627   1.090  1.00  0.00    -0.330 N 
HETATM   13  N   UNL     1      41.071  -8.594  -0.820  1.00  0.00    -0.331 N 
HETATM   14  C   UNL     1      41.224 -10.643  -2.248  1.00  0.00     0.074 A 
HETATM   15  C   UNL     1      40.717  -8.377   0.517  1.00  0.00     0.176 A 
HETATM   16  H   UNL     1      41.279  -7.863  -1.484  1.00  0.00     0.168 HD
HETATM   17  S   UNL     1      40.594  -6.913   1.263  1.00  0.00    -0.041 SA
HETATM   18  C   UNL     1      41.030 -12.023  -2.204  1.00  0.00     0.119 A 
HETATM   19  F   UNL     1      41.199 -12.739  -3.323  1.00  0.00    -0.206 F 
HETATM   20  C   UNL     1      40.654 -12.693  -1.024  1.00  0.00     0.061 A 
HETATM   21  H   UNL     1      40.133  -9.802   2.028  1.00  0.00     0.168 HD
ENDBRANCH   5   9
BRANCH   1  22
HETATM   22  C   UNL     1      42.912 -17.123   3.225  1.00  0.00     0.044 A 
HETATM   23  C   UNL     1      42.785 -18.111   2.242  1.00  0.00     0.026 A 
HETATM   24  C   UNL     1      43.407 -19.356   2.397  1.00  0.00     0.002 A 
HETATM   25  C   UNL     1      44.170 -19.632   3.534  1.00  0.00     0.003 A 
HETATM   26  C   UNL     1      44.306 -18.666   4.527  1.00  0.00     0.038 A 
HETATM   27  C   UNL     1      43.675 -17.440   4.366  1.00  0.00     0.087 A 
BRANCH  27  28
HETATM   28  O   UNL     1      43.771 -16.512   5.370  1.00  0.00    -0.359 OA
HETATM   29  H   UNL     1      44.659 -16.690   5.740  1.00  0.00     0.218 HD
ENDBRANCH  27  28
ENDBRANCH   1  22
TORSDOF 3
ENDMDL
MODEL 7
REMARK VINA RESULT:      -7.7      3.541      4.030
REMARK  3 active torsions:
REMARK  status: ('A' for Active; 'I' for Inactive)
REMARK    1  A    between atoms: C_3  and  N_4 
REMARK       I    between atoms: N_7  and  C_8 
REMARK    2  A    between atoms: C_8  and  C_9 
REMARK    3  A    between atoms: C_23  and  O_24 
ROOT
HETATM    1  N   UNL     1      42.417 -15.922   4.408  1.00  0.00    -0.278 NA
HETATM    2  C   UNL     1      41.193 -16.053   5.242  1.00  0.00     0.115 C 
HETATM    3  C   UNL     1      40.795 -14.690   5.836  1.00  0.00     0.141 C 
HETATM    4  N   UNL     1      40.657 -13.669   4.787  1.00  0.00    -0.346 N 
HETATM    5  C   UNL     1      39.690 -12.683   4.961  1.00  0.00     0.256 C 
HETATM    6  O   UNL     1      39.001 -12.602   5.976  1.00  0.00    -0.267 OA
HETATM    7  C   UNL     1      41.851 -13.547   3.935  1.00  0.00     0.141 C 
HETATM    8  C   UNL     1      42.251 -14.907   3.328  1.00  0.00     0.115 C 
ENDROOT
BRANCH   5   9
HETATM    9  C   UNL     1      39.426 -11.708   3.881  1.00  0.00     0.064 A 
HETATM   10  C   UNL     1      39.823 -10.390   4.014  1.00  0.00     0.077 A 
HETATM   11  C   UNL     1      39.565  -9.440   3.023  1.00  0.00     0.065 A 
HETATM   12  N   UNL     1      40.482  -9.739   5.060  1.00  0.00    -0.330 N 
HETATM   13  N   UNL     1      40.073  -8.215   3.454  1.00  0.00    -0.331 N 
HETATM   14  C   UNL     1      38.893  -9.746   1.865  1.00  0.00     0.074 A 
HETATM   15  C   UNL     1      40.624  -8.390   4.730  1.00  0.00     0.176 A 
HETATM   16  H   UNL     1      40.015  -7.332   2.970  1.00  0.00     0.168 HD
HETATM   17  S   UNL     1      41.296  -7.213   5.666  1.00  0.00    -0.041 SA
HETATM   18  C   UNL     1      38.452 -11.063   1.740  1.00  0.00     0.119 A 
HETATM   19  F   UNL     1      37.770 -11.419   0.644  1.00  0.00    -0.206 F 
HETATM   20  C   UNL     1      38.692 -12.034   2.731  1.00  0.00     0.061 A 
HETATM   21  H   UNL     1      40.722 -10.168   5.947  1.00  0.00     0.168 HD
ENDBRANCH   5   9
BRANCH   1  22
HETATM   22  C   UNL     1      42.904 -17.139   3.864  1.00  0.00     0.044 A 
HETATM   23  C   UNL     1      42.499 -17.682   2.640  1.00  0.00     0.026 A 
HETATM   24  C   UNL     1      43.067 -18.869   2.163  1.00  0.00     0.002 A 
HETATM   25  C   UNL     1      44.054 -19.530   2.898  1.00  0.00     0.003 A 
HETATM   26  C   UNL     1      44.469 -19.011   4.121  1.00  0.00     0.038 A 
HETATM   27  C   UNL     1      43.889 -17.839   4.588  1.00  0.00     0.087 A 
BRANCH  27  28
HETATM   28  O   UNL     1      44.267 -17.361   5.816  1.00  0.00    -0.359 OA
HETATM   29  H   UNL     1      45.243 -17.423   5.778  1.00  0.00     0.218 HD
ENDBRANCH  27  28
ENDBRANCH   1  22
TORSDOF 3
ENDMDL
MODEL 8
REMARK VINA RESULT:      -7.6     14.972     16.346
REMARK  3 active torsions:
REMARK  status: ('A' for Active; 'I' for Inactive)
REMARK    1  A    between atoms: C_3  and  N_4 
REMARK       I    between atoms: N_7  and  C_8 
REMARK    2  A    between atoms: C_8  and  C_9 
REMARK    3  A    between atoms: C_23  and  O_24 
ROOT
HETATM    1  N   UNL     1      47.250 -29.723   2.652  1.00  0.00    -0.278 NA
HETATM    2  C   UNL     1      45.873 -30.216   2.916  1.00  0.00     0.115 C 
HETATM    3  C   UNL     1      44.836 -29.353   2.174  1.00  0.00     0.141 C 
HETATM    4  N   UNL     1      45.141 -29.271   0.738  1.00  0.00    -0.346 N 
HETATM    5  C   UNL     1      44.072 -29.196  -0.151  1.00  0.00     0.256 C 
HETATM    6  O   UNL     1      42.902 -29.133   0.223  1.00  0.00    -0.267 OA
HETATM    7  C   UNL     1      46.511 -28.812   0.459  1.00  0.00     0.141 C 
HETATM    8  C   UNL     1      47.556 -29.676   1.192  1.00  0.00     0.115 C 
ENDROOT
BRANCH   5   9
HETATM    9  C   UNL     1      44.318 -29.236  -1.609  1.00  0.00     0.064 A 
HETATM   10  C   UNL     1      44.223 -30.428  -2.304  1.00  0.00     0.077 A 
HETATM   11  C   UNL     1      44.475 -30.502  -3.676  1.00  0.00     0.065 A 
HETATM   12  N   UNL     1      43.912 -31.717  -1.862  1.00  0.00    -0.330 N 
HETATM   13  N   UNL     1      44.310 -31.827  -4.076  1.00  0.00    -0.331 N 
HETATM   14  C   UNL     1      44.847 -29.407  -4.417  1.00  0.00     0.074 A 
HETATM   15  C   UNL     1      43.982 -32.591  -2.949  1.00  0.00     0.176 A 
HETATM   16  H   UNL     1      44.450 -32.202  -5.002  1.00  0.00     0.168 HD
HETATM   17  S   UNL     1      43.742 -34.220  -2.918  1.00  0.00    -0.041 SA
HETATM   18  C   UNL     1      44.986 -28.209  -3.717  1.00  0.00     0.119 A 
HETATM   19  F   UNL     1      45.369 -27.110  -4.380  1.00  0.00    -0.206 F 
HETATM   20  C   UNL     1      44.747 -28.114  -2.333  1.00  0.00     0.061 A 
HETATM   21  H   UNL     1      43.761 -31.974  -0.894  1.00  0.00     0.168 HD
ENDBRANCH   5   9
BRANCH   1  22
HETATM   22  C   UNL     1      48.277 -30.415   3.344  1.00  0.00     0.044 A 
HETATM   23  C   UNL     1      48.292 -31.795   3.573  1.00  0.00     0.026 A 
HETATM   24  C   UNL     1      49.372 -32.398   4.230  1.00  0.00     0.002 A 
HETATM   25  C   UNL     1      50.456 -31.632   4.664  1.00  0.00     0.003 A 
HETATM   26  C   UNL     1      50.461 -30.257   4.452  1.00  0.00     0.038 A 
HETATM   27  C   UNL     1      49.379 -29.670   3.809  1.00  0.00     0.087 A 
BRANCH  27  28
HETATM   28  O   UNL     1      49.367 -28.309   3.648  1.00  0.00    -0.359 OA
HETATM   29  H   UNL     1      49.881 -27.999   4.421  1.00  0.00     0.218 HD
ENDBRANCH  27  28
ENDBRANCH   1  22
TORSDOF 3
ENDMDL
MODEL 9
REMARK VINA RESULT:      -7.6      6.227      8.845
REMARK  3 active torsions:
REMARK  status: ('A' for Active; 'I' for Inactive)
REMARK    1  A    between atoms: C_3  and  N_4 
REMARK       I    between atoms: N_7  and  C_8 
REMARK    2  A    between atoms: C_8  and  C_9 
REMARK    3  A    between atoms: C_23  and  O_24 
ROOT
HETATM    1  N   UNL     1      41.840 -12.582   2.831  1.00  0.00    -0.278 NA
HETATM    2  C   UNL     1      41.553 -13.569   3.904  1.00  0.00     0.115 C 
HETATM    3  C   UNL     1      42.796 -13.790   4.785  1.00  0.00     0.141 C 
HETATM    4  N   UNL     1      43.310 -12.517   5.311  1.00  0.00    -0.346 N 
HETATM    5  C   UNL     1      43.884 -12.522   6.580  1.00  0.00     0.256 C 
HETATM    6  O   UNL     1      44.032 -13.551   7.237  1.00  0.00    -0.267 OA
HETATM    7  C   UNL     1      43.572 -11.517   4.264  1.00  0.00     0.141 C 
HETATM    8  C   UNL     1      42.329 -11.285   3.382  1.00  0.00     0.115 C 
ENDROOT
BRANCH   5   9
HETATM    9  C   UNL     1      44.304 -11.249   7.206  1.00  0.00     0.064 A 
HETATM   10  C   UNL     1      43.360 -10.344   7.654  1.00  0.00     0.077 A 
HETATM   11  C   UNL     1      43.726  -9.123   8.226  1.00  0.00     0.065 A 
HETATM   12  N   UNL     1      41.964 -10.398   7.632  1.00  0.00    -0.330 N 
HETATM   13  N   UNL     1      42.560  -8.435   8.563  1.00  0.00    -0.331 N 
HETATM   14  C   UNL     1      45.036  -8.737   8.366  1.00  0.00     0.074 A 
HETATM   15  C   UNL     1      41.462  -9.213   8.175  1.00  0.00     0.176 A 
HETATM   16  H   UNL     1      42.496  -7.513   8.966  1.00  0.00     0.168 HD
HETATM   17  S   UNL     1      39.876  -8.792   8.319  1.00  0.00    -0.041 SA
HETATM   18  C   UNL     1      45.994  -9.625   7.879  1.00  0.00     0.119 A 
HETATM   19  F   UNL     1      47.289  -9.296   7.964  1.00  0.00    -0.206 F 
HETATM   20  C   UNL     1      45.648 -10.856   7.290  1.00  0.00     0.061 A 
HETATM   21  H   UNL     1      41.422 -11.137   7.199  1.00  0.00     0.168 HD
ENDBRANCH   5   9
BRANCH   1  22
HETATM   22  C   UNL     1      40.773 -12.355   1.924  1.00  0.00     0.044 A 
HETATM   23  C   UNL     1      39.722 -11.457   2.139  1.00  0.00     0.026 A 
HETATM   24  C   UNL     1      38.733 -11.268   1.166  1.00  0.00     0.002 A 
HETATM   25  C   UNL     1      38.782 -11.970  -0.041  1.00  0.00     0.003 A 
HETATM   26  C   UNL     1      39.815 -12.873  -0.275  1.00  0.00     0.038 A 
HETATM   27  C   UNL     1      40.783 -13.059   0.703  1.00  0.00     0.087 A 
BRANCH  27  28
HETATM   28  O   UNL     1      41.769 -13.986   0.487  1.00  0.00    -0.359 OA
HETATM   29  H   UNL     1      41.259 -14.807   0.330  1.00  0.00     0.218 HD
ENDBRANCH  27  28
ENDBRANCH   1  22
TORSDOF 3
ENDMDL
MODEL 10
REMARK VINA RESULT:      -7.5      1.891      2.296
REMARK  3 active torsions:
REMARK  status: ('A' for Active; 'I' for Inactive)
REMARK    1  A    between atoms: C_3  and  N_4 
REMARK       I    between atoms: N_7  and  C_8 
REMARK    2  A    between atoms: C_8  and  C_9 
REMARK    3  A    between atoms: C_23  and  O_24 
ROOT
HETATM    1  N   UNL     1      42.176 -14.342   4.003  1.00  0.00    -0.278 NA
HETATM    2  C   UNL     1      40.734 -14.113   4.280  1.00  0.00     0.115 C 
HETATM    3  C   UNL     1      40.204 -12.930   3.448  1.00  0.00     0.141 C 
HETATM    4  N   UNL     1      40.482 -13.117   2.017  1.00  0.00    -0.346 N 
HETATM    5  C   UNL     1      39.553 -12.625   1.104  1.00  0.00     0.256 C 
HETATM    6  O   UNL     1      38.556 -11.993   1.448  1.00  0.00    -0.267 OA
HETATM    7  C   UNL     1      41.902 -13.374   1.729  1.00  0.00     0.141 C 
HETATM    8  C   UNL     1      42.438 -14.563   2.551  1.00  0.00     0.115 C 
ENDROOT
BRANCH   5   9
HETATM    9  C   UNL     1      39.722 -12.895  -0.340  1.00  0.00     0.064 A 
HETATM   10  C   UNL     1      40.217 -11.917  -1.183  1.00  0.00     0.077 A 
HETATM   11  C   UNL     1      40.363 -12.133  -2.555  1.00  0.00     0.065 A 
HETATM   12  N   UNL     1      40.626 -10.607  -0.917  1.00  0.00    -0.330 N 
HETATM   13  N   UNL     1      40.869 -10.966  -3.127  1.00  0.00    -0.331 N 
HETATM   14  C   UNL     1      40.013 -13.318  -3.156  1.00  0.00     0.074 A 
HETATM   15  C   UNL     1      41.013 -10.007  -2.117  1.00  0.00     0.176 A 
HETATM   16  H   UNL     1      41.055 -10.802  -4.105  1.00  0.00     0.168 HD
HETATM   17  S   UNL     1      41.527  -8.455  -2.319  1.00  0.00    -0.041 SA
HETATM   18  C   UNL     1      39.475 -14.295  -2.321  1.00  0.00     0.119 A 
HETATM   19  F   UNL     1      39.092 -15.464  -2.851  1.00  0.00    -0.206 F 
HETATM   20  C   UNL     1      39.309 -14.095  -0.938  1.00  0.00     0.061 A 
HETATM   21  H   UNL     1      40.553 -10.153  -0.014  1.00  0.00     0.168 HD
ENDBRANCH   5   9
BRANCH   1  22
HETATM   22  C   UNL     1      42.776 -15.374   4.770  1.00  0.00     0.044 A 
HETATM   23  C   UNL     1      42.716 -16.737   4.456  1.00  0.00     0.026 A 
HETATM   24  C   UNL     1      43.376 -17.682   5.250  1.00  0.00     0.002 A 
HETATM   25  C   UNL     1      44.112 -17.281   6.367  1.00  0.00     0.003 A 
HETATM   26  C   UNL     1      44.182 -15.932   6.702  1.00  0.00     0.038 A 
HETATM   27  C   UNL     1      43.513 -15.006   5.912  1.00  0.00     0.087 A 
BRANCH  27  28
HETATM   28  O   UNL     1      43.545 -13.685   6.276  1.00  0.00    -0.359 OA
HETATM   29  H   UNL     1      44.404 -13.385   5.916  1.00  0.00     0.218 HD
ENDBRANCH  27  28
ENDBRANCH   1  22
TORSDOF 3
ENDMDL
