MODEL 1
REMARK VINA RESULT:      -9.1      0.000      0.000
REMARK  6 active torsions:
REMARK  status: ('A' for Active; 'I' for Inactive)
REMARK    1  A    between atoms: C_6  and  C_7 
REMARK    2  A    between atoms: C_7  and  N_8 
REMARK    3  A    between atoms: C_12  and  C_13 
REMARK    4  A    between atoms: C_13  and  C_14 
REMARK    5  A    between atoms: N_23  and  C_24 
REMARK    6  A    between atoms: C_24  and  C_25 
ROOT
HETATM    1  C   UNL     1      41.431 -13.598   3.639  1.00  0.00     0.149 C 
HETATM    2  N   UNL     1      42.242 -12.452   3.252  1.00  0.00    -0.220 NA
HETATM    3  C   UNL     1      41.633 -11.727   2.246  1.00  0.00     0.304 C 
HETATM    4  O   UNL     1      42.201 -10.826   1.655  1.00  0.00    -0.253 OA
HETATM    5  N   UNL     1      40.368 -12.178   2.070  1.00  0.00    -0.270 N 
HETATM    6  C   UNL     1      40.130 -13.251   2.879  1.00  0.00     0.257 C 
HETATM    7  O   UNL     1      39.066 -13.844   2.995  1.00  0.00    -0.270 OA
HETATM    8  H   UNL     1      43.226 -12.621   3.050  1.00  0.00     0.134 HD
ENDROOT
BRANCH   1   9
HETATM    9  C   UNL     1      41.194 -13.672   5.182  1.00  0.00     0.028 C 
HETATM   10  C   UNL     1      40.356 -12.508   5.755  1.00  0.00     0.035 C 
HETATM   11  C   UNL     1      41.117 -11.198   5.940  1.00  0.00     0.235 C 
HETATM   12  N   UNL     1      42.384 -11.424   6.728  1.00  0.00    -0.067 N 
HETATM   13  H   UNL     1      42.097 -11.714   7.670  1.00  0.00     0.280 HD
HETATM   14  C   UNL     1      43.261 -12.509   6.156  1.00  0.00     0.235 C 
HETATM   15  C   UNL     1      42.472 -13.802   6.034  1.00  0.00     0.035 C 
BRANCH  12  16
HETATM   16  C   UNL     1      43.187 -10.145   6.915  1.00  0.00     0.273 C 
BRANCH  16  17
HETATM   17  C   UNL     1      43.305  -9.697   8.350  1.00  0.00    -0.027 A 
HETATM   18  C   UNL     1      44.481  -9.872   9.110  1.00  0.00    -0.054 A 
HETATM   19  C   UNL     1      44.490  -9.473  10.459  1.00  0.00     0.014 A 
HETATM   20  C   UNL     1      45.741 -10.460   8.534  1.00  0.00     0.049 C 
HETATM   21  C   UNL     1      43.368  -8.884  11.055  1.00  0.00    -0.061 A 
HETATM   22  C   UNL     1      43.389  -8.482  12.501  1.00  0.00     0.048 C 
HETATM   23  C   UNL     1      42.210  -8.713  10.296  1.00  0.00     0.007 A 
HETATM   24  C   UNL     1      42.180  -9.108   8.959  1.00  0.00     0.010 A 
ENDBRANCH  16  17
ENDBRANCH  12  16
ENDBRANCH   1   9
BRANCH   1  25
HETATM   25  C   UNL     1      42.068 -14.872   3.084  1.00  0.00     0.067 A 
HETATM   26  N   UNL     1      41.628 -16.038   3.644  1.00  0.00    -0.263 NA
HETATM   27  C   UNL     1      42.182 -17.191   3.201  1.00  0.00     0.117 A 
HETATM   28  C   UNL     1      43.127 -17.249   2.192  1.00  0.00     0.019 A 
HETATM   29  C   UNL     1      43.532 -16.059   1.601  1.00  0.00     0.003 A 
HETATM   30  C   UNL     1      42.998 -14.853   2.046  1.00  0.00     0.030 A 
ENDBRANCH   1  25
BRANCH   5  31
HETATM   31  C   UNL     1      39.439 -11.657   1.085  1.00  0.00     0.168 C 
BRANCH  31  32
HETATM   32  C   UNL     1      39.682 -12.180  -0.331  1.00  0.00     0.140 C 
HETATM   33  O   UNL     1      38.565 -11.811  -1.165  1.00  0.00    -0.384 OA
HETATM   34  C   UNL     1      38.088 -12.981  -1.842  1.00  0.00     0.168 C 
HETATM   35  C   UNL     1      39.217 -13.984  -1.783  1.00  0.00     0.029 C 
HETATM   36  C   UNL     1      39.809 -13.697  -0.425  1.00  0.00     0.036 C 
ENDBRANCH  31  32
ENDBRANCH   5  31
TORSDOF 6
ENDMDL
MODEL 2
REMARK VINA RESULT:      -9.0      1.795      2.568
REMARK  6 active torsions:
REMARK  status: ('A' for Active; 'I' for Inactive)
REMARK    1  A    between atoms: C_6  and  C_7 
REMARK    2  A    between atoms: C_7  and  N_8 
REMARK    3  A    between atoms: C_12  and  C_13 
REMARK    4  A    between atoms: C_13  and  C_14 
REMARK    5  A    between atoms: N_23  and  C_24 
REMARK    6  A    between atoms: C_24  and  C_25 
ROOT
HETATM    1  C   UNL     1      42.322 -15.691   4.691  1.00  0.00     0.149 C 
HETATM    2  N   UNL     1      43.251 -14.726   4.120  1.00  0.00    -0.220 NA
HETATM    3  C   UNL     1      42.910 -14.415   2.819  1.00  0.00     0.304 C 
HETATM    4  O   UNL     1      43.635 -13.758   2.092  1.00  0.00    -0.253 OA
HETATM    5  N   UNL     1      41.693 -14.938   2.536  1.00  0.00    -0.270 N 
HETATM    6  C   UNL     1      41.234 -15.670   3.592  1.00  0.00     0.257 C 
HETATM    7  O   UNL     1      40.144 -16.218   3.670  1.00  0.00    -0.270 OA
HETATM    8  H   UNL     1      44.247 -14.925   4.210  1.00  0.00     0.134 HD
ENDROOT
BRANCH   1   9
HETATM    9  C   UNL     1      41.753 -15.232   6.072  1.00  0.00     0.028 C 
HETATM   10  C   UNL     1      40.768 -14.046   5.994  1.00  0.00     0.035 C 
HETATM   11  C   UNL     1      41.421 -12.677   5.814  1.00  0.00     0.235 C 
HETATM   12  N   UNL     1      42.490 -12.456   6.855  1.00  0.00    -0.067 N 
HETATM   13  H   UNL     1      42.013 -12.419   7.763  1.00  0.00     0.280 HD
HETATM   14  C   UNL     1      43.512 -13.565   6.913  1.00  0.00     0.235 C 
HETATM   15  C   UNL     1      42.816 -14.897   7.138  1.00  0.00     0.035 C 
BRANCH  12  16
HETATM   16  C   UNL     1      43.185 -11.111   6.697  1.00  0.00     0.273 C 
BRANCH  16  17
HETATM   17  C   UNL     1      43.393 -10.370   7.993  1.00  0.00    -0.027 A 
HETATM   18  C   UNL     1      44.657 -10.248   8.607  1.00  0.00    -0.054 A 
HETATM   19  C   UNL     1      44.756  -9.585   9.844  1.00  0.00     0.014 A 
HETATM   20  C   UNL     1      45.919 -10.791   7.989  1.00  0.00     0.049 C 
HETATM   21  C   UNL     1      43.634  -9.022  10.463  1.00  0.00    -0.061 A 
HETATM   22  C   UNL     1      43.755  -8.334  11.792  1.00  0.00     0.048 C 
HETATM   23  C   UNL     1      42.388  -9.144   9.847  1.00  0.00     0.007 A 
HETATM   24  C   UNL     1      42.270  -9.804   8.625  1.00  0.00     0.010 A 
ENDBRANCH  16  17
ENDBRANCH  12  16
ENDBRANCH   1   9
BRANCH   1  25
HETATM   25  C   UNL     1      43.002 -17.058   4.764  1.00  0.00     0.067 A 
HETATM   26  N   UNL     1      42.907 -17.695   5.969  1.00  0.00    -0.263 NA
HETATM   27  C   UNL     1      43.516 -18.898   6.088  1.00  0.00     0.117 A 
HETATM   28  C   UNL     1      44.182 -19.527   5.052  1.00  0.00     0.019 A 
HETATM   29  C   UNL     1      44.232 -18.888   3.819  1.00  0.00     0.003 A 
HETATM   30  C   UNL     1      43.634 -17.640   3.667  1.00  0.00     0.030 A 
ENDBRANCH   1  25
BRANCH   5  31
HETATM   31  C   UNL     1      41.025 -14.820   1.253  1.00  0.00     0.168 C 
BRANCH  31  32
HETATM   32  C   UNL     1      40.230 -13.525   1.087  1.00  0.00     0.140 C 
HETATM   33  O   UNL     1      41.080 -12.528   0.484  1.00  0.00    -0.384 OA
HETATM   34  C   UNL     1      41.027 -11.335   1.278  1.00  0.00     0.168 C 
HETATM   35  C   UNL     1      39.771 -11.446   2.111  1.00  0.00     0.029 C 
HETATM   36  C   UNL     1      39.725 -12.927   2.396  1.00  0.00     0.036 C 
ENDBRANCH  31  32
ENDBRANCH   5  31
TORSDOF 6
ENDMDL
MODEL 3
REMARK VINA RESULT:      -8.9      2.200      7.516
REMARK  6 active torsions:
REMARK  status: ('A' for Active; 'I' for Inactive)
REMARK    1  A    between atoms: C_6  and  C_7 
REMARK    2  A    between atoms: C_7  and  N_8 
REMARK    3  A    between atoms: C_12  and  C_13 
REMARK    4  A    between atoms: C_13  and  C_14 
REMARK    5  A    between atoms: N_23  and  C_24 
REMARK    6  A    between atoms: C_24  and  C_25 
ROOT
HETATM    1  C   UNL     1      42.501 -10.821   6.131  1.00  0.00     0.149 C 
HETATM    2  N   UNL     1      41.452 -11.606   6.766  1.00  0.00    -0.220 NA
HETATM    3  C   UNL     1      40.216 -11.319   6.222  1.00  0.00     0.304 C 
HETATM    4  O   UNL     1      39.177 -11.732   6.705  1.00  0.00    -0.253 OA
HETATM    5  N   UNL     1      40.378 -10.551   5.117  1.00  0.00    -0.270 N 
HETATM    6  C   UNL     1      41.696 -10.240   4.946  1.00  0.00     0.257 C 
HETATM    7  O   UNL     1      42.173  -9.612   4.010  1.00  0.00    -0.270 OA
HETATM    8  H   UNL     1      41.422 -11.610   7.784  1.00  0.00     0.134 HD
ENDROOT
BRANCH   1   9
HETATM    9  C   UNL     1      43.696 -11.701   5.639  1.00  0.00     0.028 C 
HETATM   10  C   UNL     1      43.513 -12.288   4.223  1.00  0.00     0.035 C 
HETATM   11  C   UNL     1      42.592 -13.503   4.142  1.00  0.00     0.235 C 
HETATM   12  N   UNL     1      43.008 -14.555   5.141  1.00  0.00    -0.067 N 
HETATM   13  H   UNL     1      43.934 -14.889   4.848  1.00  0.00     0.280 HD
HETATM   14  C   UNL     1      43.129 -14.031   6.550  1.00  0.00     0.235 C 
HETATM   15  C   UNL     1      44.090 -12.854   6.584  1.00  0.00     0.035 C 
BRANCH  12  16
HETATM   16  C   UNL     1      42.099 -15.775   5.111  1.00  0.00     0.273 C 
BRANCH  16  17
HETATM   17  C   UNL     1      42.598 -16.892   4.230  1.00  0.00    -0.027 A 
HETATM   18  C   UNL     1      42.119 -17.102   2.920  1.00  0.00    -0.054 A 
HETATM   19  C   UNL     1      42.599 -18.200   2.183  1.00  0.00     0.014 A 
HETATM   20  C   UNL     1      41.117 -16.188   2.264  1.00  0.00     0.049 C 
HETATM   21  C   UNL     1      43.558 -19.072   2.712  1.00  0.00    -0.061 A 
HETATM   22  C   UNL     1      44.045 -20.250   1.919  1.00  0.00     0.048 C 
HETATM   23  C   UNL     1      44.028 -18.856   4.008  1.00  0.00     0.007 A 
HETATM   24  C   UNL     1      43.559 -17.777   4.755  1.00  0.00     0.010 A 
ENDBRANCH  16  17
ENDBRANCH  12  16
ENDBRANCH   1   9
BRANCH   1  25
HETATM   25  C   UNL     1      42.946  -9.714   7.086  1.00  0.00     0.067 A 
HETATM   26  N   UNL     1      42.167  -8.592   7.086  1.00  0.00    -0.263 NA
HETATM   27  C   UNL     1      42.537  -7.575   7.899  1.00  0.00     0.117 A 
HETATM   28  C   UNL     1      43.625  -7.631   8.751  1.00  0.00     0.019 A 
HETATM   29  C   UNL     1      44.383  -8.795   8.773  1.00  0.00     0.003 A 
HETATM   30  C   UNL     1      44.043  -9.854   7.935  1.00  0.00     0.030 A 
ENDBRANCH   1  25
BRANCH   5  31
HETATM   31  C   UNL     1      39.292 -10.048   4.298  1.00  0.00     0.168 C 
BRANCH  31  32
HETATM   32  C   UNL     1      38.774 -11.056   3.271  1.00  0.00     0.140 C 
HETATM   33  O   UNL     1      39.895 -11.758   2.698  1.00  0.00    -0.384 OA
HETATM   34  C   UNL     1      39.797 -11.695   1.269  1.00  0.00     0.168 C 
HETATM   35  C   UNL     1      38.356 -11.357   0.966  1.00  0.00     0.029 C 
HETATM   36  C   UNL     1      38.015 -10.430   2.107  1.00  0.00     0.036 C 
ENDBRANCH  31  32
ENDBRANCH   5  31
TORSDOF 6
ENDMDL
MODEL 4
REMARK VINA RESULT:      -8.7      3.236      8.798
REMARK  6 active torsions:
REMARK  status: ('A' for Active; 'I' for Inactive)
REMARK    1  A    between atoms: C_6  and  C_7 
REMARK    2  A    between atoms: C_7  and  N_8 
REMARK    3  A    between atoms: C_12  and  C_13 
REMARK    4  A    between atoms: C_13  and  C_14 
REMARK    5  A    between atoms: N_23  and  C_24 
REMARK    6  A    between atoms: C_24  and  C_25 
ROOT
HETATM    1  C   UNL     1      41.512 -14.197   3.330  1.00  0.00     0.149 C 
HETATM    2  N   UNL     1      42.341 -14.324   2.140  1.00  0.00    -0.220 NA
HETATM    3  C   UNL     1      43.312 -15.290   2.310  1.00  0.00     0.304 C 
HETATM    4  O   UNL     1      44.218 -15.454   1.511  1.00  0.00    -0.253 OA
HETATM    5  N   UNL     1      43.067 -15.978   3.451  1.00  0.00    -0.270 N 
HETATM    6  C   UNL     1      41.996 -15.443   4.105  1.00  0.00     0.257 C 
HETATM    7  O   UNL     1      41.490 -15.875   5.132  1.00  0.00    -0.270 OA
HETATM    8  H   UNL     1      42.729 -13.467   1.746  1.00  0.00     0.134 HD
ENDROOT
BRANCH   1   9
HETATM    9  C   UNL     1      39.984 -14.276   3.008  1.00  0.00     0.028 C 
HETATM   10  C   UNL     1      39.566 -15.528   2.208  1.00  0.00     0.035 C 
HETATM   11  C   UNL     1      39.872 -15.469   0.713  1.00  0.00     0.235 C 
HETATM   12  N   UNL     1      39.323 -14.200   0.106  1.00  0.00    -0.067 N 
HETATM   13  H   UNL     1      38.301 -14.258   0.178  1.00  0.00     0.280 HD
HETATM   14  C   UNL     1      39.769 -12.950   0.823  1.00  0.00     0.235 C 
HETATM   15  C   UNL     1      39.402 -13.039   2.295  1.00  0.00     0.035 C 
BRANCH  12  16
HETATM   16  C   UNL     1      39.629 -14.089  -1.380  1.00  0.00     0.273 C 
BRANCH  16  17
HETATM   17  C   UNL     1      39.009 -12.888  -2.048  1.00  0.00    -0.027 A 
HETATM   18  C   UNL     1      39.777 -11.860  -2.634  1.00  0.00    -0.054 A 
HETATM   19  C   UNL     1      39.120 -10.746  -3.189  1.00  0.00     0.014 A 
HETATM   20  C   UNL     1      41.280 -11.906  -2.702  1.00  0.00     0.049 C 
HETATM   21  C   UNL     1      37.723 -10.650  -3.196  1.00  0.00    -0.061 A 
HETATM   22  C   UNL     1      37.040  -9.446  -3.776  1.00  0.00     0.048 C 
HETATM   23  C   UNL     1      36.971 -11.672  -2.617  1.00  0.00     0.007 A 
HETATM   24  C   UNL     1      37.604 -12.780  -2.056  1.00  0.00     0.010 A 
ENDBRANCH  16  17
ENDBRANCH  12  16
ENDBRANCH   1   9
BRANCH   1  25
HETATM   25  C   UNL     1      41.888 -12.912   4.067  1.00  0.00     0.067 A 
HETATM   26  N   UNL     1      41.271 -12.727   5.273  1.00  0.00    -0.263 NA
HETATM   27  C   UNL     1      41.555 -11.590   5.951  1.00  0.00     0.117 A 
HETATM   28  C   UNL     1      42.459 -10.640   5.511  1.00  0.00     0.019 A 
HETATM   29  C   UNL     1      43.112 -10.863   4.305  1.00  0.00     0.003 A 
HETATM   30  C   UNL     1      42.829 -12.011   3.571  1.00  0.00     0.030 A 
ENDBRANCH   1  25
BRANCH   5  31
HETATM   31  C   UNL     1      43.894 -17.059   3.953  1.00  0.00     0.168 C 
BRANCH  31  32
HETATM   32  C   UNL     1      43.275 -18.446   3.769  1.00  0.00     0.140 C 
HETATM   33  O   UNL     1      43.793 -19.327   4.786  1.00  0.00    -0.384 OA
HETATM   34  C   UNL     1      44.290 -20.516   4.157  1.00  0.00     0.168 C 
HETATM   35  C   UNL     1      43.644 -20.564   2.792  1.00  0.00     0.029 C 
HETATM   36  C   UNL     1      43.590 -19.101   2.429  1.00  0.00     0.036 C 
ENDBRANCH  31  32
ENDBRANCH   5  31
TORSDOF 6
ENDMDL
MODEL 5
REMARK VINA RESULT:      -8.7      2.935      8.015
REMARK  6 active torsions:
REMARK  status: ('A' for Active; 'I' for Inactive)
REMARK    1  A    between atoms: C_6  and  C_7 
REMARK    2  A    between atoms: C_7  and  N_8 
REMARK    3  A    between atoms: C_12  and  C_13 
REMARK    4  A    between atoms: C_13  and  C_14 
REMARK    5  A    between atoms: N_23  and  C_24 
REMARK    6  A    between atoms: C_24  and  C_25 
ROOT
HETATM    1  C   UNL     1      42.512 -10.754   6.161  1.00  0.00     0.149 C 
HETATM    2  N   UNL     1      41.507 -11.588   6.805  1.00  0.00    -0.220 NA
HETATM    3  C   UNL     1      40.237 -11.260   6.377  1.00  0.00     0.304 C 
HETATM    4  O   UNL     1      39.234 -11.712   6.899  1.00  0.00    -0.253 OA
HETATM    5  N   UNL     1      40.323 -10.406   5.328  1.00  0.00    -0.270 N 
HETATM    6  C   UNL     1      41.626 -10.081   5.087  1.00  0.00     0.257 C 
HETATM    7  O   UNL     1      42.037  -9.380   4.173  1.00  0.00    -0.270 OA
HETATM    8  H   UNL     1      41.551 -11.674   7.820  1.00  0.00     0.134 HD
ENDROOT
BRANCH   1   9
HETATM    9  C   UNL     1      43.664 -11.591   5.515  1.00  0.00     0.028 C 
HETATM   10  C   UNL     1      43.326 -12.172   4.125  1.00  0.00     0.035 C 
HETATM   11  C   UNL     1      42.440 -13.416   4.145  1.00  0.00     0.235 C 
HETATM   12  N   UNL     1      43.010 -14.461   5.072  1.00  0.00    -0.067 N 
HETATM   13  H   UNL     1      43.902 -14.762   4.663  1.00  0.00     0.280 HD
HETATM   14  C   UNL     1      43.288 -13.945   6.462  1.00  0.00     0.235 C 
HETATM   15  C   UNL     1      44.208 -12.737   6.390  1.00  0.00     0.035 C 
BRANCH  12  16
HETATM   16  C   UNL     1      42.143 -15.710   5.140  1.00  0.00     0.273 C 
BRANCH  16  17
HETATM   17  C   UNL     1      42.608 -16.831   4.245  1.00  0.00    -0.027 A 
HETATM   18  C   UNL     1      42.092 -17.034   2.947  1.00  0.00    -0.054 A 
HETATM   19  C   UNL     1      42.542 -18.136   2.197  1.00  0.00     0.014 A 
HETATM   20  C   UNL     1      41.082 -16.111   2.319  1.00  0.00     0.049 C 
HETATM   21  C   UNL     1      43.507 -19.017   2.699  1.00  0.00    -0.061 A 
HETATM   22  C   UNL     1      43.961 -20.199   1.892  1.00  0.00     0.048 C 
HETATM   23  C   UNL     1      44.013 -18.808   3.982  1.00  0.00     0.007 A 
HETATM   24  C   UNL     1      43.575 -17.725   4.743  1.00  0.00     0.010 A 
ENDBRANCH  16  17
ENDBRANCH  12  16
ENDBRANCH   1   9
BRANCH   1  25
HETATM   25  C   UNL     1      43.030  -9.727   7.167  1.00  0.00     0.067 A 
HETATM   26  N   UNL     1      42.332  -8.553   7.218  1.00  0.00    -0.263 NA
HETATM   27  C   UNL     1      42.770  -7.603   8.077  1.00  0.00     0.117 A 
HETATM   28  C   UNL     1      43.847  -7.776   8.927  1.00  0.00     0.019 A 
HETATM   29  C   UNL     1      44.521  -8.991   8.897  1.00  0.00     0.003 A 
HETATM   30  C   UNL     1      44.110  -9.983   8.010  1.00  0.00     0.030 A 
ENDBRANCH   1  25
BRANCH   5  31
HETATM   31  C   UNL     1      39.182  -9.840   4.633  1.00  0.00     0.168 C 
BRANCH  31  32
HETATM   32  C   UNL     1      38.729  -8.489   5.188  1.00  0.00     0.140 C 
HETATM   33  O   UNL     1      37.310  -8.537   5.436  1.00  0.00    -0.384 OA
HETATM   34  C   UNL     1      36.693  -7.408   4.805  1.00  0.00     0.168 C 
HETATM   35  C   UNL     1      37.800  -6.408   4.567  1.00  0.00     0.029 C 
HETATM   36  C   UNL     1      38.964  -7.314   4.246  1.00  0.00     0.036 C 
ENDBRANCH  31  32
ENDBRANCH   5  31
TORSDOF 6
ENDMDL
MODEL 6
REMARK VINA RESULT:      -8.5      2.853      8.470
REMARK  6 active torsions:
REMARK  status: ('A' for Active; 'I' for Inactive)
REMARK    1  A    between atoms: C_6  and  C_7 
REMARK    2  A    between atoms: C_7  and  N_8 
REMARK    3  A    between atoms: C_12  and  C_13 
REMARK    4  A    between atoms: C_13  and  C_14 
REMARK    5  A    between atoms: N_23  and  C_24 
REMARK    6  A    between atoms: C_24  and  C_25 
ROOT
HETATM    1  C   UNL     1      42.018 -13.170   3.965  1.00  0.00     0.149 C 
HETATM    2  N   UNL     1      42.725 -13.271   2.696  1.00  0.00    -0.220 NA
HETATM    3  C   UNL     1      42.937 -14.590   2.347  1.00  0.00     0.304 C 
HETATM    4  O   UNL     1      43.649 -14.912   1.413  1.00  0.00    -0.253 OA
HETATM    5  N   UNL     1      42.235 -15.394   3.182  1.00  0.00    -0.270 N 
HETATM    6  C   UNL     1      41.616 -14.652   4.146  1.00  0.00     0.257 C 
HETATM    7  O   UNL     1      40.863 -15.078   5.010  1.00  0.00    -0.270 OA
HETATM    8  H   UNL     1      43.572 -12.714   2.587  1.00  0.00     0.134 HD
ENDROOT
BRANCH   1   9
HETATM    9  C   UNL     1      40.764 -12.240   3.881  1.00  0.00     0.028 C 
HETATM   10  C   UNL     1      39.642 -12.766   2.959  1.00  0.00     0.035 C 
HETATM   11  C   UNL     1      39.887 -12.562   1.466  1.00  0.00     0.235 C 
HETATM   12  N   UNL     1      40.230 -11.122   1.173  1.00  0.00    -0.067 N 
HETATM   13  H   UNL     1      39.394 -10.570   1.396  1.00  0.00     0.280 HD
HETATM   14  C   UNL     1      41.371 -10.596   2.008  1.00  0.00     0.235 C 
HETATM   15  C   UNL     1      41.059 -10.780   3.485  1.00  0.00     0.035 C 
BRANCH  12  16
HETATM   16  C   UNL     1      40.506 -10.881  -0.303  1.00  0.00     0.273 C 
BRANCH  16  17
HETATM   17  C   UNL     1      39.833 -11.866  -1.225  1.00  0.00    -0.027 A 
HETATM   18  C   UNL     1      38.451 -11.828  -1.504  1.00  0.00    -0.054 A 
HETATM   19  C   UNL     1      37.892 -12.818  -2.333  1.00  0.00     0.014 A 
HETATM   20  C   UNL     1      37.540 -10.760  -0.958  1.00  0.00     0.049 C 
HETATM   21  C   UNL     1      38.682 -13.821  -2.907  1.00  0.00    -0.061 A 
HETATM   22  C   UNL     1      38.066 -14.880  -3.774  1.00  0.00     0.048 C 
HETATM   23  C   UNL     1      40.048 -13.850  -2.628  1.00  0.00     0.007 A 
HETATM   24  C   UNL     1      40.618 -12.882  -1.803  1.00  0.00     0.010 A 
ENDBRANCH  16  17
ENDBRANCH  12  16
ENDBRANCH   1   9
BRANCH   1  25
HETATM   25  C   UNL     1      42.998 -12.730   5.052  1.00  0.00     0.067 A 
HETATM   26  N   UNL     1      43.943 -11.826   4.657  1.00  0.00    -0.263 NA
HETATM   27  C   UNL     1      44.849 -11.426   5.581  1.00  0.00     0.117 A 
HETATM   28  C   UNL     1      44.839 -11.849   6.897  1.00  0.00     0.019 A 
HETATM   29  C   UNL     1      43.845 -12.735   7.296  1.00  0.00     0.003 A 
HETATM   30  C   UNL     1      42.910 -13.182   6.368  1.00  0.00     0.030 A 
ENDBRANCH   1  25
BRANCH   5  31
HETATM   31  C   UNL     1      42.232 -16.843   3.118  1.00  0.00     0.168 C 
BRANCH  31  32
HETATM   32  C   UNL     1      43.490 -17.489   3.699  1.00  0.00     0.140 C 
HETATM   33  O   UNL     1      43.834 -18.643   2.905  1.00  0.00    -0.384 OA
HETATM   34  C   UNL     1      44.010 -19.767   3.777  1.00  0.00     0.168 C 
HETATM   35  C   UNL     1      44.238 -19.192   5.155  1.00  0.00     0.029 C 
HETATM   36  C   UNL     1      43.336 -17.983   5.133  1.00  0.00     0.036 C 
ENDBRANCH  31  32
ENDBRANCH   5  31
TORSDOF 6
ENDMDL
MODEL 7
REMARK VINA RESULT:      -8.5      1.462      2.370
REMARK  6 active torsions:
REMARK  status: ('A' for Active; 'I' for Inactive)
REMARK    1  A    between atoms: C_6  and  C_7 
REMARK    2  A    between atoms: C_7  and  N_8 
REMARK    3  A    between atoms: C_12  and  C_13 
REMARK    4  A    between atoms: C_13  and  C_14 
REMARK    5  A    between atoms: N_23  and  C_24 
REMARK    6  A    between atoms: C_24  and  C_25 
ROOT
HETATM    1  C   UNL     1      41.432 -13.384   3.764  1.00  0.00     0.149 C 
HETATM    2  N   UNL     1      42.311 -12.278   3.413  1.00  0.00    -0.220 NA
HETATM    3  C   UNL     1      41.743 -11.478   2.442  1.00  0.00     0.304 C 
HETATM    4  O   UNL     1      42.363 -10.593   1.879  1.00  0.00    -0.253 OA
HETATM    5  N   UNL     1      40.450 -11.840   2.261  1.00  0.00    -0.270 N 
HETATM    6  C   UNL     1      40.150 -12.926   3.031  1.00  0.00     0.257 C 
HETATM    7  O   UNL     1      39.052 -13.454   3.136  1.00  0.00    -0.270 OA
HETATM    8  H   UNL     1      43.281 -12.502   3.194  1.00  0.00     0.134 HD
ENDROOT
BRANCH   1   9
HETATM    9  C   UNL     1      41.202 -13.503   5.305  1.00  0.00     0.028 C 
HETATM   10  C   UNL     1      40.352 -12.366   5.912  1.00  0.00     0.035 C 
HETATM   11  C   UNL     1      41.095 -11.050   6.129  1.00  0.00     0.235 C 
HETATM   12  N   UNL     1      42.368 -11.280   6.906  1.00  0.00    -0.067 N 
HETATM   13  H   UNL     1      42.089 -11.598   7.841  1.00  0.00     0.280 HD
HETATM   14  C   UNL     1      43.258 -12.337   6.302  1.00  0.00     0.235 C 
HETATM   15  C   UNL     1      42.485 -13.637   6.149  1.00  0.00     0.035 C 
BRANCH  12  16
HETATM   16  C   UNL     1      43.155  -9.995   7.124  1.00  0.00     0.273 C 
BRANCH  16  17
HETATM   17  C   UNL     1      43.248  -9.568   8.567  1.00  0.00    -0.027 A 
HETATM   18  C   UNL     1      44.407  -9.762   9.347  1.00  0.00    -0.054 A 
HETATM   19  C   UNL     1      44.392  -9.382  10.702  1.00  0.00     0.014 A 
HETATM   20  C   UNL     1      45.675 -10.352   8.787  1.00  0.00     0.049 C 
HETATM   21  C   UNL     1      43.263  -8.793  11.283  1.00  0.00    -0.061 A 
HETATM   22  C   UNL     1      43.259  -8.412  12.735  1.00  0.00     0.048 C 
HETATM   23  C   UNL     1      42.122  -8.603  10.505  1.00  0.00     0.007 A 
HETATM   24  C   UNL     1      42.115  -8.979   9.162  1.00  0.00     0.010 A 
ENDBRANCH  16  17
ENDBRANCH  12  16
ENDBRANCH   1   9
BRANCH   1  25
HETATM   25  C   UNL     1      41.982 -14.674   3.155  1.00  0.00     0.067 A 
HETATM   26  N   UNL     1      43.049 -14.516   2.316  1.00  0.00    -0.263 NA
HETATM   27  C   UNL     1      43.553 -15.629   1.733  1.00  0.00     0.117 A 
HETATM   28  C   UNL     1      43.077 -16.905   1.976  1.00  0.00     0.019 A 
HETATM   29  C   UNL     1      42.021 -17.054   2.865  1.00  0.00     0.003 A 
HETATM   30  C   UNL     1      41.464 -15.930   3.467  1.00  0.00     0.030 A 
ENDBRANCH   1  25
BRANCH   5  31
HETATM   31  C   UNL     1      39.549 -11.223   1.306  1.00  0.00     0.168 C 
BRANCH  31  32
HETATM   32  C   UNL     1      38.819  -9.994   1.850  1.00  0.00     0.140 C 
HETATM   33  O   UNL     1      39.632  -8.826   1.621  1.00  0.00    -0.384 OA
HETATM   34  C   UNL     1      39.766  -8.108   2.854  1.00  0.00     0.168 C 
HETATM   35  C   UNL     1      38.639  -8.587   3.738  1.00  0.00     0.029 C 
HETATM   36  C   UNL     1      38.544 -10.041   3.349  1.00  0.00     0.036 C 
ENDBRANCH  31  32
ENDBRANCH   5  31
TORSDOF 6
ENDMDL
MODEL 8
REMARK VINA RESULT:      -8.4      3.677      8.811
REMARK  6 active torsions:
REMARK  status: ('A' for Active; 'I' for Inactive)
REMARK    1  A    between atoms: C_6  and  C_7 
REMARK    2  A    between atoms: C_7  and  N_8 
REMARK    3  A    between atoms: C_12  and  C_13 
REMARK    4  A    between atoms: C_13  and  C_14 
REMARK    5  A    between atoms: N_23  and  C_24 
REMARK    6  A    between atoms: C_24  and  C_25 
ROOT
HETATM    1  C   UNL     1      42.339  -9.654   7.271  1.00  0.00     0.149 C 
HETATM    2  N   UNL     1      41.158 -10.343   7.771  1.00  0.00    -0.220 NA
HETATM    3  C   UNL     1      40.148  -9.449   8.067  1.00  0.00     0.304 C 
HETATM    4  O   UNL     1      39.131  -9.782   8.651  1.00  0.00    -0.253 OA
HETATM    5  N   UNL     1      40.483  -8.221   7.602  1.00  0.00    -0.270 N 
HETATM    6  C   UNL     1      41.739  -8.244   7.069  1.00  0.00     0.257 C 
HETATM    7  O   UNL     1      42.304  -7.310   6.516  1.00  0.00    -0.270 OA
HETATM    8  H   UNL     1      41.293 -11.019   8.523  1.00  0.00     0.134 HD
ENDROOT
BRANCH   1   9
HETATM    9  C   UNL     1      42.860 -10.256   5.925  1.00  0.00     0.028 C 
HETATM   10  C   UNL     1      41.757 -10.853   5.025  1.00  0.00     0.035 C 
HETATM   11  C   UNL     1      41.260 -12.235   5.445  1.00  0.00     0.235 C 
HETATM   12  N   UNL     1      42.418 -13.185   5.626  1.00  0.00    -0.067 N 
HETATM   13  H   UNL     1      42.842 -13.312   4.699  1.00  0.00     0.280 HD
HETATM   14  C   UNL     1      43.485 -12.663   6.556  1.00  0.00     0.235 C 
HETATM   15  C   UNL     1      43.977 -11.309   6.070  1.00  0.00     0.035 C 
BRANCH  12  16
HETATM   16  C   UNL     1      41.969 -14.570   6.069  1.00  0.00     0.273 C 
BRANCH  16  17
HETATM   17  C   UNL     1      42.335 -15.672   5.108  1.00  0.00    -0.027 A 
HETATM   18  C   UNL     1      43.496 -16.460   5.257  1.00  0.00    -0.054 A 
HETATM   19  C   UNL     1      43.792 -17.434   4.286  1.00  0.00     0.014 A 
HETATM   20  C   UNL     1      44.435 -16.312   6.425  1.00  0.00     0.049 C 
HETATM   21  C   UNL     1      42.947 -17.655   3.192  1.00  0.00    -0.061 A 
HETATM   22  C   UNL     1      43.289 -18.685   2.155  1.00  0.00     0.048 C 
HETATM   23  C   UNL     1      41.800 -16.874   3.053  1.00  0.00     0.007 A 
HETATM   24  C   UNL     1      41.494 -15.899   4.002  1.00  0.00     0.010 A 
ENDBRANCH  16  17
ENDBRANCH  12  16
ENDBRANCH   1   9
BRANCH   1  25
HETATM   25  C   UNL     1      43.412  -9.644   8.360  1.00  0.00     0.067 A 
HETATM   26  N   UNL     1      43.120 -10.375   9.476  1.00  0.00    -0.263 NA
HETATM   27  C   UNL     1      44.030 -10.374  10.478  1.00  0.00     0.117 A 
HETATM   28  C   UNL     1      45.245  -9.716  10.410  1.00  0.00     0.019 A 
HETATM   29  C   UNL     1      45.548  -9.013   9.251  1.00  0.00     0.003 A 
HETATM   30  C   UNL     1      44.626  -8.976   8.208  1.00  0.00     0.030 A 
ENDBRANCH   1  25
BRANCH   5  31
HETATM   31  C   UNL     1      39.662  -7.035   7.748  1.00  0.00     0.168 C 
BRANCH  31  32
HETATM   32  C   UNL     1      39.832  -6.328   9.094  1.00  0.00     0.140 C 
HETATM   33  O   UNL     1      41.105  -6.699   9.660  1.00  0.00    -0.384 OA
HETATM   34  C   UNL     1      40.898  -7.150  11.004  1.00  0.00     0.168 C 
HETATM   35  C   UNL     1      39.551  -6.607  11.422  1.00  0.00     0.029 C 
HETATM   36  C   UNL     1      38.776  -6.692  10.131  1.00  0.00     0.036 C 
ENDBRANCH  31  32
ENDBRANCH   5  31
TORSDOF 6
ENDMDL
MODEL 9
REMARK VINA RESULT:      -8.3      3.941      6.899
REMARK  6 active torsions:
REMARK  status: ('A' for Active; 'I' for Inactive)
REMARK    1  A    between atoms: C_6  and  C_7 
REMARK    2  A    between atoms: C_7  and  N_8 
REMARK    3  A    between atoms: C_12  and  C_13 
REMARK    4  A    between atoms: C_13  and  C_14 
REMARK    5  A    between atoms: N_23  and  C_24 
REMARK    6  A    between atoms: C_24  and  C_25 
ROOT
HETATM    1  C   UNL     1      39.295 -12.015   2.158  1.00  0.00     0.149 C 
HETATM    2  N   UNL     1      38.107 -11.927   1.321  1.00  0.00    -0.220 NA
HETATM    3  C   UNL     1      38.441 -11.907  -0.019  1.00  0.00     0.304 C 
HETATM    4  O   UNL     1      37.624 -11.672  -0.892  1.00  0.00    -0.253 OA
HETATM    5  N   UNL     1      39.758 -12.190  -0.158  1.00  0.00    -0.270 N 
HETATM    6  C   UNL     1      40.347 -12.321   1.066  1.00  0.00     0.257 C 
HETATM    7  O   UNL     1      41.511 -12.633   1.277  1.00  0.00    -0.270 OA
HETATM    8  H   UNL     1      37.427 -11.203   1.549  1.00  0.00     0.134 HD
ENDROOT
BRANCH   1   9
HETATM    9  C   UNL     1      39.205 -13.168   3.209  1.00  0.00     0.028 C 
HETATM   10  C   UNL     1      40.220 -13.055   4.368  1.00  0.00     0.035 C 
HETATM   11  C   UNL     1      41.643 -13.488   4.022  1.00  0.00     0.235 C 
HETATM   12  N   UNL     1      41.646 -14.863   3.401  1.00  0.00    -0.067 N 
HETATM   13  H   UNL     1      41.326 -15.514   4.127  1.00  0.00     0.280 HD
HETATM   14  C   UNL     1      40.716 -14.991   2.221  1.00  0.00     0.235 C 
HETATM   15  C   UNL     1      39.306 -14.592   2.627  1.00  0.00     0.035 C 
BRANCH  12  16
HETATM   16  C   UNL     1      43.045 -15.323   3.018  1.00  0.00     0.273 C 
BRANCH  16  17
HETATM   17  C   UNL     1      43.288 -16.796   3.234  1.00  0.00    -0.027 A 
HETATM   18  C   UNL     1      43.778 -17.318   4.450  1.00  0.00    -0.054 A 
HETATM   19  C   UNL     1      44.028 -18.699   4.550  1.00  0.00     0.014 A 
HETATM   20  C   UNL     1      44.037 -16.458   5.659  1.00  0.00     0.049 C 
HETATM   21  C   UNL     1      43.776 -19.567   3.481  1.00  0.00    -0.061 A 
HETATM   22  C   UNL     1      44.066 -21.035   3.600  1.00  0.00     0.048 C 
HETATM   23  C   UNL     1      43.289 -19.043   2.284  1.00  0.00     0.007 A 
HETATM   24  C   UNL     1      43.042 -17.676   2.163  1.00  0.00     0.010 A 
ENDBRANCH  16  17
ENDBRANCH  12  16
ENDBRANCH   1   9
BRANCH   1  25
HETATM   25  C   UNL     1      39.555 -10.655   2.804  1.00  0.00     0.067 A 
HETATM   26  N   UNL     1      38.573 -10.207   3.642  1.00  0.00    -0.263 NA
HETATM   27  C   UNL     1      38.748  -8.995   4.218  1.00  0.00     0.117 A 
HETATM   28  C   UNL     1      39.877  -8.217   4.039  1.00  0.00     0.019 A 
HETATM   29  C   UNL     1      40.889  -8.705   3.220  1.00  0.00     0.003 A 
HETATM   30  C   UNL     1      40.733  -9.939   2.595  1.00  0.00     0.030 A 
ENDBRANCH   1  25
BRANCH   5  31
HETATM   31  C   UNL     1      40.458 -12.242  -1.427  1.00  0.00     0.168 C 
BRANCH  31  32
HETATM   32  C   UNL     1      40.268 -13.557  -2.185  1.00  0.00     0.140 C 
HETATM   33  O   UNL     1      39.472 -13.309  -3.361  1.00  0.00    -0.384 OA
HETATM   34  C   UNL     1      38.386 -14.244  -3.387  1.00  0.00     0.168 C 
HETATM   35  C   UNL     1      38.788 -15.375  -2.470  1.00  0.00     0.029 C 
HETATM   36  C   UNL     1      39.543 -14.638  -1.392  1.00  0.00     0.036 C 
ENDBRANCH  31  32
ENDBRANCH   5  31
TORSDOF 6
ENDMDL
MODEL 10
REMARK VINA RESULT:      -8.2      3.076      8.111
REMARK  6 active torsions:
REMARK  status: ('A' for Active; 'I' for Inactive)
REMARK    1  A    between atoms: C_6  and  C_7 
REMARK    2  A    between atoms: C_7  and  N_8 
REMARK    3  A    between atoms: C_12  and  C_13 
REMARK    4  A    between atoms: C_13  and  C_14 
REMARK    5  A    between atoms: N_23  and  C_24 
REMARK    6  A    between atoms: C_24  and  C_25 
ROOT
HETATM    1  C   UNL     1      42.160  -9.622   7.212  1.00  0.00     0.149 C 
HETATM    2  N   UNL     1      41.030 -10.399   7.700  1.00  0.00    -0.220 NA
HETATM    3  C   UNL     1      39.975  -9.579   8.050  1.00  0.00     0.304 C 
HETATM    4  O   UNL     1      38.990  -9.995   8.634  1.00  0.00    -0.253 OA
HETATM    5  N   UNL     1      40.231  -8.315   7.634  1.00  0.00    -0.270 N 
HETATM    6  C   UNL     1      41.477  -8.241   7.081  1.00  0.00     0.257 C 
HETATM    7  O   UNL     1      41.977  -7.253   6.561  1.00  0.00    -0.270 OA
HETATM    8  H   UNL     1      41.217 -11.097   8.418  1.00  0.00     0.134 HD
ENDROOT
BRANCH   1   9
HETATM    9  C   UNL     1      42.691 -10.133   5.833  1.00  0.00     0.028 C 
HETATM   10  C   UNL     1      41.585 -10.453   4.804  1.00  0.00     0.035 C 
HETATM   11  C   UNL     1      40.871 -11.785   5.018  1.00  0.00     0.235 C 
HETATM   12  N   UNL     1      41.869 -12.911   5.144  1.00  0.00    -0.067 N 
HETATM   13  H   UNL     1      42.338 -12.990   4.234  1.00  0.00     0.280 HD
HETATM   14  C   UNL     1      42.925 -12.663   6.191  1.00  0.00     0.235 C 
HETATM   15  C   UNL     1      43.636 -11.349   5.908  1.00  0.00     0.035 C 
BRANCH  12  16
HETATM   16  C   UNL     1      41.198 -14.256   5.383  1.00  0.00     0.273 C 
BRANCH  16  17
HETATM   17  C   UNL     1      41.726 -15.369   4.514  1.00  0.00    -0.027 A 
HETATM   18  C   UNL     1      41.184 -15.670   3.247  1.00  0.00    -0.054 A 
HETATM   19  C   UNL     1      41.700 -16.760   2.523  1.00  0.00     0.014 A 
HETATM   20  C   UNL     1      40.075 -14.864   2.624  1.00  0.00     0.049 C 
HETATM   21  C   UNL     1      42.756 -17.534   3.020  1.00  0.00    -0.061 A 
HETATM   22  C   UNL     1      43.281 -18.705   2.242  1.00  0.00     0.048 C 
HETATM   23  C   UNL     1      43.288 -17.228   4.273  1.00  0.00     0.007 A 
HETATM   24  C   UNL     1      42.785 -16.156   5.008  1.00  0.00     0.010 A 
ENDBRANCH  16  17
ENDBRANCH  12  16
ENDBRANCH   1   9
BRANCH   1  25
HETATM   25  C   UNL     1      43.250  -9.595   8.283  1.00  0.00     0.067 A 
HETATM   26  N   UNL     1      42.995 -10.346   9.396  1.00  0.00    -0.263 NA
HETATM   27  C   UNL     1      43.921 -10.333  10.383  1.00  0.00     0.117 A 
HETATM   28  C   UNL     1      45.117  -9.643  10.304  1.00  0.00     0.019 A 
HETATM   29  C   UNL     1      45.383  -8.920   9.148  1.00  0.00     0.003 A 
HETATM   30  C   UNL     1      44.444  -8.894   8.121  1.00  0.00     0.030 A 
ENDBRANCH   1  25
BRANCH   5  31
HETATM   31  C   UNL     1      39.346  -7.186   7.845  1.00  0.00     0.168 C 
BRANCH  31  32
HETATM   32  C   UNL     1      38.382  -6.932   6.685  1.00  0.00     0.140 C 
HETATM   33  O   UNL     1      38.076  -8.188   6.047  1.00  0.00    -0.384 OA
HETATM   34  C   UNL     1      38.297  -8.054   4.637  1.00  0.00     0.168 C 
HETATM   35  C   UNL     1      38.286  -6.570   4.353  1.00  0.00     0.029 C 
HETATM   36  C   UNL     1      38.935  -6.017   5.598  1.00  0.00     0.036 C 
ENDBRANCH  31  32
ENDBRANCH   5  31
TORSDOF 6
ENDMDL
