MODEL 1
REMARK VINA RESULT:      -8.5      0.000      0.000
REMARK  4 active torsions:
REMARK  status: ('A' for Active; 'I' for Inactive)
REMARK    1  A    between atoms: C_5  and  N_6 
REMARK       I    between atoms: N_6  and  C_7 
REMARK    2  A    between atoms: C_7  and  C_8 
REMARK    3  A    between atoms: N_10  and  C_11 
REMARK    4  A    between atoms: C_21  and  O_22 
ROOT
HETATM    1  N   UNL     1      41.152 -13.602  -0.167  1.00  0.00    -0.346 N 
HETATM    2  C   UNL     1      40.840 -14.263   0.994  1.00  0.00     0.255 C 
HETATM    3  O   UNL     1      39.775 -14.101   1.580  1.00  0.00    -0.268 OA
HETATM    4  H   UNL     1      41.984 -13.839  -0.688  1.00  0.00     0.163 HD
ENDROOT
BRANCH   2   5
HETATM    5  C   UNL     1      41.837 -15.208   1.461  1.00  0.00     0.068 A 
HETATM    6  C   UNL     1      41.680 -16.484   1.970  1.00  0.00     0.137 A 
HETATM    7  N   UNL     1      42.923 -16.958   2.346  1.00  0.00    -0.243 N 
HETATM    8  N   UNL     1      43.884 -16.051   2.006  1.00  0.00    -0.179 NA
HETATM    9  C   UNL     1      43.226 -15.008   1.505  1.00  0.00     0.157 A 
BRANCH   7  10
HETATM   10  C   UNL     1      43.312 -18.177   2.996  1.00  0.00     0.079 A 
HETATM   11  C   UNL     1      43.808 -18.288   4.306  1.00  0.00     0.062 A 
HETATM   12 CL   UNL     1      44.092 -16.992   5.412  1.00  0.00    -0.082 Cl
HETATM   13  C   UNL     1      44.161 -19.554   4.815  1.00  0.00     0.026 A 
HETATM   14  C   UNL     1      44.036 -20.707   4.045  1.00  0.00     0.002 A 
HETATM   15  C   UNL     1      43.555 -20.611   2.749  1.00  0.00     0.002 A 
HETATM   16  C   UNL     1      43.198 -19.364   2.232  1.00  0.00     0.033 A 
ENDBRANCH   7  10
ENDBRANCH   2   5
BRANCH   1  17
HETATM   17  C   UNL     1      40.178 -12.771  -0.844  1.00  0.00     0.147 C 
HETATM   18  C   UNL     1      40.690 -11.380  -1.093  1.00  0.00    -0.027 A 
HETATM   19  C   UNL     1      40.377 -10.957  -2.390  1.00  0.00    -0.047 A 
HETATM   20  C   UNL     1      41.331 -10.529  -0.204  1.00  0.00     0.010 A 
HETATM   21  C   UNL     1      40.712  -9.685  -2.827  1.00  0.00     0.008 A 
HETATM   22  C   UNL     1      39.616 -12.010  -3.142  1.00  0.00     0.073 C 
HETATM   23  C   UNL     1      41.375  -8.832  -1.943  1.00  0.00     0.001 A 
HETATM   24  C   UNL     1      41.679  -9.250  -0.639  1.00  0.00     0.001 A 
HETATM   25  C   UNL     1      39.876 -13.266  -2.292  1.00  0.00     0.149 C 
BRANCH  25  26
HETATM   26  O   UNL     1      40.997 -13.976  -2.853  1.00  0.00    -0.393 OA
HETATM   27  H   UNL     1      41.794 -13.565  -2.476  1.00  0.00     0.210 HD
ENDBRANCH  25  26
ENDBRANCH   1  17
TORSDOF 4
ENDMDL
MODEL 2
REMARK VINA RESULT:      -8.4      2.197      2.973
REMARK  4 active torsions:
REMARK  status: ('A' for Active; 'I' for Inactive)
REMARK    1  A    between atoms: C_5  and  N_6 
REMARK       I    between atoms: N_6  and  C_7 
REMARK    2  A    between atoms: C_7  and  C_8 
REMARK    3  A    between atoms: N_10  and  C_11 
REMARK    4  A    between atoms: C_21  and  O_22 
ROOT
HETATM    1  N   UNL     1      41.011 -13.770   0.831  1.00  0.00    -0.346 N 
HETATM    2  C   UNL     1      42.003 -13.494   1.738  1.00  0.00     0.255 C 
HETATM    3  O   UNL     1      42.433 -12.359   1.919  1.00  0.00    -0.268 OA
HETATM    4  H   UNL     1      40.597 -14.690   0.784  1.00  0.00     0.163 HD
ENDROOT
BRANCH   2   5
HETATM    5  C   UNL     1      42.480 -14.627   2.507  1.00  0.00     0.068 A 
HETATM    6  C   UNL     1      42.724 -15.929   2.110  1.00  0.00     0.137 A 
HETATM    7  N   UNL     1      43.099 -16.660   3.222  1.00  0.00    -0.243 N 
HETATM    8  N   UNL     1      43.189 -15.835   4.305  1.00  0.00    -0.179 NA
HETATM    9  C   UNL     1      42.796 -14.639   3.875  1.00  0.00     0.157 A 
BRANCH   7  10
HETATM   10  C   UNL     1      43.383 -18.057   3.382  1.00  0.00     0.079 A 
HETATM   11  C   UNL     1      43.800 -18.680   4.571  1.00  0.00     0.062 A 
HETATM   12 CL   UNL     1      44.097 -17.908   6.088  1.00  0.00    -0.082 Cl
HETATM   13  C   UNL     1      44.052 -20.066   4.583  1.00  0.00     0.026 A 
HETATM   14  C   UNL     1      43.904 -20.841   3.436  1.00  0.00     0.002 A 
HETATM   15  C   UNL     1      43.501 -20.239   2.255  1.00  0.00     0.002 A 
HETATM   16  C   UNL     1      43.243 -18.866   2.229  1.00  0.00     0.033 A 
ENDBRANCH   7  10
ENDBRANCH   2   5
BRANCH   1  17
HETATM   17  C   UNL     1      40.316 -12.711   0.130  1.00  0.00     0.147 C 
HETATM   18  C   UNL     1      39.535 -13.223  -1.047  1.00  0.00    -0.027 A 
HETATM   19  C   UNL     1      38.263 -12.641  -1.096  1.00  0.00    -0.047 A 
HETATM   20  C   UNL     1      39.954 -14.096  -2.041  1.00  0.00     0.010 A 
HETATM   21  C   UNL     1      37.382 -12.931  -2.126  1.00  0.00     0.008 A 
HETATM   22  C   UNL     1      38.061 -11.673   0.033  1.00  0.00     0.073 C 
HETATM   23  C   UNL     1      37.792 -13.825  -3.118  1.00  0.00     0.001 A 
HETATM   24  C   UNL     1      39.071 -14.400  -3.078  1.00  0.00     0.001 A 
HETATM   25  C   UNL     1      39.197 -12.057   0.997  1.00  0.00     0.149 C 
BRANCH  25  26
HETATM   26  O   UNL     1      38.678 -12.979   1.975  1.00  0.00    -0.393 OA
HETATM   27  H   UNL     1      39.278 -13.744   1.970  1.00  0.00     0.210 HD
ENDBRANCH  25  26
ENDBRANCH   1  17
TORSDOF 4
ENDMDL
MODEL 3
REMARK VINA RESULT:      -8.3      7.265      8.664
REMARK  4 active torsions:
REMARK  status: ('A' for Active; 'I' for Inactive)
REMARK    1  A    between atoms: C_5  and  N_6 
REMARK       I    between atoms: N_6  and  C_7 
REMARK    2  A    between atoms: C_7  and  C_8 
REMARK    3  A    between atoms: N_10  and  C_11 
REMARK    4  A    between atoms: C_21  and  O_22 
ROOT
HETATM    1  N   UNL     1      43.015 -11.082   7.562  1.00  0.00    -0.346 N 
HETATM    2  C   UNL     1      42.465 -11.187   6.309  1.00  0.00     0.255 C 
HETATM    3  O   UNL     1      42.251 -10.209   5.599  1.00  0.00    -0.268 OA
HETATM    4  H   UNL     1      43.286 -11.908   8.076  1.00  0.00     0.163 HD
ENDROOT
BRANCH   2   5
HETATM    5  C   UNL     1      42.196 -12.538   5.856  1.00  0.00     0.068 A 
HETATM    6  C   UNL     1      43.062 -13.499   5.367  1.00  0.00     0.137 A 
HETATM    7  N   UNL     1      42.320 -14.605   4.997  1.00  0.00    -0.243 N 
HETATM    8  N   UNL     1      41.009 -14.410   5.322  1.00  0.00    -0.179 NA
HETATM    9  C   UNL     1      40.944 -13.172   5.807  1.00  0.00     0.157 A 
BRANCH   7  10
HETATM   10  C   UNL     1      42.706 -15.834   4.367  1.00  0.00     0.079 A 
HETATM   11  C   UNL     1      43.689 -16.724   4.833  1.00  0.00     0.062 A 
HETATM   12 CL   UNL     1      44.672 -16.526   6.240  1.00  0.00    -0.082 Cl
HETATM   13  C   UNL     1      43.974 -17.897   4.105  1.00  0.00     0.026 A 
HETATM   14  C   UNL     1      43.305 -18.197   2.922  1.00  0.00     0.002 A 
HETATM   15  C   UNL     1      42.339 -17.325   2.446  1.00  0.00     0.002 A 
HETATM   16  C   UNL     1      42.043 -16.160   3.159  1.00  0.00     0.033 A 
ENDBRANCH   7  10
ENDBRANCH   2   5
BRANCH   1  17
HETATM   17  C   UNL     1      43.503  -9.815   8.066  1.00  0.00     0.147 C 
HETATM   18  C   UNL     1      43.040  -9.544   9.469  1.00  0.00    -0.027 A 
HETATM   19  C   UNL     1      44.087  -9.048  10.255  1.00  0.00    -0.047 A 
HETATM   20  C   UNL     1      41.760  -9.668   9.990  1.00  0.00     0.010 A 
HETATM   21  C   UNL     1      43.880  -8.683  11.576  1.00  0.00     0.008 A 
HETATM   22  C   UNL     1      45.356  -8.925   9.462  1.00  0.00     0.073 C 
HETATM   23  C   UNL     1      42.598  -8.825  12.110  1.00  0.00     0.001 A 
HETATM   24  C   UNL     1      41.544  -9.311  11.322  1.00  0.00     0.001 A 
HETATM   25  C   UNL     1      45.054  -9.797   8.230  1.00  0.00     0.149 C 
BRANCH  25  26
HETATM   26  O   UNL     1      45.577 -11.119   8.463  1.00  0.00    -0.393 OA
HETATM   27  H   UNL     1      44.883 -11.738   8.180  1.00  0.00     0.210 HD
ENDBRANCH  25  26
ENDBRANCH   1  17
TORSDOF 4
ENDMDL
MODEL 4
REMARK VINA RESULT:      -8.3      6.971      8.809
REMARK  4 active torsions:
REMARK  status: ('A' for Active; 'I' for Inactive)
REMARK    1  A    between atoms: C_5  and  N_6 
REMARK       I    between atoms: N_6  and  C_7 
REMARK    2  A    between atoms: C_7  and  C_8 
REMARK    3  A    between atoms: N_10  and  C_11 
REMARK    4  A    between atoms: C_21  and  O_22 
ROOT
HETATM    1  N   UNL     1      42.432 -12.712   4.883  1.00  0.00    -0.346 N 
HETATM    2  C   UNL     1      43.453 -11.804   5.004  1.00  0.00     0.255 C 
HETATM    3  O   UNL     1      44.003 -11.298   4.031  1.00  0.00    -0.268 OA
HETATM    4  H   UNL     1      41.921 -13.025   5.697  1.00  0.00     0.163 HD
ENDROOT
BRANCH   2   5
HETATM    5  C   UNL     1      43.811 -11.443   6.362  1.00  0.00     0.068 A 
HETATM    6  C   UNL     1      43.071 -10.790   7.331  1.00  0.00     0.137 A 
HETATM    7  N   UNL     1      43.873 -10.611   8.443  1.00  0.00    -0.243 N 
HETATM    8  N   UNL     1      45.080 -11.215   8.242  1.00  0.00    -0.179 NA
HETATM    9  C   UNL     1      45.040 -11.683   6.997  1.00  0.00     0.157 A 
BRANCH   7  10
HETATM   10  C   UNL     1      43.631  -9.931   9.682  1.00  0.00     0.079 A 
HETATM   11  C   UNL     1      43.507  -8.541   9.846  1.00  0.00     0.062 A 
HETATM   12 CL   UNL     1      43.651  -7.342   8.611  1.00  0.00    -0.082 Cl
HETATM   13  C   UNL     1      43.276  -8.005  11.129  1.00  0.00     0.026 A 
HETATM   14  C   UNL     1      43.174  -8.824  12.250  1.00  0.00     0.002 A 
HETATM   15  C   UNL     1      43.301 -10.196  12.105  1.00  0.00     0.002 A 
HETATM   16  C   UNL     1      43.526 -10.742  10.838  1.00  0.00     0.033 A 
ENDBRANCH   7  10
ENDBRANCH   2   5
BRANCH   1  17
HETATM   17  C   UNL     1      41.850 -13.023   3.594  1.00  0.00     0.147 C 
HETATM   18  C   UNL     1      42.068 -14.457   3.201  1.00  0.00    -0.027 A 
HETATM   19  C   UNL     1      40.898 -15.015   2.674  1.00  0.00    -0.047 A 
HETATM   20  C   UNL     1      43.245 -15.191   3.251  1.00  0.00     0.010 A 
HETATM   21  C   UNL     1      40.877 -16.318   2.201  1.00  0.00     0.008 A 
HETATM   22  C   UNL     1      39.778 -14.016   2.647  1.00  0.00     0.073 C 
HETATM   23  C   UNL     1      42.053 -17.067   2.267  1.00  0.00     0.001 A 
HETATM   24  C   UNL     1      43.230 -16.507   2.785  1.00  0.00     0.001 A 
HETATM   25  C   UNL     1      40.294 -12.926   3.604  1.00  0.00     0.149 C 
BRANCH  25  26
HETATM   26  O   UNL     1      39.756 -13.177   4.917  1.00  0.00    -0.393 OA
HETATM   27  H   UNL     1      40.318 -12.682   5.538  1.00  0.00     0.210 HD
ENDBRANCH  25  26
ENDBRANCH   1  17
TORSDOF 4
ENDMDL
MODEL 5
REMARK VINA RESULT:      -8.2      2.517      8.579
REMARK  4 active torsions:
REMARK  status: ('A' for Active; 'I' for Inactive)
REMARK    1  A    between atoms: C_5  and  N_6 
REMARK       I    between atoms: N_6  and  C_7 
REMARK    2  A    between atoms: C_7  and  C_8 
REMARK    3  A    between atoms: N_10  and  C_11 
REMARK    4  A    between atoms: C_21  and  O_22 
ROOT
HETATM    1  N   UNL     1      41.181 -15.033   2.211  1.00  0.00    -0.346 N 
HETATM    2  C   UNL     1      40.323 -15.292   1.172  1.00  0.00     0.255 C 
HETATM    3  O   UNL     1      39.590 -16.275   1.151  1.00  0.00    -0.268 OA
HETATM    4  H   UNL     1      41.687 -14.160   2.257  1.00  0.00     0.163 HD
ENDROOT
BRANCH   2   5
HETATM    5  C   UNL     1      40.303 -14.298   0.116  1.00  0.00     0.068 A 
HETATM    6  C   UNL     1      40.962 -13.085   0.026  1.00  0.00     0.137 A 
HETATM    7  N   UNL     1      40.566 -12.461  -1.142  1.00  0.00    -0.243 N 
HETATM    8  N   UNL     1      39.739 -13.286  -1.848  1.00  0.00    -0.179 NA
HETATM    9  C   UNL     1      39.571 -14.361  -1.081  1.00  0.00     0.157 A 
BRANCH   7  10
HETATM   10  C   UNL     1      40.879 -11.166  -1.674  1.00  0.00     0.079 A 
HETATM   11  C   UNL     1      41.366 -10.071  -0.940  1.00  0.00     0.062 A 
HETATM   12 CL   UNL     1      41.663 -10.024   0.761  1.00  0.00    -0.082 Cl
HETATM   13  C   UNL     1      41.623  -8.849  -1.593  1.00  0.00     0.026 A 
HETATM   14  C   UNL     1      41.400  -8.695  -2.958  1.00  0.00     0.002 A 
HETATM   15  C   UNL     1      40.913  -9.763  -3.694  1.00  0.00     0.002 A 
HETATM   16  C   UNL     1      40.656 -10.982  -3.061  1.00  0.00     0.033 A 
ENDBRANCH   7  10
ENDBRANCH   2   5
BRANCH   1  17
HETATM   17  C   UNL     1      41.170 -15.839   3.414  1.00  0.00     0.147 C 
HETATM   18  C   UNL     1      42.290 -16.841   3.438  1.00  0.00    -0.027 A 
HETATM   19  C   UNL     1      42.903 -16.876   4.695  1.00  0.00    -0.047 A 
HETATM   20  C   UNL     1      42.689 -17.706   2.429  1.00  0.00     0.010 A 
HETATM   21  C   UNL     1      43.935 -17.762   4.964  1.00  0.00     0.008 A 
HETATM   22  C   UNL     1      42.256 -15.913   5.647  1.00  0.00     0.073 C 
HETATM   23  C   UNL     1      44.354 -18.621   3.946  1.00  0.00     0.001 A 
HETATM   24  C   UNL     1      43.733 -18.596   2.688  1.00  0.00     0.001 A 
HETATM   25  C   UNL     1      41.463 -15.000   4.696  1.00  0.00     0.149 C 
BRANCH  25  26
HETATM   26  O   UNL     1      42.263 -13.840   4.398  1.00  0.00    -0.393 OA
HETATM   27  H   UNL     1      42.056 -13.598   3.479  1.00  0.00     0.210 HD
ENDBRANCH  25  26
ENDBRANCH   1  17
TORSDOF 4
ENDMDL
MODEL 6
REMARK VINA RESULT:      -8.2      9.350     11.233
REMARK  4 active torsions:
REMARK  status: ('A' for Active; 'I' for Inactive)
REMARK    1  A    between atoms: C_5  and  N_6 
REMARK       I    between atoms: N_6  and  C_7 
REMARK    2  A    between atoms: C_7  and  C_8 
REMARK    3  A    between atoms: N_10  and  C_11 
REMARK    4  A    between atoms: C_21  and  O_22 
ROOT
HETATM    1  N   UNL     1      43.289 -11.924   7.579  1.00  0.00    -0.346 N 
HETATM    2  C   UNL     1      44.143 -11.169   8.343  1.00  0.00     0.255 C 
HETATM    3  O   UNL     1      45.361 -11.213   8.207  1.00  0.00    -0.268 OA
HETATM    4  H   UNL     1      42.290 -11.784   7.633  1.00  0.00     0.163 HD
ENDROOT
BRANCH   2   5
HETATM    5  C   UNL     1      43.509 -10.276   9.293  1.00  0.00     0.068 A 
HETATM    6  C   UNL     1      43.702 -10.150  10.657  1.00  0.00     0.137 A 
HETATM    7  N   UNL     1      42.809  -9.210  11.137  1.00  0.00    -0.243 N 
HETATM    8  N   UNL     1      42.111  -8.665  10.098  1.00  0.00    -0.179 NA
HETATM    9  C   UNL     1      42.517  -9.322   9.014  1.00  0.00     0.157 A 
BRANCH   7  10
HETATM   10  C   UNL     1      42.534  -8.763  12.472  1.00  0.00     0.079 A 
HETATM   11  C   UNL     1      41.504  -9.236  13.302  1.00  0.00     0.062 A 
HETATM   12 CL   UNL     1      40.321 -10.427  12.896  1.00  0.00    -0.082 Cl
HETATM   13  C   UNL     1      41.344  -8.699  14.595  1.00  0.00     0.026 A 
HETATM   14  C   UNL     1      42.185  -7.697  15.074  1.00  0.00     0.002 A 
HETATM   15  C   UNL     1      43.200  -7.216  14.264  1.00  0.00     0.002 A 
HETATM   16  C   UNL     1      43.373  -7.742  12.981  1.00  0.00     0.033 A 
ENDBRANCH   7  10
ENDBRANCH   2   5
BRANCH   1  17
HETATM   17  C   UNL     1      43.773 -12.718   6.470  1.00  0.00     0.147 C 
HETATM   18  C   UNL     1      43.164 -14.091   6.443  1.00  0.00    -0.027 A 
HETATM   19  C   UNL     1      42.780 -14.443   5.144  1.00  0.00    -0.047 A 
HETATM   20  C   UNL     1      43.022 -14.989   7.492  1.00  0.00     0.010 A 
HETATM   21  C   UNL     1      42.234 -15.688   4.871  1.00  0.00     0.008 A 
HETATM   22  C   UNL     1      43.099 -13.352   4.164  1.00  0.00     0.073 C 
HETATM   23  C   UNL     1      42.071 -16.587   5.927  1.00  0.00     0.001 A 
HETATM   24  C   UNL     1      42.466 -16.241   7.228  1.00  0.00     0.001 A 
HETATM   25  C   UNL     1      43.333 -12.144   5.089  1.00  0.00     0.149 C 
BRANCH  25  26
HETATM   26  O   UNL     1      42.103 -11.400   5.193  1.00  0.00    -0.393 OA
HETATM   27  H   UNL     1      42.217 -10.792   5.943  1.00  0.00     0.210 HD
ENDBRANCH  25  26
ENDBRANCH   1  17
TORSDOF 4
ENDMDL
MODEL 7
REMARK VINA RESULT:      -8.2      5.748      9.379
REMARK  4 active torsions:
REMARK  status: ('A' for Active; 'I' for Inactive)
REMARK    1  A    between atoms: C_5  and  N_6 
REMARK       I    between atoms: N_6  and  C_7 
REMARK    2  A    between atoms: C_7  and  C_8 
REMARK    3  A    between atoms: N_10  and  C_11 
REMARK    4  A    between atoms: C_21  and  O_22 
ROOT
HETATM    1  N   UNL     1      42.792 -15.127   5.771  1.00  0.00    -0.346 N 
HETATM    2  C   UNL     1      41.862 -14.181   5.417  1.00  0.00     0.255 C 
HETATM    3  O   UNL     1      40.757 -14.476   4.975  1.00  0.00    -0.268 OA
HETATM    4  H   UNL     1      43.647 -14.860   6.237  1.00  0.00     0.163 HD
ENDROOT
BRANCH   2   5
HETATM    5  C   UNL     1      42.255 -12.804   5.645  1.00  0.00     0.068 A 
HETATM    6  C   UNL     1      42.945 -12.241   6.703  1.00  0.00     0.137 A 
HETATM    7  N   UNL     1      43.013 -10.875   6.500  1.00  0.00    -0.243 N 
HETATM    8  N   UNL     1      42.461 -10.560   5.292  1.00  0.00    -0.179 NA
HETATM    9  C   UNL     1      41.994 -11.708   4.806  1.00  0.00     0.157 A 
BRANCH   7  10
HETATM   10  C   UNL     1      43.540  -9.823   7.321  1.00  0.00     0.079 A 
HETATM   11  C   UNL     1      44.860  -9.733   7.795  1.00  0.00     0.062 A 
HETATM   12 CL   UNL     1      46.129 -10.874   7.528  1.00  0.00    -0.082 Cl
HETATM   13  C   UNL     1      45.241  -8.643   8.603  1.00  0.00     0.026 A 
HETATM   14  C   UNL     1      44.333  -7.648   8.954  1.00  0.00     0.002 A 
HETATM   15  C   UNL     1      43.026  -7.728   8.501  1.00  0.00     0.002 A 
HETATM   16  C   UNL     1      42.635  -8.800   7.695  1.00  0.00     0.033 A 
ENDBRANCH   7  10
ENDBRANCH   2   5
BRANCH   1  17
HETATM   17  C   UNL     1      42.467 -16.537   5.770  1.00  0.00     0.147 C 
HETATM   18  C   UNL     1      42.961 -17.236   4.535  1.00  0.00    -0.027 A 
HETATM   19  C   UNL     1      43.557 -18.460   4.856  1.00  0.00    -0.047 A 
HETATM   20  C   UNL     1      42.828 -16.837   3.212  1.00  0.00     0.010 A 
HETATM   21  C   UNL     1      44.045 -19.300   3.867  1.00  0.00     0.008 A 
HETATM   22  C   UNL     1      43.517 -18.717   6.334  1.00  0.00     0.073 C 
HETATM   23  C   UNL     1      43.931 -18.894   2.536  1.00  0.00     0.001 A 
HETATM   24  C   UNL     1      43.324 -17.672   2.210  1.00  0.00     0.001 A 
HETATM   25  C   UNL     1      43.207 -17.319   6.898  1.00  0.00     0.149 C 
BRANCH  25  26
HETATM   26  O   UNL     1      44.449 -16.683   7.256  1.00  0.00    -0.393 OA
HETATM   27  H   UNL     1      44.478 -15.848   6.759  1.00  0.00     0.210 HD
ENDBRANCH  25  26
ENDBRANCH   1  17
TORSDOF 4
ENDMDL
MODEL 8
REMARK VINA RESULT:      -8.1      7.952      9.353
REMARK  4 active torsions:
REMARK  status: ('A' for Active; 'I' for Inactive)
REMARK    1  A    between atoms: C_5  and  N_6 
REMARK       I    between atoms: N_6  and  C_7 
REMARK    2  A    between atoms: C_7  and  C_8 
REMARK    3  A    between atoms: N_10  and  C_11 
REMARK    4  A    between atoms: C_21  and  O_22 
ROOT
HETATM    1  N   UNL     1      43.516 -10.458   8.756  1.00  0.00    -0.346 N 
HETATM    2  C   UNL     1      44.329 -11.046   7.820  1.00  0.00     0.255 C 
HETATM    3  O   UNL     1      45.513 -10.751   7.697  1.00  0.00    -0.268 OA
HETATM    4  H   UNL     1      42.579 -10.800   8.912  1.00  0.00     0.163 HD
ENDROOT
BRANCH   2   5
HETATM    5  C   UNL     1      43.708 -12.078   7.012  1.00  0.00     0.068 A 
HETATM    6  C   UNL     1      44.150 -13.352   6.706  1.00  0.00     0.137 A 
HETATM    7  N   UNL     1      43.241 -13.931   5.840  1.00  0.00    -0.243 N 
HETATM    8  N   UNL     1      42.181 -13.092   5.656  1.00  0.00    -0.179 NA
HETATM    9  C   UNL     1      42.481 -11.987   6.336  1.00  0.00     0.157 A 
BRANCH   7  10
HETATM   10  C   UNL     1      43.258 -15.194   5.160  1.00  0.00     0.079 A 
HETATM   11  C   UNL     1      43.536 -16.440   5.746  1.00  0.00     0.062 A 
HETATM   12 CL   UNL     1      43.952 -16.731   7.397  1.00  0.00    -0.082 Cl
HETATM   13  C   UNL     1      43.525 -17.605   4.952  1.00  0.00     0.026 A 
HETATM   14  C   UNL     1      43.250 -17.551   3.588  1.00  0.00     0.002 A 
HETATM   15  C   UNL     1      42.981 -16.328   2.995  1.00  0.00     0.002 A 
HETATM   16  C   UNL     1      42.985 -15.166   3.770  1.00  0.00     0.033 A 
ENDBRANCH   7  10
ENDBRANCH   2   5
BRANCH   1  17
HETATM   17  C   UNL     1      44.048  -9.549   9.749  1.00  0.00     0.147 C 
HETATM   18  C   UNL     1      43.365  -8.210   9.720  1.00  0.00    -0.027 A 
HETATM   19  C   UNL     1      43.074  -7.769  11.016  1.00  0.00    -0.047 A 
HETATM   20  C   UNL     1      43.083  -7.414   8.619  1.00  0.00     0.010 A 
HETATM   21  C   UNL     1      42.483  -6.534  11.235  1.00  0.00     0.008 A 
HETATM   22  C   UNL     1      43.538  -8.754  12.048  1.00  0.00     0.073 C 
HETATM   23  C   UNL     1      42.180  -5.738  10.129  1.00  0.00     0.001 A 
HETATM   24  C   UNL     1      42.481  -6.173   8.830  1.00  0.00     0.001 A 
HETATM   25  C   UNL     1      43.760 -10.024  11.206  1.00  0.00     0.149 C 
BRANCH  25  26
HETATM   26  O   UNL     1      42.571 -10.834  11.274  1.00  0.00    -0.393 OA
HETATM   27  H   UNL     1      42.658 -11.375  12.078  1.00  0.00     0.210 HD
ENDBRANCH  25  26
ENDBRANCH   1  17
TORSDOF 4
ENDMDL
MODEL 9
REMARK VINA RESULT:      -8.1      8.447     10.874
REMARK  4 active torsions:
REMARK  status: ('A' for Active; 'I' for Inactive)
REMARK    1  A    between atoms: C_5  and  N_6 
REMARK       I    between atoms: N_6  and  C_7 
REMARK    2  A    between atoms: C_7  and  C_8 
REMARK    3  A    between atoms: N_10  and  C_11 
REMARK    4  A    between atoms: C_21  and  O_22 
ROOT
HETATM    1  N   UNL     1      43.106 -12.427   7.005  1.00  0.00    -0.346 N 
HETATM    2  C   UNL     1      44.209 -11.612   7.032  1.00  0.00     0.255 C 
HETATM    3  O   UNL     1      45.033 -11.587   6.123  1.00  0.00    -0.268 OA
HETATM    4  H   UNL     1      42.387 -12.344   7.709  1.00  0.00     0.163 HD
ENDROOT
BRANCH   2   5
HETATM    5  C   UNL     1      44.316 -10.742   8.187  1.00  0.00     0.068 A 
HETATM    6  C   UNL     1      43.335 -10.035   8.859  1.00  0.00     0.137 A 
HETATM    7  N   UNL     1      43.940  -9.289   9.854  1.00  0.00    -0.243 N 
HETATM    8  N   UNL     1      45.275  -9.572   9.893  1.00  0.00    -0.179 NA
HETATM    9  C   UNL     1      45.489 -10.415   8.885  1.00  0.00     0.157 A 
BRANCH   7  10
HETATM   10  C   UNL     1      43.402  -8.333  10.777  1.00  0.00     0.079 A 
HETATM   11  C   UNL     1      42.797  -7.111  10.436  1.00  0.00     0.062 A 
HETATM   12 CL   UNL     1      42.596  -6.471   8.844  1.00  0.00    -0.082 Cl
HETATM   13  C   UNL     1      42.317  -6.260  11.452  1.00  0.00     0.026 A 
HETATM   14  C   UNL     1      42.434  -6.599  12.798  1.00  0.00     0.002 A 
HETATM   15  C   UNL     1      43.035  -7.797  13.149  1.00  0.00     0.002 A 
HETATM   16  C   UNL     1      43.512  -8.652  12.152  1.00  0.00     0.033 A 
ENDBRANCH   7  10
ENDBRANCH   2   5
BRANCH   1  17
HETATM   17  C   UNL     1      42.778 -13.210   5.832  1.00  0.00     0.147 C 
HETATM   18  C   UNL     1      43.053 -14.674   6.028  1.00  0.00    -0.027 A 
HETATM   19  C   UNL     1      42.000 -15.452   5.535  1.00  0.00    -0.047 A 
HETATM   20  C   UNL     1      44.193 -15.270   6.550  1.00  0.00     0.010 A 
HETATM   21  C   UNL     1      42.058 -16.837   5.568  1.00  0.00     0.008 A 
HETATM   22  C   UNL     1      40.915 -14.597   4.948  1.00  0.00     0.073 C 
HETATM   23  C   UNL     1      43.193 -17.441   6.110  1.00  0.00     0.001 A 
HETATM   24  C   UNL     1      44.255 -16.663   6.595  1.00  0.00     0.001 A 
HETATM   25  C   UNL     1      41.248 -13.210   5.525  1.00  0.00     0.149 C 
BRANCH  25  26
HETATM   26  O   UNL     1      40.469 -13.009   6.720  1.00  0.00    -0.393 OA
HETATM   27  H   UNL     1      40.721 -12.136   7.064  1.00  0.00     0.210 HD
ENDBRANCH  25  26
ENDBRANCH   1  17
TORSDOF 4
ENDMDL
MODEL 10
REMARK VINA RESULT:      -7.6      1.425      1.937
REMARK  4 active torsions:
REMARK  status: ('A' for Active; 'I' for Inactive)
REMARK    1  A    between atoms: C_5  and  N_6 
REMARK       I    between atoms: N_6  and  C_7 
REMARK    2  A    between atoms: C_7  and  C_8 
REMARK    3  A    between atoms: N_10  and  C_11 
REMARK    4  A    between atoms: C_21  and  O_22 
ROOT
HETATM    1  N   UNL     1      40.702 -12.748  -0.758  1.00  0.00    -0.346 N 
HETATM    2  C   UNL     1      40.030 -13.069   0.395  1.00  0.00     0.255 C 
HETATM    3  O   UNL     1      39.100 -12.396   0.824  1.00  0.00    -0.268 OA
HETATM    4  H   UNL     1      41.386 -13.380  -1.149  1.00  0.00     0.163 HD
ENDROOT
BRANCH   2   5
HETATM    5  C   UNL     1      40.462 -14.289   1.050  1.00  0.00     0.068 A 
HETATM    6  C   UNL     1      41.566 -14.524   1.850  1.00  0.00     0.137 A 
HETATM    7  N   UNL     1      41.586 -15.866   2.179  1.00  0.00    -0.243 N 
HETATM    8  N   UNL     1      40.471 -16.479   1.685  1.00  0.00    -0.179 NA
HETATM    9  C   UNL     1      39.826 -15.539   0.997  1.00  0.00     0.157 A 
BRANCH   7  10
HETATM   10  C   UNL     1      42.543 -16.645   2.911  1.00  0.00     0.079 A 
HETATM   11  C   UNL     1      43.122 -16.292   4.142  1.00  0.00     0.062 A 
HETATM   12 CL   UNL     1      42.841 -14.838   5.031  1.00  0.00    -0.082 Cl
HETATM   13  C   UNL     1      44.059 -17.153   4.747  1.00  0.00     0.026 A 
HETATM   14  C   UNL     1      44.436 -18.352   4.148  1.00  0.00     0.002 A 
HETATM   15  C   UNL     1      43.880 -18.709   2.931  1.00  0.00     0.002 A 
HETATM   16  C   UNL     1      42.946 -17.868   2.321  1.00  0.00     0.033 A 
ENDBRANCH   7  10
ENDBRANCH   2   5
BRANCH   1  17
HETATM   17  C   UNL     1      40.259 -11.665  -1.610  1.00  0.00     0.147 C 
HETATM   18  C   UNL     1      41.023 -10.395  -1.362  1.00  0.00    -0.027 A 
HETATM   19  C   UNL     1      41.381  -9.782  -2.568  1.00  0.00    -0.047 A 
HETATM   20  C   UNL     1      41.321  -9.796  -0.146  1.00  0.00     0.010 A 
HETATM   21  C   UNL     1      42.054  -8.570  -2.583  1.00  0.00     0.008 A 
HETATM   22  C   UNL     1      40.887 -10.566  -3.748  1.00  0.00     0.073 C 
HETATM   23  C   UNL     1      42.373  -7.973  -1.362  1.00  0.00     0.001 A 
HETATM   24  C   UNL     1      42.006  -8.580  -0.151  1.00  0.00     0.001 A 
HETATM   25  C   UNL     1      40.560 -11.931  -3.117  1.00  0.00     0.149 C 
BRANCH  25  26
HETATM   26  O   UNL     1      41.698 -12.799  -3.284  1.00  0.00    -0.393 OA
HETATM   27  H   UNL     1      41.401 -13.688  -3.024  1.00  0.00     0.210 HD
ENDBRANCH  25  26
ENDBRANCH   1  17
TORSDOF 4
ENDMDL
