MODEL 1
REMARK VINA RESULT:      -9.2      0.000      0.000
REMARK  3 active torsions:
REMARK  status: ('A' for Active; 'I' for Inactive)
REMARK    1  A    between atoms: C_5  and  C_6 
REMARK    2  A    between atoms: C_10  and  C_11 
REMARK       I    between atoms: C_11  and  N_12 
REMARK    3  A    between atoms: N_12  and  N_13 
ROOT
HETATM    1  C   UNL     1      44.428 -11.456   6.564  1.00  0.00     0.289 C 
HETATM    2  N   UNL     1      43.371 -12.302   6.268  1.00  0.00    -0.241 N 
HETATM    3  O   UNL     1      45.315 -11.158   5.767  1.00  0.00    -0.264 OA
HETATM    4  H   UNL     1      42.671 -12.523   6.974  1.00  0.00     0.192 HD
ENDROOT
BRANCH   1   5
HETATM    5  C   UNL     1      44.432 -10.939   7.908  1.00  0.00     0.121 A 
HETATM    6  N   UNL     1      45.604 -10.754   8.588  1.00  0.00    -0.272 N 
HETATM    7  N   UNL     1      45.451 -10.295   9.836  1.00  0.00    -0.174 NA
HETATM    8  H   UNL     1      46.539 -10.940   8.240  1.00  0.00     0.189 HD
HETATM    9  C   UNL     1      44.124 -10.146   9.985  1.00  0.00     0.089 A 
HETATM   10  C   UNL     1      43.449 -10.541   8.794  1.00  0.00     0.071 A 
BRANCH   9  11
HETATM   11  C   UNL     1      43.545  -9.652  11.239  1.00  0.00    -0.006 A 
HETATM   12  C   UNL     1      43.722  -8.324  11.650  1.00  0.00     0.014 A 
HETATM   13  C   UNL     1      43.160  -7.865  12.847  1.00  0.00     0.007 A 
HETATM   14  C   UNL     1      42.416  -8.727  13.659  1.00  0.00    -0.062 A 
HETATM   15  C   UNL     1      41.785  -8.236  14.928  1.00  0.00     0.048 C 
HETATM   16  C   UNL     1      42.227 -10.050  13.249  1.00  0.00     0.007 A 
HETATM   17  C   UNL     1      42.792 -10.508  12.055  1.00  0.00     0.014 A 
ENDBRANCH   9  11
ENDBRANCH   1   5
BRANCH   2  18
HETATM   18  N   UNL     1      43.275 -12.887   5.035  1.00  0.00    -0.165 NA
HETATM   19  C   UNL     1      43.213 -14.179   5.010  1.00  0.00     0.157 A 
HETATM   20  C   UNL     1      43.228 -15.158   6.189  1.00  0.00     0.277 A 
HETATM   21  C   UNL     1      43.117 -15.002   3.811  1.00  0.00     0.027 A 
HETATM   22  O   UNL     1      43.301 -14.829   7.355  1.00  0.00    -0.266 OA
HETATM   23  N   UNL     1      43.146 -16.413   5.631  1.00  0.00    -0.321 N 
HETATM   24  C   UNL     1      43.083 -16.328   4.241  1.00  0.00     0.048 A 
HETATM   25  H   UNL     1      43.138 -17.265   6.171  1.00  0.00     0.169 HD
HETATM   26  C   UNL     1      42.997 -17.368   3.340  1.00  0.00     0.030 A 
HETATM   27  C   UNL     1      42.948 -17.037   1.980  1.00  0.00     0.002 A 
HETATM   28  C   UNL     1      42.984 -15.692   1.553  1.00  0.00     0.001 A 
HETATM   29  C   UNL     1      43.070 -14.651   2.479  1.00  0.00     0.016 A 
ENDBRANCH   2  18
TORSDOF 3
ENDMDL
MODEL 2
REMARK VINA RESULT:      -9.0      2.363      9.575
REMARK  3 active torsions:
REMARK  status: ('A' for Active; 'I' for Inactive)
REMARK    1  A    between atoms: C_5  and  C_6 
REMARK    2  A    between atoms: C_10  and  C_11 
REMARK       I    between atoms: C_11  and  N_12 
REMARK    3  A    between atoms: N_12  and  N_13 
ROOT
HETATM    1  C   UNL     1      42.095 -12.329   5.968  1.00  0.00     0.289 C 
HETATM    2  N   UNL     1      43.074 -11.375   6.191  1.00  0.00    -0.241 N 
HETATM    3  O   UNL     1      40.888 -12.102   6.014  1.00  0.00    -0.264 OA
HETATM    4  H   UNL     1      44.061 -11.625   6.152  1.00  0.00     0.192 HD
ENDROOT
BRANCH   1   5
HETATM    5  C   UNL     1      42.592 -13.651   5.680  1.00  0.00     0.121 A 
HETATM    6  N   UNL     1      43.484 -14.264   6.515  1.00  0.00    -0.272 N 
HETATM    7  N   UNL     1      43.879 -15.476   6.105  1.00  0.00    -0.174 NA
HETATM    8  H   UNL     1      43.864 -13.885   7.377  1.00  0.00     0.189 HD
HETATM    9  C   UNL     1      43.203 -15.687   4.964  1.00  0.00     0.089 A 
HETATM   10  C   UNL     1      42.383 -14.562   4.663  1.00  0.00     0.071 A 
BRANCH   9  11
HETATM   11  C   UNL     1      43.363 -16.928   4.197  1.00  0.00    -0.006 A 
HETATM   12  C   UNL     1      44.182 -17.968   4.657  1.00  0.00     0.014 A 
HETATM   13  C   UNL     1      44.322 -19.148   3.918  1.00  0.00     0.007 A 
HETATM   14  C   UNL     1      43.653 -19.308   2.701  1.00  0.00    -0.062 A 
HETATM   15  C   UNL     1      43.774 -20.580   1.916  1.00  0.00     0.048 C 
HETATM   16  C   UNL     1      42.826 -18.278   2.241  1.00  0.00     0.007 A 
HETATM   17  C   UNL     1      42.690 -17.098   2.980  1.00  0.00     0.014 A 
ENDBRANCH   9  11
ENDBRANCH   1   5
BRANCH   2  18
HETATM   18  N   UNL     1      42.730 -10.090   6.510  1.00  0.00    -0.165 NA
HETATM   19  C   UNL     1      43.068  -9.675   7.688  1.00  0.00     0.157 A 
HETATM   20  C   UNL     1      43.814 -10.434   8.789  1.00  0.00     0.277 A 
HETATM   21  C   UNL     1      42.793  -8.351   8.233  1.00  0.00     0.027 A 
HETATM   22  O   UNL     1      44.207 -11.578   8.691  1.00  0.00    -0.266 OA
HETATM   23  N   UNL     1      43.918  -9.554   9.842  1.00  0.00    -0.321 N 
HETATM   24  C   UNL     1      43.322  -8.336   9.523  1.00  0.00     0.048 A 
HETATM   25  H   UNL     1      44.366  -9.781  10.718  1.00  0.00     0.169 HD
HETATM   26  C   UNL     1      43.223  -7.216  10.322  1.00  0.00     0.030 A 
HETATM   27  C   UNL     1      42.572  -6.098   9.783  1.00  0.00     0.002 A 
HETATM   28  C   UNL     1      42.039  -6.123   8.476  1.00  0.00     0.001 A 
HETATM   29  C   UNL     1      42.147  -7.265   7.681  1.00  0.00     0.016 A 
ENDBRANCH   2  18
TORSDOF 3
ENDMDL
MODEL 3
REMARK VINA RESULT:      -8.9      2.069      9.525
REMARK  3 active torsions:
REMARK  status: ('A' for Active; 'I' for Inactive)
REMARK    1  A    between atoms: C_5  and  C_6 
REMARK    2  A    between atoms: C_10  and  C_11 
REMARK       I    between atoms: C_11  and  N_12 
REMARK    3  A    between atoms: N_12  and  N_13 
ROOT
HETATM    1  C   UNL     1      42.075 -10.216   6.069  1.00  0.00     0.289 C 
HETATM    2  N   UNL     1      42.364 -10.410   7.410  1.00  0.00    -0.241 N 
HETATM    3  O   UNL     1      41.523  -9.214   5.621  1.00  0.00    -0.264 OA
HETATM    4  H   UNL     1      42.812 -11.269   7.726  1.00  0.00     0.192 HD
ENDROOT
BRANCH   1   5
HETATM    5  C   UNL     1      42.462 -11.302   5.203  1.00  0.00     0.121 A 
HETATM    6  N   UNL     1      43.193 -11.072   4.071  1.00  0.00    -0.272 N 
HETATM    7  N   UNL     1      43.454 -12.170   3.351  1.00  0.00    -0.174 NA
HETATM    8  H   UNL     1      43.529 -10.172   3.741  1.00  0.00     0.189 HD
HETATM    9  C   UNL     1      42.894 -13.174   4.045  1.00  0.00     0.089 A 
HETATM   10  C   UNL     1      42.260 -12.668   5.217  1.00  0.00     0.071 A 
BRANCH   9  11
HETATM   11  C   UNL     1      42.965 -14.562   3.576  1.00  0.00    -0.006 A 
HETATM   12  C   UNL     1      43.164 -14.865   2.223  1.00  0.00     0.014 A 
HETATM   13  C   UNL     1      43.234 -16.194   1.790  1.00  0.00     0.007 A 
HETATM   14  C   UNL     1      43.099 -17.246   2.701  1.00  0.00    -0.062 A 
HETATM   15  C   UNL     1      43.201 -18.673   2.250  1.00  0.00     0.048 C 
HETATM   16  C   UNL     1      42.910 -16.951   4.054  1.00  0.00     0.007 A 
HETATM   17  C   UNL     1      42.837 -15.623   4.485  1.00  0.00     0.014 A 
ENDBRANCH   9  11
ENDBRANCH   1   5
BRANCH   2  18
HETATM   18  N   UNL     1      42.013  -9.468   8.338  1.00  0.00    -0.165 NA
HETATM   19  C   UNL     1      42.691  -9.460   9.440  1.00  0.00     0.157 A 
HETATM   20  C   UNL     1      43.852 -10.370   9.853  1.00  0.00     0.277 A 
HETATM   21  C   UNL     1      42.479  -8.552  10.561  1.00  0.00     0.027 A 
HETATM   22  O   UNL     1      44.309 -11.257   9.163  1.00  0.00    -0.266 OA
HETATM   23  N   UNL     1      44.217  -9.957  11.114  1.00  0.00    -0.321 N 
HETATM   24  C   UNL     1      43.417  -8.896  11.533  1.00  0.00     0.048 A 
HETATM   25  H   UNL     1      44.963 -10.380  11.646  1.00  0.00     0.169 HD
HETATM   26  C   UNL     1      43.480  -8.222  12.735  1.00  0.00     0.030 A 
HETATM   27  C   UNL     1      42.563  -7.181  12.936  1.00  0.00     0.002 A 
HETATM   28  C   UNL     1      41.616  -6.840  11.946  1.00  0.00     0.001 A 
HETATM   29  C   UNL     1      41.566  -7.533  10.735  1.00  0.00     0.016 A 
ENDBRANCH   2  18
TORSDOF 3
ENDMDL
MODEL 4
REMARK VINA RESULT:      -8.8      7.922     10.422
REMARK  3 active torsions:
REMARK  status: ('A' for Active; 'I' for Inactive)
REMARK    1  A    between atoms: C_5  and  C_6 
REMARK    2  A    between atoms: C_10  and  C_11 
REMARK       I    between atoms: C_11  and  N_12 
REMARK    3  A    between atoms: N_12  and  N_13 
ROOT
HETATM    1  C   UNL     1      40.273 -13.669   1.424  1.00  0.00     0.289 C 
HETATM    2  N   UNL     1      40.416 -13.114   0.163  1.00  0.00    -0.241 N 
HETATM    3  O   UNL     1      39.402 -13.343   2.227  1.00  0.00    -0.264 OA
HETATM    4  H   UNL     1      41.167 -13.415  -0.455  1.00  0.00     0.192 HD
ENDROOT
BRANCH   1   5
HETATM    5  C   UNL     1      41.247 -14.679   1.754  1.00  0.00     0.121 A 
HETATM    6  N   UNL     1      42.450 -14.734   1.107  1.00  0.00    -0.272 N 
HETATM    7  N   UNL     1      43.241 -15.741   1.499  1.00  0.00    -0.174 NA
HETATM    8  H   UNL     1      42.772 -14.107   0.377  1.00  0.00     0.189 HD
HETATM    9  C   UNL     1      42.545 -16.367   2.462  1.00  0.00     0.089 A 
HETATM   10  C   UNL     1      41.285 -15.728   2.652  1.00  0.00     0.071 A 
BRANCH   9  11
HETATM   11  C   UNL     1      43.083 -17.542   3.156  1.00  0.00    -0.006 A 
HETATM   12  C   UNL     1      43.428 -17.493   4.513  1.00  0.00     0.014 A 
HETATM   13  C   UNL     1      43.936 -18.623   5.163  1.00  0.00     0.007 A 
HETATM   14  C   UNL     1      44.116 -19.823   4.467  1.00  0.00    -0.062 A 
HETATM   15  C   UNL     1      44.633 -21.047   5.162  1.00  0.00     0.048 C 
HETATM   16  C   UNL     1      43.765 -19.881   3.115  1.00  0.00     0.007 A 
HETATM   17  C   UNL     1      43.260 -18.750   2.466  1.00  0.00     0.014 A 
ENDBRANCH   9  11
ENDBRANCH   1   5
BRANCH   2  18
HETATM   18  N   UNL     1      39.575 -12.119  -0.255  1.00  0.00    -0.165 NA
HETATM   19  C   UNL     1      38.693 -12.441  -1.146  1.00  0.00     0.157 A 
HETATM   20  C   UNL     1      38.455 -13.805  -1.802  1.00  0.00     0.277 A 
HETATM   21  C   UNL     1      37.710 -11.540  -1.734  1.00  0.00     0.027 A 
HETATM   22  O   UNL     1      39.093 -14.808  -1.556  1.00  0.00    -0.266 OA
HETATM   23  N   UNL     1      37.411 -13.618  -2.679  1.00  0.00    -0.321 N 
HETATM   24  C   UNL     1      36.973 -12.295  -2.644  1.00  0.00     0.048 A 
HETATM   25  H   UNL     1      37.032 -14.350  -3.260  1.00  0.00     0.169 HD
HETATM   26  C   UNL     1      35.954 -11.730  -3.382  1.00  0.00     0.030 A 
HETATM   27  C   UNL     1      35.693 -10.368  -3.178  1.00  0.00     0.002 A 
HETATM   28  C   UNL     1      36.445  -9.610  -2.254  1.00  0.00     0.001 A 
HETATM   29  C   UNL     1      37.474 -10.199  -1.516  1.00  0.00     0.016 A 
ENDBRANCH   2  18
TORSDOF 3
ENDMDL
MODEL 5
REMARK VINA RESULT:      -8.8      1.675      2.060
REMARK  3 active torsions:
REMARK  status: ('A' for Active; 'I' for Inactive)
REMARK    1  A    between atoms: C_5  and  C_6 
REMARK    2  A    between atoms: C_10  and  C_11 
REMARK       I    between atoms: C_11  and  N_12 
REMARK    3  A    between atoms: N_12  and  N_13 
ROOT
HETATM    1  C   UNL     1      44.251 -12.070   7.179  1.00  0.00     0.289 C 
HETATM    2  N   UNL     1      43.321 -13.096   7.158  1.00  0.00    -0.241 N 
HETATM    3  O   UNL     1      45.337 -12.112   6.606  1.00  0.00    -0.264 OA
HETATM    4  H   UNL     1      42.440 -13.010   7.663  1.00  0.00     0.192 HD
ENDROOT
BRANCH   1   5
HETATM    5  C   UNL     1      43.861 -10.915   7.948  1.00  0.00     0.121 A 
HETATM    6  N   UNL     1      43.465  -9.761   7.332  1.00  0.00    -0.272 N 
HETATM    7  N   UNL     1      43.160  -8.764   8.173  1.00  0.00    -0.174 NA
HETATM    8  H   UNL     1      43.399  -9.602   6.332  1.00  0.00     0.189 HD
HETATM    9  C   UNL     1      43.338  -9.285   9.398  1.00  0.00     0.089 A 
HETATM   10  C   UNL     1      43.778 -10.637   9.299  1.00  0.00     0.071 A 
BRANCH   9  11
HETATM   11  C   UNL     1      43.099  -8.493  10.610  1.00  0.00    -0.006 A 
HETATM   12  C   UNL     1      42.487  -7.234  10.548  1.00  0.00     0.014 A 
HETATM   13  C   UNL     1      42.261  -6.491  11.712  1.00  0.00     0.007 A 
HETATM   14  C   UNL     1      42.651  -6.988  12.960  1.00  0.00    -0.062 A 
HETATM   15  C   UNL     1      42.387  -6.211  14.215  1.00  0.00     0.048 C 
HETATM   16  C   UNL     1      43.253  -8.247  13.029  1.00  0.00     0.007 A 
HETATM   17  C   UNL     1      43.481  -8.988  11.865  1.00  0.00     0.014 A 
ENDBRANCH   9  11
ENDBRANCH   1   5
BRANCH   2  18
HETATM   18  N   UNL     1      43.589 -14.261   6.491  1.00  0.00    -0.165 NA
HETATM   19  C   UNL     1      42.894 -14.492   5.424  1.00  0.00     0.157 A 
HETATM   20  C   UNL     1      41.800 -13.624   4.793  1.00  0.00     0.277 A 
HETATM   21  C   UNL     1      43.009 -15.669   4.573  1.00  0.00     0.027 A 
HETATM   22  O   UNL     1      41.429 -12.556   5.232  1.00  0.00    -0.266 OA
HETATM   23  N   UNL     1      41.374 -14.315   3.681  1.00  0.00    -0.321 N 
HETATM   24  C   UNL     1      42.077 -15.512   3.549  1.00  0.00     0.048 A 
HETATM   25  H   UNL     1      40.650 -13.985   3.061  1.00  0.00     0.169 HD
HETATM   26  C   UNL     1      41.928 -16.467   2.566  1.00  0.00     0.030 A 
HETATM   27  C   UNL     1      42.750 -17.599   2.641  1.00  0.00     0.002 A 
HETATM   28  C   UNL     1      43.691 -17.751   3.682  1.00  0.00     0.001 A 
HETATM   29  C   UNL     1      43.829 -16.774   4.670  1.00  0.00     0.016 A 
ENDBRANCH   2  18
TORSDOF 3
ENDMDL
MODEL 6
REMARK VINA RESULT:      -8.5      2.472      3.771
REMARK  3 active torsions:
REMARK  status: ('A' for Active; 'I' for Inactive)
REMARK    1  A    between atoms: C_5  and  C_6 
REMARK    2  A    between atoms: C_10  and  C_11 
REMARK       I    between atoms: C_11  and  N_12 
REMARK    3  A    between atoms: N_12  and  N_13 
ROOT
HETATM    1  C   UNL     1      42.746 -13.523   3.756  1.00  0.00     0.289 C 
HETATM    2  N   UNL     1      43.134 -14.739   4.294  1.00  0.00    -0.241 N 
HETATM    3  O   UNL     1      42.369 -13.371   2.596  1.00  0.00    -0.264 OA
HETATM    4  H   UNL     1      43.451 -14.802   5.260  1.00  0.00     0.192 HD
ENDROOT
BRANCH   1   5
HETATM    5  C   UNL     1      42.825 -12.407   4.664  1.00  0.00     0.121 A 
HETATM    6  N   UNL     1      42.826 -11.121   4.199  1.00  0.00    -0.272 N 
HETATM    7  N   UNL     1      42.932 -10.190   5.156  1.00  0.00    -0.174 NA
HETATM    8  H   UNL     1      42.767 -10.829   3.229  1.00  0.00     0.189 HD
HETATM    9  C   UNL     1      42.980 -10.884   6.304  1.00  0.00     0.089 A 
HETATM   10  C   UNL     1      42.915 -12.282   6.036  1.00  0.00     0.071 A 
BRANCH   9  11
HETATM   11  C   UNL     1      43.097 -10.211   7.602  1.00  0.00    -0.006 A 
HETATM   12  C   UNL     1      44.266 -10.304   8.369  1.00  0.00     0.014 A 
HETATM   13  C   UNL     1      44.366  -9.653   9.603  1.00  0.00     0.007 A 
HETATM   14  C   UNL     1      43.295  -8.902  10.099  1.00  0.00    -0.062 A 
HETATM   15  C   UNL     1      43.403  -8.177  11.408  1.00  0.00     0.048 C 
HETATM   16  C   UNL     1      42.130  -8.796   9.335  1.00  0.00     0.007 A 
HETATM   17  C   UNL     1      42.031  -9.450   8.103  1.00  0.00     0.014 A 
ENDBRANCH   9  11
ENDBRANCH   1   5
BRANCH   2  18
HETATM   18  N   UNL     1      43.139 -15.869   3.522  1.00  0.00    -0.165 NA
HETATM   19  C   UNL     1      43.437 -16.978   4.119  1.00  0.00     0.157 A 
HETATM   20  C   UNL     1      43.785 -17.203   5.593  1.00  0.00     0.277 A 
HETATM   21  C   UNL     1      43.510 -18.290   3.487  1.00  0.00     0.027 A 
HETATM   22  O   UNL     1      43.825 -16.327   6.433  1.00  0.00    -0.266 OA
HETATM   23  N   UNL     1      44.026 -18.553   5.716  1.00  0.00    -0.321 N 
HETATM   24  C   UNL     1      43.867 -19.192   4.488  1.00  0.00     0.048 A 
HETATM   25  H   UNL     1      44.283 -18.998   6.584  1.00  0.00     0.169 HD
HETATM   26  C   UNL     1      44.027 -20.534   4.215  1.00  0.00     0.030 A 
HETATM   27  C   UNL     1      43.815 -20.950   2.893  1.00  0.00     0.002 A 
HETATM   28  C   UNL     1      43.454 -20.029   1.886  1.00  0.00     0.001 A 
HETATM   29  C   UNL     1      43.297 -18.673   2.180  1.00  0.00     0.016 A 
ENDBRANCH   2  18
TORSDOF 3
ENDMDL
MODEL 7
REMARK VINA RESULT:      -8.4      7.931     10.582
REMARK  3 active torsions:
REMARK  status: ('A' for Active; 'I' for Inactive)
REMARK    1  A    between atoms: C_5  and  C_6 
REMARK    2  A    between atoms: C_10  and  C_11 
REMARK       I    between atoms: C_11  and  N_12 
REMARK    3  A    between atoms: N_12  and  N_13 
ROOT
HETATM    1  C   UNL     1      41.347 -12.861   0.632  1.00  0.00     0.289 C 
HETATM    2  N   UNL     1      41.209 -12.872  -0.746  1.00  0.00    -0.241 N 
HETATM    3  O   UNL     1      41.371 -11.840   1.315  1.00  0.00    -0.264 OA
HETATM    4  H   UNL     1      41.208 -13.751  -1.261  1.00  0.00     0.192 HD
ENDROOT
BRANCH   1   5
HETATM    5  C   UNL     1      41.475 -14.163   1.238  1.00  0.00     0.121 A 
HETATM    6  N   UNL     1      40.399 -14.999   1.343  1.00  0.00    -0.272 N 
HETATM    7  N   UNL     1      40.662 -16.162   1.953  1.00  0.00    -0.174 NA
HETATM    8  H   UNL     1      39.455 -14.812   1.021  1.00  0.00     0.189 HD
HETATM    9  C   UNL     1      41.972 -16.106   2.244  1.00  0.00     0.089 A 
HETATM   10  C   UNL     1      42.519 -14.864   1.810  1.00  0.00     0.071 A 
BRANCH   9  11
HETATM   11  C   UNL     1      42.654 -17.212   2.926  1.00  0.00    -0.006 A 
HETATM   12  C   UNL     1      43.014 -17.122   4.277  1.00  0.00     0.014 A 
HETATM   13  C   UNL     1      43.659 -18.187   4.917  1.00  0.00     0.007 A 
HETATM   14  C   UNL     1      43.965 -19.358   4.216  1.00  0.00    -0.062 A 
HETATM   15  C   UNL     1      44.631 -20.514   4.900  1.00  0.00     0.048 C 
HETATM   16  C   UNL     1      43.599 -19.457   2.870  1.00  0.00     0.007 A 
HETATM   17  C   UNL     1      42.957 -18.391   2.231  1.00  0.00     0.014 A 
ENDBRANCH   9  11
ENDBRANCH   1   5
BRANCH   2  18
HETATM   18  N   UNL     1      41.114 -11.698  -1.442  1.00  0.00    -0.165 NA
HETATM   19  C   UNL     1      39.997 -11.477  -2.058  1.00  0.00     0.157 A 
HETATM   20  C   UNL     1      38.747 -12.360  -2.111  1.00  0.00     0.277 A 
HETATM   21  C   UNL     1      39.688 -10.301  -2.862  1.00  0.00     0.027 A 
HETATM   22  O   UNL     1      38.637 -13.432  -1.552  1.00  0.00    -0.266 OA
HETATM   23  N   UNL     1      37.845 -11.681  -2.898  1.00  0.00    -0.321 N 
HETATM   24  C   UNL     1      38.391 -10.477  -3.340  1.00  0.00     0.048 A 
HETATM   25  H   UNL     1      36.922 -12.026  -3.115  1.00  0.00     0.169 HD
HETATM   26  C   UNL     1      37.793  -9.532  -4.147  1.00  0.00     0.030 A 
HETATM   27  C   UNL     1      38.544  -8.392  -4.465  1.00  0.00     0.002 A 
HETATM   28  C   UNL     1      39.857  -8.222  -3.976  1.00  0.00     0.001 A 
HETATM   29  C   UNL     1      40.447  -9.189  -3.160  1.00  0.00     0.016 A 
ENDBRANCH   2  18
TORSDOF 3
ENDMDL
MODEL 8
REMARK VINA RESULT:      -8.4      2.157      9.729
REMARK  3 active torsions:
REMARK  status: ('A' for Active; 'I' for Inactive)
REMARK    1  A    between atoms: C_5  and  C_6 
REMARK    2  A    between atoms: C_10  and  C_11 
REMARK       I    between atoms: C_11  and  N_12 
REMARK    3  A    between atoms: N_12  and  N_13 
ROOT
HETATM    1  C   UNL     1      44.000 -10.659   8.230  1.00  0.00     0.289 C 
HETATM    2  N   UNL     1      43.209 -10.802   9.358  1.00  0.00    -0.241 N 
HETATM    3  O   UNL     1      44.950  -9.883   8.147  1.00  0.00    -0.264 OA
HETATM    4  H   UNL     1      42.425 -11.452   9.364  1.00  0.00     0.192 HD
ENDROOT
BRANCH   1   5
HETATM    5  C   UNL     1      43.622 -11.492   7.117  1.00  0.00     0.121 A 
HETATM    6  N   UNL     1      42.803 -11.020   6.130  1.00  0.00    -0.272 N 
HETATM    7  N   UNL     1      42.516 -11.915   5.176  1.00  0.00    -0.174 NA
HETATM    8  H   UNL     1      42.404 -10.088   6.071  1.00  0.00     0.189 HD
HETATM    9  C   UNL     1      43.190 -13.020   5.531  1.00  0.00     0.089 A 
HETATM   10  C   UNL     1      43.898 -12.794   6.747  1.00  0.00     0.071 A 
BRANCH   9  11
HETATM   11  C   UNL     1      43.133 -14.244   4.725  1.00  0.00    -0.006 A 
HETATM   12  C   UNL     1      43.136 -15.512   5.324  1.00  0.00     0.014 A 
HETATM   13  C   UNL     1      43.077 -16.671   4.542  1.00  0.00     0.007 A 
HETATM   14  C   UNL     1      43.021 -16.587   3.148  1.00  0.00    -0.062 A 
HETATM   15  C   UNL     1      42.929 -17.824   2.304  1.00  0.00     0.048 C 
HETATM   16  C   UNL     1      43.008 -15.326   2.545  1.00  0.00     0.007 A 
HETATM   17  C   UNL     1      43.070 -14.168   3.327  1.00  0.00     0.014 A 
ENDBRANCH   9  11
ENDBRANCH   1   5
BRANCH   2  18
HETATM   18  N   UNL     1      43.443 -10.039  10.470  1.00  0.00    -0.165 NA
HETATM   19  C   UNL     1      42.523  -9.188  10.793  1.00  0.00     0.157 A 
HETATM   20  C   UNL     1      41.187  -8.918  10.095  1.00  0.00     0.277 A 
HETATM   21  C   UNL     1      42.572  -8.275  11.928  1.00  0.00     0.027 A 
HETATM   22  O   UNL     1      40.799  -9.497   9.102  1.00  0.00    -0.266 OA
HETATM   23  N   UNL     1      40.581  -7.921  10.826  1.00  0.00    -0.321 N 
HETATM   24  C   UNL     1      41.387  -7.541  11.898  1.00  0.00     0.048 A 
HETATM   25  H   UNL     1      39.679  -7.531  10.599  1.00  0.00     0.169 HD
HETATM   26  C   UNL     1      41.121  -6.575  12.845  1.00  0.00     0.030 A 
HETATM   27  C   UNL     1      42.090  -6.363  13.836  1.00  0.00     0.002 A 
HETATM   28  C   UNL     1      43.287  -7.111  13.859  1.00  0.00     0.001 A 
HETATM   29  C   UNL     1      43.540  -8.085  12.891  1.00  0.00     0.016 A 
ENDBRANCH   2  18
TORSDOF 3
ENDMDL
MODEL 9
REMARK VINA RESULT:      -8.2      4.247      6.545
REMARK  3 active torsions:
REMARK  status: ('A' for Active; 'I' for Inactive)
REMARK    1  A    between atoms: C_5  and  C_6 
REMARK    2  A    between atoms: C_10  and  C_11 
REMARK       I    between atoms: C_11  and  N_12 
REMARK    3  A    between atoms: N_12  and  N_13 
ROOT
HETATM    1  C   UNL     1      41.383 -14.694   2.854  1.00  0.00     0.289 C 
HETATM    2  N   UNL     1      41.678 -14.148   1.616  1.00  0.00    -0.241 N 
HETATM    3  O   UNL     1      40.547 -15.576   3.038  1.00  0.00    -0.264 OA
HETATM    4  H   UNL     1      42.374 -13.409   1.527  1.00  0.00     0.192 HD
ENDROOT
BRANCH   1   5
HETATM    5  C   UNL     1      42.133 -14.141   3.954  1.00  0.00     0.121 A 
HETATM    6  N   UNL     1      42.687 -14.951   4.905  1.00  0.00    -0.272 N 
HETATM    7  N   UNL     1      43.330 -14.296   5.881  1.00  0.00    -0.174 NA
HETATM    8  H   UNL     1      42.642 -15.965   4.936  1.00  0.00     0.189 HD
HETATM    9  C   UNL     1      43.218 -12.999   5.551  1.00  0.00     0.089 A 
HETATM   10  C   UNL     1      42.472 -12.861   4.345  1.00  0.00     0.071 A 
BRANCH   9  11
HETATM   11  C   UNL     1      43.804 -11.944   6.385  1.00  0.00    -0.006 A 
HETATM   12  C   UNL     1      45.160 -11.962   6.737  1.00  0.00     0.014 A 
HETATM   13  C   UNL     1      45.707 -10.946   7.530  1.00  0.00     0.007 A 
HETATM   14  C   UNL     1      44.907  -9.897   7.993  1.00  0.00    -0.062 A 
HETATM   15  C   UNL     1      45.490  -8.789   8.819  1.00  0.00     0.048 C 
HETATM   16  C   UNL     1      43.555  -9.868   7.638  1.00  0.00     0.007 A 
HETATM   17  C   UNL     1      43.009 -10.885   6.848  1.00  0.00     0.014 A 
ENDBRANCH   9  11
ENDBRANCH   1   5
BRANCH   2  18
HETATM   18  N   UNL     1      41.008 -14.564   0.498  1.00  0.00    -0.165 NA
HETATM   19  C   UNL     1      40.136 -13.743   0.006  1.00  0.00     0.157 A 
HETATM   20  C   UNL     1      39.751 -12.348   0.508  1.00  0.00     0.277 A 
HETATM   21  C   UNL     1      39.308 -13.986  -1.169  1.00  0.00     0.027 A 
HETATM   22  O   UNL     1      40.239 -11.806   1.478  1.00  0.00    -0.266 OA
HETATM   23  N   UNL     1      38.778 -11.898  -0.356  1.00  0.00    -0.321 N 
HETATM   24  C   UNL     1      38.515 -12.852  -1.337  1.00  0.00     0.048 A 
HETATM   25  H   UNL     1      38.329 -10.999  -0.271  1.00  0.00     0.169 HD
HETATM   26  C   UNL     1      37.605 -12.764  -2.369  1.00  0.00     0.030 A 
HETATM   27  C   UNL     1      37.513 -13.859  -3.239  1.00  0.00     0.002 A 
HETATM   28  C   UNL     1      38.319 -15.004  -3.060  1.00  0.00     0.001 A 
HETATM   29  C   UNL     1      39.235 -15.077  -2.009  1.00  0.00     0.016 A 
ENDBRANCH   2  18
TORSDOF 3
ENDMDL
MODEL 10
REMARK VINA RESULT:      -8.2      6.982      9.481
REMARK  3 active torsions:
REMARK  status: ('A' for Active; 'I' for Inactive)
REMARK    1  A    between atoms: C_5  and  C_6 
REMARK    2  A    between atoms: C_10  and  C_11 
REMARK       I    between atoms: C_11  and  N_12 
REMARK    3  A    between atoms: N_12  and  N_13 
ROOT
HETATM    1  C   UNL     1      40.690 -14.713   0.640  1.00  0.00     0.289 C 
HETATM    2  N   UNL     1      42.020 -14.979   0.923  1.00  0.00    -0.241 N 
HETATM    3  O   UNL     1      39.792 -15.549   0.702  1.00  0.00    -0.264 OA
HETATM    4  H   UNL     1      42.725 -14.248   0.842  1.00  0.00     0.192 HD
ENDROOT
BRANCH   1   5
HETATM    5  C   UNL     1      40.416 -13.355   0.244  1.00  0.00     0.121 A 
HETATM    6  N   UNL     1      39.132 -12.900   0.133  1.00  0.00    -0.272 N 
HETATM    7  N   UNL     1      39.030 -11.628  -0.271  1.00  0.00    -0.174 NA
HETATM    8  H   UNL     1      38.285 -13.431   0.314  1.00  0.00     0.189 HD
HETATM    9  C   UNL     1      40.300 -11.212  -0.412  1.00  0.00     0.089 A 
HETATM   10  C   UNL     1      41.201 -12.270  -0.098  1.00  0.00     0.071 A 
BRANCH   9  11
HETATM   11  C   UNL     1      40.615  -9.847  -0.847  1.00  0.00    -0.006 A 
HETATM   12  C   UNL     1      39.605  -8.900  -1.063  1.00  0.00     0.014 A 
HETATM   13  C   UNL     1      39.921  -7.600  -1.474  1.00  0.00     0.007 A 
HETATM   14  C   UNL     1      41.251  -7.224  -1.684  1.00  0.00    -0.062 A 
HETATM   15  C   UNL     1      41.601  -5.825  -2.097  1.00  0.00     0.048 C 
HETATM   16  C   UNL     1      42.264  -8.161  -1.461  1.00  0.00     0.007 A 
HETATM   17  C   UNL     1      41.947  -9.461  -1.054  1.00  0.00     0.014 A 
ENDBRANCH   9  11
ENDBRANCH   1   5
BRANCH   2  18
HETATM   18  N   UNL     1      42.415 -16.241   1.275  1.00  0.00    -0.165 NA
HETATM   19  C   UNL     1      42.823 -16.402   2.493  1.00  0.00     0.157 A 
HETATM   20  C   UNL     1      42.921 -15.360   3.611  1.00  0.00     0.277 A 
HETATM   21  C   UNL     1      43.294 -17.654   3.073  1.00  0.00     0.027 A 
HETATM   22  O   UNL     1      42.611 -14.193   3.494  1.00  0.00    -0.266 OA
HETATM   23  N   UNL     1      43.416 -16.034   4.705  1.00  0.00    -0.321 N 
HETATM   24  C   UNL     1      43.637 -17.375   4.395  1.00  0.00     0.048 A 
HETATM   25  H   UNL     1      43.591 -15.598   5.598  1.00  0.00     0.169 HD
HETATM   26  C   UNL     1      44.129 -18.358   5.227  1.00  0.00     0.030 A 
HETATM   27  C   UNL     1      44.269 -19.644   4.689  1.00  0.00     0.002 A 
HETATM   28  C   UNL     1      43.920 -19.918   3.349  1.00  0.00     0.001 A 
HETATM   29  C   UNL     1      43.423 -18.910   2.520  1.00  0.00     0.016 A 
ENDBRANCH   2  18
TORSDOF 3
ENDMDL
