MODEL 1
REMARK VINA RESULT:      -8.6      0.000      0.000
REMARK  9 active torsions:
REMARK  status: ('A' for Active; 'I' for Inactive)
REMARK    1  A    between atoms: C_4  and  S_5 
REMARK    2  A    between atoms: S_5  and  C_6 
REMARK    3  A    between atoms: C_6  and  C_7 
REMARK       I    between atoms: C_7  and  N_8 
REMARK    4  A    between atoms: N_8  and  C_9 
REMARK    5  A    between atoms: C_10  and  O_11 
REMARK    6  A    between atoms: C_22  and  C_23 
REMARK    7  A    between atoms: C_29  and  C_30 
REMARK       I    between atoms: C_30  and  N_31 
REMARK    8  A    between atoms: N_31  and  C_32 
REMARK    9  A    between atoms: C_33  and  O_34 
ROOT
HETATM    1  C   UNL     1      44.197 -11.802   3.347  1.00  0.00     0.069 C 
HETATM    2  C   UNL     1      42.789 -11.840   2.799  1.00  0.00     0.019 C 
HETATM    3  N   UNL     1      42.094 -10.646   2.870  1.00  0.00    -0.353 N 
HETATM    4  C   UNL     1      40.746 -10.492   2.619  1.00  0.00     0.087 C 
HETATM    5  C   UNL     1      40.063 -11.521   2.067  1.00  0.00     0.055 C 
HETATM    6  C   UNL     1      38.553 -11.508   1.896  1.00  0.00     0.019 C 
HETATM    7  N   UNL     1      37.299 -11.498   1.754  1.00  0.00    -0.096 N 
HETATM    8  C   UNL     1      40.806 -12.780   1.614  1.00  0.00     0.104 C 
HETATM    9  C   UNL     1      42.201 -12.923   2.228  1.00  0.00     0.046 C 
HETATM   10  H   UNL     1      42.546  -9.854   3.317  1.00  0.00     0.166 HD
ENDROOT
BRANCH   4  11
HETATM   11  S   UNL     1      40.033  -8.924   2.856  1.00  0.00    -0.102 SA
BRANCH  11  12
HETATM   12  C   UNL     1      39.949  -8.720   4.639  1.00  0.00     0.184 C 
BRANCH  12  13
HETATM   13  C   UNL     1      39.092  -9.729   5.389  1.00  0.00     0.231 C 
HETATM   14  N   UNL     1      39.656 -10.854   5.942  1.00  0.00    -0.324 N 
HETATM   15  H   UNL     1      39.034 -11.655   5.929  1.00  0.00     0.169 HD
HETATM   16  O   UNL     1      37.860  -9.639   5.335  1.00  0.00    -0.272 OA
BRANCH  14  17
HETATM   17  C   UNL     1      40.996 -11.118   6.282  1.00  0.00     0.070 C 
HETATM   18  C   UNL     1      41.530 -12.396   6.042  1.00  0.00     0.095 C 
HETATM   19  C   UNL     1      42.874 -12.649   6.347  1.00  0.00     0.041 C 
HETATM   20  C   UNL     1      43.658 -11.665   6.954  1.00  0.00     0.026 C 
HETATM   21  C   UNL     1      43.091 -10.441   7.288  1.00  0.00     0.036 C 
HETATM   22 CL   UNL     1      44.029  -9.254   8.105  1.00  0.00    -0.084 Cl
HETATM   23  C   UNL     1      41.761 -10.177   6.972  1.00  0.00     0.056 C 
BRANCH  18  24
HETATM   24  O   UNL     1      40.682 -13.307   5.463  1.00  0.00    -0.354 OA
HETATM   25  C   UNL     1      40.446 -14.502   6.201  1.00  0.00     0.210 C 
ENDBRANCH  18  24
ENDBRANCH  14  17
ENDBRANCH  12  13
ENDBRANCH  11  12
ENDBRANCH   4  11
BRANCH   8  26
HETATM   26  C   UNL     1      40.847 -12.781   0.076  1.00  0.00    -0.044 A 
HETATM   27  C   UNL     1      41.334 -11.671  -0.641  1.00  0.00     0.008 A 
HETATM   28  C   UNL     1      41.310 -11.651  -2.036  1.00  0.00     0.001 A 
HETATM   29  C   UNL     1      40.792 -12.735  -2.738  1.00  0.00     0.000 A 
HETATM   30  C   UNL     1      40.297 -13.839  -2.044  1.00  0.00     0.001 A 
HETATM   31  C   UNL     1      40.319 -13.863  -0.647  1.00  0.00     0.008 A 
ENDBRANCH   8  26
BRANCH   9  32
HETATM   32  C   UNL     1      42.894 -14.256   2.266  1.00  0.00     0.255 C 
HETATM   33  N   UNL     1      42.530 -15.102   3.295  1.00  0.00    -0.321 N 
HETATM   34  H   UNL     1      42.081 -14.725   4.114  1.00  0.00     0.169 HD
HETATM   35  O   UNL     1      43.816 -14.490   1.486  1.00  0.00    -0.268 OA
BRANCH  33  36
HETATM   36  C   UNL     1      42.998 -16.432   3.408  1.00  0.00     0.068 A 
HETATM   37  C   UNL     1      43.669 -16.919   4.550  1.00  0.00     0.095 A 
HETATM   38  C   UNL     1      44.035 -18.269   4.601  1.00  0.00     0.039 A 
HETATM   39  C   UNL     1      43.767 -19.117   3.522  1.00  0.00     0.003 A 
HETATM   40  C   UNL     1      43.163 -18.617   2.372  1.00  0.00     0.002 A 
HETATM   41  C   UNL     1      42.796 -17.273   2.307  1.00  0.00     0.032 A 
BRANCH  37  42
HETATM   42  O   UNL     1      44.034 -15.994   5.495  1.00  0.00    -0.354 OA
HETATM   43  C   UNL     1      43.905 -16.363   6.860  1.00  0.00     0.210 C 
ENDBRANCH  37  42
ENDBRANCH  33  36
ENDBRANCH   9  32
TORSDOF 9
ENDMDL
MODEL 2
REMARK VINA RESULT:      -8.5      3.281      5.576
REMARK  9 active torsions:
REMARK  status: ('A' for Active; 'I' for Inactive)
REMARK    1  A    between atoms: C_4  and  S_5 
REMARK    2  A    between atoms: S_5  and  C_6 
REMARK    3  A    between atoms: C_6  and  C_7 
REMARK       I    between atoms: C_7  and  N_8 
REMARK    4  A    between atoms: N_8  and  C_9 
REMARK    5  A    between atoms: C_10  and  O_11 
REMARK    6  A    between atoms: C_22  and  C_23 
REMARK    7  A    between atoms: C_29  and  C_30 
REMARK       I    between atoms: C_30  and  N_31 
REMARK    8  A    between atoms: N_31  and  C_32 
REMARK    9  A    between atoms: C_33  and  O_34 
ROOT
HETATM    1  C   UNL     1      40.148 -14.672   6.148  1.00  0.00     0.069 C 
HETATM    2  C   UNL     1      40.680 -13.281   5.887  1.00  0.00     0.019 C 
HETATM    3  N   UNL     1      39.969 -12.255   6.481  1.00  0.00    -0.353 N 
HETATM    4  C   UNL     1      40.145 -10.910   6.224  1.00  0.00     0.087 C 
HETATM    5  C   UNL     1      41.215 -10.519   5.496  1.00  0.00     0.055 C 
HETATM    6  C   UNL     1      41.415  -9.087   5.028  1.00  0.00     0.019 C 
HETATM    7  N   UNL     1      41.579  -7.898   4.641  1.00  0.00    -0.096 N 
HETATM    8  C   UNL     1      42.275 -11.543   5.079  1.00  0.00     0.104 C 
HETATM    9  C   UNL     1      41.793 -12.993   5.164  1.00  0.00     0.046 C 
HETATM   10  H   UNL     1      39.129 -12.491   7.002  1.00  0.00     0.166 HD
ENDROOT
BRANCH   4  11
HETATM   11  S   UNL     1      39.084  -9.773   7.001  1.00  0.00    -0.102 SA
BRANCH  11  12
HETATM   12  C   UNL     1      39.822  -9.479   8.612  1.00  0.00     0.184 C 
BRANCH  12  13
HETATM   13  C   UNL     1      39.204 -10.234   9.779  1.00  0.00     0.231 C 
HETATM   14  N   UNL     1      39.874 -10.349  10.973  1.00  0.00    -0.324 N 
HETATM   15  H   UNL     1      39.688 -11.226  11.449  1.00  0.00     0.169 HD
HETATM   16  O   UNL     1      38.185 -10.909   9.595  1.00  0.00    -0.272 OA
BRANCH  14  17
HETATM   17  C   UNL     1      40.930  -9.578  11.494  1.00  0.00     0.070 C 
HETATM   18  C   UNL     1      40.644  -8.529  12.387  1.00  0.00     0.095 C 
HETATM   19  C   UNL     1      41.697  -7.784  12.933  1.00  0.00     0.041 C 
HETATM   20  C   UNL     1      43.016  -8.029  12.539  1.00  0.00     0.026 C 
HETATM   21  C   UNL     1      43.278  -8.994  11.574  1.00  0.00     0.036 C 
HETATM   22 CL   UNL     1      44.888  -9.247  11.027  1.00  0.00    -0.084 Cl
HETATM   23  C   UNL     1      42.238  -9.750  11.039  1.00  0.00     0.056 C 
BRANCH  18  24
HETATM   24  O   UNL     1      39.320  -8.347  12.700  1.00  0.00    -0.354 OA
HETATM   25  C   UNL     1      38.698  -7.193  12.144  1.00  0.00     0.210 C 
ENDBRANCH  18  24
ENDBRANCH  14  17
ENDBRANCH  12  13
ENDBRANCH  11  12
ENDBRANCH   4  11
BRANCH   8  26
HETATM   26  C   UNL     1      43.533 -11.300   5.931  1.00  0.00    -0.044 A 
HETATM   27  C   UNL     1      44.823 -11.405   5.374  1.00  0.00     0.008 A 
HETATM   28  C   UNL     1      45.960 -11.246   6.165  1.00  0.00     0.001 A 
HETATM   29  C   UNL     1      45.830 -10.989   7.526  1.00  0.00     0.000 A 
HETATM   30  C   UNL     1      44.562 -10.892   8.097  1.00  0.00     0.001 A 
HETATM   31  C   UNL     1      43.420 -11.050   7.308  1.00  0.00     0.008 A 
ENDBRANCH   8  26
BRANCH   9  32
HETATM   32  C   UNL     1      42.495 -14.085   4.406  1.00  0.00     0.255 C 
HETATM   33  N   UNL     1      42.486 -15.335   4.991  1.00  0.00    -0.321 N 
HETATM   34  H   UNL     1      42.304 -15.422   5.978  1.00  0.00     0.169 HD
HETATM   35  O   UNL     1      43.136 -13.811   3.392  1.00  0.00    -0.268 OA
BRANCH  33  36
HETATM   36  C   UNL     1      42.997 -16.492   4.357  1.00  0.00     0.068 A 
HETATM   37  C   UNL     1      44.043 -17.270   4.899  1.00  0.00     0.095 A 
HETATM   38  C   UNL     1      44.437 -18.437   4.236  1.00  0.00     0.039 A 
HETATM   39  C   UNL     1      43.825 -18.813   3.036  1.00  0.00     0.003 A 
HETATM   40  C   UNL     1      42.838 -18.008   2.473  1.00  0.00     0.002 A 
HETATM   41  C   UNL     1      42.439 -16.840   3.121  1.00  0.00     0.032 A 
BRANCH  37  42
HETATM   42  O   UNL     1      44.696 -16.755   5.990  1.00  0.00    -0.354 OA
HETATM   43  C   UNL     1      44.137 -17.006   7.270  1.00  0.00     0.210 C 
ENDBRANCH  37  42
ENDBRANCH  33  36
ENDBRANCH   9  32
TORSDOF 9
ENDMDL
MODEL 3
REMARK VINA RESULT:      -8.3      2.828      3.898
REMARK  9 active torsions:
REMARK  status: ('A' for Active; 'I' for Inactive)
REMARK    1  A    between atoms: C_4  and  S_5 
REMARK    2  A    between atoms: S_5  and  C_6 
REMARK    3  A    between atoms: C_6  and  C_7 
REMARK       I    between atoms: C_7  and  N_8 
REMARK    4  A    between atoms: N_8  and  C_9 
REMARK    5  A    between atoms: C_10  and  O_11 
REMARK    6  A    between atoms: C_22  and  C_23 
REMARK    7  A    between atoms: C_29  and  C_30 
REMARK       I    between atoms: C_30  and  N_31 
REMARK    8  A    between atoms: N_31  and  C_32 
REMARK    9  A    between atoms: C_33  and  O_34 
ROOT
HETATM    1  C   UNL     1      44.012 -13.026   6.640  1.00  0.00     0.069 C 
HETATM    2  C   UNL     1      42.754 -12.398   6.088  1.00  0.00     0.019 C 
HETATM    3  N   UNL     1      42.569 -11.065   6.408  1.00  0.00    -0.353 N 
HETATM    4  C   UNL     1      41.412 -10.346   6.187  1.00  0.00     0.087 C 
HETATM    5  C   UNL     1      40.439 -10.892   5.423  1.00  0.00     0.055 C 
HETATM    6  C   UNL     1      39.072 -10.252   5.248  1.00  0.00     0.019 C 
HETATM    7  N   UNL     1      37.938  -9.719   5.103  1.00  0.00    -0.096 N 
HETATM    8  C   UNL     1      40.679 -12.228   4.714  1.00  0.00     0.104 C 
HETATM    9  C   UNL     1      41.850 -13.027   5.293  1.00  0.00     0.046 C 
HETATM   10  H   UNL     1      43.248 -10.620   7.019  1.00  0.00     0.166 HD
ENDROOT
BRANCH   4  11
HETATM   11  S   UNL     1      41.338  -8.703   6.751  1.00  0.00    -0.102 SA
BRANCH  11  12
HETATM   12  C   UNL     1      40.484  -8.794   8.329  1.00  0.00     0.184 C 
BRANCH  12  13
HETATM   13  C   UNL     1      40.770  -7.668   9.311  1.00  0.00     0.231 C 
HETATM   14  N   UNL     1      41.779  -7.784  10.237  1.00  0.00    -0.324 N 
HETATM   15  H   UNL     1      41.572  -7.310  11.110  1.00  0.00     0.169 HD
HETATM   16  O   UNL     1      39.971  -6.729   9.409  1.00  0.00    -0.272 OA
BRANCH  14  17
HETATM   17  C   UNL     1      42.900  -8.634  10.247  1.00  0.00     0.070 C 
HETATM   18  C   UNL     1      43.012  -9.619  11.245  1.00  0.00     0.095 C 
HETATM   19  C   UNL     1      44.110 -10.488  11.234  1.00  0.00     0.041 C 
HETATM   20  C   UNL     1      45.126 -10.332  10.287  1.00  0.00     0.026 C 
HETATM   21  C   UNL     1      45.061  -9.288   9.374  1.00  0.00     0.036 C 
HETATM   22 CL   UNL     1      46.345  -9.043   8.256  1.00  0.00    -0.084 Cl
HETATM   23  C   UNL     1      43.965  -8.430   9.367  1.00  0.00     0.056 C 
BRANCH  18  24
HETATM   24  O   UNL     1      41.979  -9.685  12.147  1.00  0.00    -0.354 OA
HETATM   25  C   UNL     1      42.294  -9.323  13.488  1.00  0.00     0.210 C 
ENDBRANCH  18  24
ENDBRANCH  14  17
ENDBRANCH  12  13
ENDBRANCH  11  12
ENDBRANCH   4  11
BRANCH   8  26
HETATM   26  C   UNL     1      40.857 -11.946   3.213  1.00  0.00    -0.044 A 
HETATM   27  C   UNL     1      41.662 -10.881   2.761  1.00  0.00     0.008 A 
HETATM   28  C   UNL     1      41.768 -10.590   1.401  1.00  0.00     0.001 A 
HETATM   29  C   UNL     1      41.067 -11.350   0.470  1.00  0.00     0.000 A 
HETATM   30  C   UNL     1      40.258 -12.401   0.900  1.00  0.00     0.001 A 
HETATM   31  C   UNL     1      40.148 -12.697   2.261  1.00  0.00     0.008 A 
ENDBRANCH   8  26
BRANCH   9  32
HETATM   32  C   UNL     1      41.971 -14.505   5.049  1.00  0.00     0.255 C 
HETATM   33  N   UNL     1      42.946 -14.896   4.153  1.00  0.00    -0.321 N 
HETATM   34  H   UNL     1      43.316 -14.228   3.496  1.00  0.00     0.169 HD
HETATM   35  O   UNL     1      41.147 -15.276   5.538  1.00  0.00    -0.268 OA
BRANCH  33  36
HETATM   36  C   UNL     1      43.269 -16.250   3.899  1.00  0.00     0.068 A 
HETATM   37  C   UNL     1      43.978 -17.058   4.813  1.00  0.00     0.095 A 
HETATM   38  C   UNL     1      44.192 -18.406   4.506  1.00  0.00     0.039 A 
HETATM   39  C   UNL     1      43.736 -18.939   3.297  1.00  0.00     0.003 A 
HETATM   40  C   UNL     1      43.092 -18.123   2.371  1.00  0.00     0.002 A 
HETATM   41  C   UNL     1      42.876 -16.776   2.663  1.00  0.00     0.032 A 
BRANCH  37  42
HETATM   42  O   UNL     1      44.528 -16.426   5.900  1.00  0.00    -0.354 OA
HETATM   43  C   UNL     1      44.030 -16.774   7.183  1.00  0.00     0.210 C 
ENDBRANCH  37  42
ENDBRANCH  33  36
ENDBRANCH   9  32
TORSDOF 9
ENDMDL
MODEL 4
REMARK VINA RESULT:      -8.2      3.195      6.184
REMARK  9 active torsions:
REMARK  status: ('A' for Active; 'I' for Inactive)
REMARK    1  A    between atoms: C_4  and  S_5 
REMARK    2  A    between atoms: S_5  and  C_6 
REMARK    3  A    between atoms: C_6  and  C_7 
REMARK       I    between atoms: C_7  and  N_8 
REMARK    4  A    between atoms: N_8  and  C_9 
REMARK    5  A    between atoms: C_10  and  O_11 
REMARK    6  A    between atoms: C_22  and  C_23 
REMARK    7  A    between atoms: C_29  and  C_30 
REMARK       I    between atoms: C_30  and  N_31 
REMARK    8  A    between atoms: N_31  and  C_32 
REMARK    9  A    between atoms: C_33  and  O_34 
ROOT
HETATM    1  C   UNL     1      39.816 -15.839   0.705  1.00  0.00     0.069 C 
HETATM    2  C   UNL     1      40.437 -14.797   1.605  1.00  0.00     0.019 C 
HETATM    3  N   UNL     1      39.721 -13.621   1.730  1.00  0.00    -0.353 N 
HETATM    4  C   UNL     1      40.182 -12.466   2.329  1.00  0.00     0.087 C 
HETATM    5  C   UNL     1      41.335 -12.512   3.034  1.00  0.00     0.055 C 
HETATM    6  C   UNL     1      42.005 -11.270   3.598  1.00  0.00     0.019 C 
HETATM    7  N   UNL     1      42.560 -10.239   4.066  1.00  0.00    -0.096 N 
HETATM    8  C   UNL     1      42.041 -13.851   3.265  1.00  0.00     0.104 C 
HETATM    9  C   UNL     1      41.592 -14.954   2.302  1.00  0.00     0.046 C 
HETATM   10  H   UNL     1      38.869 -13.517   1.185  1.00  0.00     0.166 HD
ENDROOT
BRANCH   4  11
HETATM   11  S   UNL     1      39.166 -11.056   2.301  1.00  0.00    -0.102 SA
BRANCH  11  12
HETATM   12  C   UNL     1      37.602 -11.627   1.625  1.00  0.00     0.184 C 
BRANCH  12  13
HETATM   13  C   UNL     1      37.039 -10.821   0.465  1.00  0.00     0.231 C 
HETATM   14  N   UNL     1      37.657 -10.834  -0.763  1.00  0.00    -0.324 N 
HETATM   15  H   UNL     1      37.574  -9.952  -1.257  1.00  0.00     0.169 HD
HETATM   16  O   UNL     1      36.139 -10.000   0.675  1.00  0.00    -0.272 OA
BRANCH  14  17
HETATM   17  C   UNL     1      38.562 -11.764  -1.307  1.00  0.00     0.070 C 
HETATM   18  C   UNL     1      39.913 -11.406  -1.457  1.00  0.00     0.095 C 
HETATM   19  C   UNL     1      40.821 -12.344  -1.966  1.00  0.00     0.041 C 
HETATM   20  C   UNL     1      40.377 -13.599  -2.393  1.00  0.00     0.026 C 
HETATM   21  C   UNL     1      39.023 -13.903  -2.343  1.00  0.00     0.036 C 
HETATM   22 CL   UNL     1      38.459 -15.415  -2.937  1.00  0.00    -0.084 Cl
HETATM   23  C   UNL     1      38.117 -12.983  -1.822  1.00  0.00     0.056 C 
BRANCH  18  24
HETATM   24  O   UNL     1      40.256 -10.147  -1.033  1.00  0.00    -0.354 OA
HETATM   25  C   UNL     1      41.565 -10.002  -0.493  1.00  0.00     0.210 C 
ENDBRANCH  18  24
ENDBRANCH  14  17
ENDBRANCH  12  13
ENDBRANCH  11  12
ENDBRANCH   4  11
BRANCH   8  26
HETATM   26  C   UNL     1      41.837 -14.249   4.737  1.00  0.00    -0.044 A 
HETATM   27  C   UNL     1      42.898 -14.189   5.662  1.00  0.00     0.008 A 
HETATM   28  C   UNL     1      42.725 -14.611   6.980  1.00  0.00     0.001 A 
HETATM   29  C   UNL     1      41.493 -15.108   7.394  1.00  0.00     0.000 A 
HETATM   30  C   UNL     1      40.435 -15.184   6.490  1.00  0.00     0.001 A 
HETATM   31  C   UNL     1      40.604 -14.762   5.169  1.00  0.00     0.008 A 
ENDBRANCH   8  26
BRANCH   9  32
HETATM   32  C   UNL     1      42.444 -16.170   2.072  1.00  0.00     0.255 C 
HETATM   33  N   UNL     1      42.400 -17.139   3.055  1.00  0.00    -0.321 N 
HETATM   34  H   UNL     1      42.076 -16.898   3.977  1.00  0.00     0.169 HD
HETATM   35  O   UNL     1      43.218 -16.203   1.116  1.00  0.00    -0.268 OA
BRANCH  33  36
HETATM   36  C   UNL     1      43.049 -18.391   2.939  1.00  0.00     0.068 A 
HETATM   37  C   UNL     1      43.944 -18.889   3.910  1.00  0.00     0.095 A 
HETATM   38  C   UNL     1      44.485 -20.168   3.745  1.00  0.00     0.039 A 
HETATM   39  C   UNL     1      44.168 -20.932   2.618  1.00  0.00     0.003 A 
HETATM   40  C   UNL     1      43.336 -20.412   1.631  1.00  0.00     0.002 A 
HETATM   41  C   UNL     1      42.792 -19.136   1.781  1.00  0.00     0.032 A 
BRANCH  37  42
HETATM   42  O   UNL     1      44.326 -18.021   4.902  1.00  0.00    -0.354 OA
HETATM   43  C   UNL     1      43.645 -18.104   6.145  1.00  0.00     0.210 C 
ENDBRANCH  37  42
ENDBRANCH  33  36
ENDBRANCH   9  32
TORSDOF 9
ENDMDL
MODEL 5
REMARK VINA RESULT:      -8.1      3.533      4.581
REMARK  9 active torsions:
REMARK  status: ('A' for Active; 'I' for Inactive)
REMARK    1  A    between atoms: C_4  and  S_5 
REMARK    2  A    between atoms: S_5  and  C_6 
REMARK    3  A    between atoms: C_6  and  C_7 
REMARK       I    between atoms: C_7  and  N_8 
REMARK    4  A    between atoms: N_8  and  C_9 
REMARK    5  A    between atoms: C_10  and  O_11 
REMARK    6  A    between atoms: C_22  and  C_23 
REMARK    7  A    between atoms: C_29  and  C_30 
REMARK       I    between atoms: C_30  and  N_31 
REMARK    8  A    between atoms: N_31  and  C_32 
REMARK    9  A    between atoms: C_33  and  O_34 
ROOT
HETATM    1  C   UNL     1      44.019 -13.227   6.841  1.00  0.00     0.069 C 
HETATM    2  C   UNL     1      42.765 -12.567   6.316  1.00  0.00     0.019 C 
HETATM    3  N   UNL     1      42.582 -11.253   6.703  1.00  0.00    -0.353 N 
HETATM    4  C   UNL     1      41.427 -10.519   6.513  1.00  0.00     0.087 C 
HETATM    5  C   UNL     1      40.457 -11.024   5.718  1.00  0.00     0.055 C 
HETATM    6  C   UNL     1      39.092 -10.371   5.570  1.00  0.00     0.019 C 
HETATM    7  N   UNL     1      37.960  -9.829   5.448  1.00  0.00    -0.096 N 
HETATM    8  C   UNL     1      40.696 -12.323   4.944  1.00  0.00     0.104 C 
HETATM    9  C   UNL     1      41.862 -13.153   5.487  1.00  0.00     0.046 C 
HETATM   10  H   UNL     1      43.259 -10.840   7.337  1.00  0.00     0.166 HD
ENDROOT
BRANCH   4  11
HETATM   11  S   UNL     1      41.356  -8.907   7.159  1.00  0.00    -0.102 SA
BRANCH  11  12
HETATM   12  C   UNL     1      41.545  -9.111   8.934  1.00  0.00     0.184 C 
BRANCH  12  13
HETATM   13  C   UNL     1      40.259  -9.277   9.730  1.00  0.00     0.231 C 
HETATM   14  N   UNL     1      40.236  -9.034  11.082  1.00  0.00    -0.324 N 
HETATM   15  H   UNL     1      39.586  -9.633  11.581  1.00  0.00     0.169 HD
HETATM   16  O   UNL     1      39.282  -9.818   9.200  1.00  0.00    -0.272 OA
BRANCH  14  17
HETATM   17  C   UNL     1      41.120  -8.285  11.880  1.00  0.00     0.070 C 
HETATM   18  C   UNL     1      42.194  -8.933  12.516  1.00  0.00     0.095 C 
HETATM   19  C   UNL     1      43.095  -8.181  13.281  1.00  0.00     0.041 C 
HETATM   20  C   UNL     1      42.889  -6.812  13.475  1.00  0.00     0.026 C 
HETATM   21  C   UNL     1      41.765  -6.203  12.933  1.00  0.00     0.036 C 
HETATM   22 CL   UNL     1      41.464  -4.536  13.231  1.00  0.00    -0.084 Cl
HETATM   23  C   UNL     1      40.874  -6.939  12.157  1.00  0.00     0.056 C 
BRANCH  18  24
HETATM   24  O   UNL     1      42.307 -10.282  12.289  1.00  0.00    -0.354 OA
HETATM   25  C   UNL     1      43.529 -10.719  11.703  1.00  0.00     0.210 C 
ENDBRANCH  18  24
ENDBRANCH  14  17
ENDBRANCH  12  13
ENDBRANCH  11  12
ENDBRANCH   4  11
BRANCH   8  26
HETATM   26  C   UNL     1      40.881 -11.965   3.459  1.00  0.00    -0.044 A 
HETATM   27  C   UNL     1      41.773 -10.952   3.059  1.00  0.00     0.008 A 
HETATM   28  C   UNL     1      41.889 -10.588   1.717  1.00  0.00     0.001 A 
HETATM   29  C   UNL     1      41.111 -11.223   0.754  1.00  0.00     0.000 A 
HETATM   30  C   UNL     1      40.216 -12.222   1.134  1.00  0.00     0.001 A 
HETATM   31  C   UNL     1      40.096 -12.590   2.477  1.00  0.00     0.008 A 
ENDBRANCH   8  26
BRANCH   9  32
HETATM   32  C   UNL     1      41.980 -14.617   5.169  1.00  0.00     0.255 C 
HETATM   33  N   UNL     1      42.955 -14.964   4.254  1.00  0.00    -0.321 N 
HETATM   34  H   UNL     1      43.325 -14.265   3.631  1.00  0.00     0.169 HD
HETATM   35  O   UNL     1      41.155 -15.410   5.619  1.00  0.00    -0.268 OA
BRANCH  33  36
HETATM   36  C   UNL     1      43.274 -16.305   3.933  1.00  0.00     0.068 A 
HETATM   37  C   UNL     1      44.008 -17.150   4.793  1.00  0.00     0.095 A 
HETATM   38  C   UNL     1      44.218 -18.482   4.421  1.00  0.00     0.039 A 
HETATM   39  C   UNL     1      43.734 -18.963   3.200  1.00  0.00     0.003 A 
HETATM   40  C   UNL     1      43.066 -18.109   2.327  1.00  0.00     0.002 A 
HETATM   41  C   UNL     1      42.854 -16.777   2.683  1.00  0.00     0.032 A 
BRANCH  37  42
HETATM   42  O   UNL     1      44.582 -16.566   5.893  1.00  0.00    -0.354 OA
HETATM   43  C   UNL     1      44.045 -16.893   7.165  1.00  0.00     0.210 C 
ENDBRANCH  37  42
ENDBRANCH  33  36
ENDBRANCH   9  32
TORSDOF 9
ENDMDL
MODEL 6
REMARK VINA RESULT:      -8.0      3.150      6.073
REMARK  9 active torsions:
REMARK  status: ('A' for Active; 'I' for Inactive)
REMARK    1  A    between atoms: C_4  and  S_5 
REMARK    2  A    between atoms: S_5  and  C_6 
REMARK    3  A    between atoms: C_6  and  C_7 
REMARK       I    between atoms: C_7  and  N_8 
REMARK    4  A    between atoms: N_8  and  C_9 
REMARK    5  A    between atoms: C_10  and  O_11 
REMARK    6  A    between atoms: C_22  and  C_23 
REMARK    7  A    between atoms: C_29  and  C_30 
REMARK       I    between atoms: C_30  and  N_31 
REMARK    8  A    between atoms: N_31  and  C_32 
REMARK    9  A    between atoms: C_33  and  O_34 
ROOT
HETATM    1  C   UNL     1      38.831 -10.682   2.945  1.00  0.00     0.069 C 
HETATM    2  C   UNL     1      40.264 -11.073   3.219  1.00  0.00     0.019 C 
HETATM    3  N   UNL     1      40.724 -10.784   4.491  1.00  0.00    -0.353 N 
HETATM    4  C   UNL     1      42.039 -10.865   4.901  1.00  0.00     0.087 C 
HETATM    5  C   UNL     1      42.941 -11.458   4.087  1.00  0.00     0.055 C 
HETATM    6  C   UNL     1      44.434 -11.461   4.375  1.00  0.00     0.019 C 
HETATM    7  N   UNL     1      45.672 -11.462   4.615  1.00  0.00    -0.096 N 
HETATM    8  C   UNL     1      42.479 -12.139   2.796  1.00  0.00     0.104 C 
HETATM    9  C   UNL     1      41.085 -11.703   2.339  1.00  0.00     0.046 C 
HETATM   10  H   UNL     1      40.100 -10.296   5.127  1.00  0.00     0.166 HD
ENDROOT
BRANCH   4  11
HETATM   11  S   UNL     1      42.434 -10.364   6.518  1.00  0.00    -0.102 SA
BRANCH  11  12
HETATM   12  C   UNL     1      41.434  -8.899   6.805  1.00  0.00     0.184 C 
BRANCH  12  13
HETATM   13  C   UNL     1      42.195  -7.598   7.011  1.00  0.00     0.231 C 
HETATM   14  N   UNL     1      42.770  -7.307   8.225  1.00  0.00    -0.324 N 
HETATM   15  H   UNL     1      42.767  -6.315   8.437  1.00  0.00     0.169 HD
HETATM   16  O   UNL     1      42.131  -6.714   6.149  1.00  0.00    -0.272 OA
BRANCH  14  17
HETATM   17  C   UNL     1      43.123  -8.163   9.284  1.00  0.00     0.070 C 
HETATM   18  C   UNL     1      44.438  -8.654   9.367  1.00  0.00     0.095 C 
HETATM   19  C   UNL     1      44.800  -9.478  10.441  1.00  0.00     0.041 C 
HETATM   20  C   UNL     1      43.844  -9.870  11.384  1.00  0.00     0.026 C 
HETATM   21  C   UNL     1      42.523  -9.469  11.232  1.00  0.00     0.036 C 
HETATM   22 CL   UNL     1      41.328 -10.012  12.344  1.00  0.00    -0.084 Cl
HETATM   23  C   UNL     1      42.160  -8.637  10.177  1.00  0.00     0.056 C 
BRANCH  18  24
HETATM   24  O   UNL     1      45.303  -8.235   8.387  1.00  0.00    -0.354 OA
HETATM   25  C   UNL     1      46.279  -9.182   7.965  1.00  0.00     0.210 C 
ENDBRANCH  18  24
ENDBRANCH  14  17
ENDBRANCH  12  13
ENDBRANCH  11  12
ENDBRANCH   4  11
BRANCH   8  26
HETATM   26  C   UNL     1      42.572 -13.661   3.000  1.00  0.00    -0.044 A 
HETATM   27  C   UNL     1      43.260 -14.479   2.083  1.00  0.00     0.008 A 
HETATM   28  C   UNL     1      43.287 -15.865   2.238  1.00  0.00     0.001 A 
HETATM   29  C   UNL     1      42.620 -16.458   3.306  1.00  0.00     0.000 A 
HETATM   30  C   UNL     1      41.925 -15.665   4.218  1.00  0.00     0.001 A 
HETATM   31  C   UNL     1      41.896 -14.276   4.066  1.00  0.00     0.008 A 
ENDBRANCH   8  26
BRANCH   9  32
HETATM   32  C   UNL     1      40.642 -11.902   0.916  1.00  0.00     0.255 C 
HETATM   33  N   UNL     1      39.834 -12.995   0.678  1.00  0.00    -0.321 N 
HETATM   34  H   UNL     1      39.814 -13.754   1.339  1.00  0.00     0.169 HD
HETATM   35  O   UNL     1      41.100 -11.186   0.027  1.00  0.00    -0.268 OA
BRANCH  33  36
HETATM   36  C   UNL     1      39.237 -13.259  -0.578  1.00  0.00     0.068 A 
HETATM   37  C   UNL     1      38.128 -12.539  -1.072  1.00  0.00     0.095 A 
HETATM   38  C   UNL     1      37.648 -12.825  -2.354  1.00  0.00     0.039 A 
HETATM   39  C   UNL     1      38.238 -13.830  -3.125  1.00  0.00     0.003 A 
HETATM   40  C   UNL     1      39.290 -14.581  -2.609  1.00  0.00     0.002 A 
HETATM   41  C   UNL     1      39.776 -14.310  -1.330  1.00  0.00     0.032 A 
BRANCH  37  42
HETATM   42  O   UNL     1      37.509 -11.681  -0.198  1.00  0.00    -0.354 OA
HETATM   43  C   UNL     1      37.545 -10.295  -0.503  1.00  0.00     0.210 C 
ENDBRANCH  37  42
ENDBRANCH  33  36
ENDBRANCH   9  32
TORSDOF 9
ENDMDL
MODEL 7
REMARK VINA RESULT:      -8.0      3.646      5.008
REMARK  9 active torsions:
REMARK  status: ('A' for Active; 'I' for Inactive)
REMARK    1  A    between atoms: C_4  and  S_5 
REMARK    2  A    between atoms: S_5  and  C_6 
REMARK    3  A    between atoms: C_6  and  C_7 
REMARK       I    between atoms: C_7  and  N_8 
REMARK    4  A    between atoms: N_8  and  C_9 
REMARK    5  A    between atoms: C_10  and  O_11 
REMARK    6  A    between atoms: C_22  and  C_23 
REMARK    7  A    between atoms: C_29  and  C_30 
REMARK       I    between atoms: C_30  and  N_31 
REMARK    8  A    between atoms: N_31  and  C_32 
REMARK    9  A    between atoms: C_33  and  O_34 
ROOT
HETATM    1  C   UNL     1      44.078 -13.378   6.679  1.00  0.00     0.069 C 
HETATM    2  C   UNL     1      42.810 -12.698   6.219  1.00  0.00     0.019 C 
HETATM    3  N   UNL     1      42.652 -11.391   6.643  1.00  0.00    -0.353 N 
HETATM    4  C   UNL     1      41.498 -10.645   6.516  1.00  0.00     0.087 C 
HETATM    5  C   UNL     1      40.493 -11.124   5.749  1.00  0.00     0.055 C 
HETATM    6  C   UNL     1      39.129 -10.458   5.669  1.00  0.00     0.019 C 
HETATM    7  N   UNL     1      37.997  -9.905   5.604  1.00  0.00    -0.096 N 
HETATM    8  C   UNL     1      40.691 -12.406   4.936  1.00  0.00     0.104 C 
HETATM    9  C   UNL     1      41.871 -13.257   5.413  1.00  0.00     0.046 C 
HETATM   10  H   UNL     1      43.358 -10.998   7.259  1.00  0.00     0.166 HD
ENDROOT
BRANCH   4  11
HETATM   11  S   UNL     1      41.465  -9.048   7.201  1.00  0.00    -0.102 SA
BRANCH  11  12
HETATM   12  C   UNL     1      41.792  -9.288   8.951  1.00  0.00     0.184 C 
BRANCH  12  13
HETATM   13  C   UNL     1      43.252  -9.235   9.373  1.00  0.00     0.231 C 
HETATM   14  N   UNL     1      43.666  -8.372  10.358  1.00  0.00    -0.324 N 
HETATM   15  H   UNL     1      44.608  -8.025  10.210  1.00  0.00     0.169 HD
HETATM   16  O   UNL     1      44.102  -9.827   8.697  1.00  0.00    -0.272 OA
BRANCH  14  17
HETATM   17  C   UNL     1      42.923  -7.728  11.365  1.00  0.00     0.070 C 
HETATM   18  C   UNL     1      42.499  -6.402  11.170  1.00  0.00     0.095 C 
HETATM   19  C   UNL     1      41.728  -5.773  12.157  1.00  0.00     0.041 C 
HETATM   20  C   UNL     1      41.446  -6.430  13.358  1.00  0.00     0.026 C 
HETATM   21  C   UNL     1      41.963  -7.699  13.587  1.00  0.00     0.036 C 
HETATM   22 CL   UNL     1      41.685  -8.481  15.093  1.00  0.00    -0.084 Cl
HETATM   23  C   UNL     1      42.715  -8.336  12.604  1.00  0.00     0.056 C 
BRANCH  18  24
HETATM   24  O   UNL     1      42.840  -5.829   9.970  1.00  0.00    -0.354 OA
HETATM   25  C   UNL     1      41.757  -5.462   9.121  1.00  0.00     0.210 C 
ENDBRANCH  18  24
ENDBRANCH  14  17
ENDBRANCH  12  13
ENDBRANCH  11  12
ENDBRANCH   4  11
BRANCH   8  26
HETATM   26  C   UNL     1      40.820 -12.016   3.454  1.00  0.00    -0.044 A 
HETATM   27  C   UNL     1      40.097 -12.697   2.455  1.00  0.00     0.008 A 
HETATM   28  C   UNL     1      40.267 -12.382   1.107  1.00  0.00     0.001 A 
HETATM   29  C   UNL     1      41.166 -11.388   0.732  1.00  0.00     0.000 A 
HETATM   30  C   UNL     1      41.898 -10.711   1.707  1.00  0.00     0.001 A 
HETATM   31  C   UNL     1      41.731 -11.023   3.059  1.00  0.00     0.008 A 
ENDBRANCH   8  26
BRANCH   9  32
HETATM   32  C   UNL     1      41.964 -14.715   5.057  1.00  0.00     0.255 C 
HETATM   33  N   UNL     1      42.992 -15.069   4.206  1.00  0.00    -0.321 N 
HETATM   34  H   UNL     1      43.430 -14.365   3.635  1.00  0.00     0.169 HD
HETATM   35  O   UNL     1      41.081 -15.491   5.420  1.00  0.00    -0.268 OA
BRANCH  33  36
HETATM   36  C   UNL     1      43.290 -16.409   3.866  1.00  0.00     0.068 A 
HETATM   37  C   UNL     1      43.987 -17.286   4.725  1.00  0.00     0.095 A 
HETATM   38  C   UNL     1      44.177 -18.615   4.332  1.00  0.00     0.039 A 
HETATM   39  C   UNL     1      43.710 -19.062   3.092  1.00  0.00     0.003 A 
HETATM   40  C   UNL     1      43.080 -18.178   2.222  1.00  0.00     0.002 A 
HETATM   41  C   UNL     1      42.887 -16.849   2.599  1.00  0.00     0.032 A 
BRANCH  37  42
HETATM   42  O   UNL     1      44.549 -16.734   5.848  1.00  0.00    -0.354 OA
HETATM   43  C   UNL     1      43.955 -17.045   7.100  1.00  0.00     0.210 C 
ENDBRANCH  37  42
ENDBRANCH  33  36
ENDBRANCH   9  32
TORSDOF 9
ENDMDL
MODEL 8
REMARK VINA RESULT:      -7.9      2.333      4.621
REMARK  9 active torsions:
REMARK  status: ('A' for Active; 'I' for Inactive)
REMARK    1  A    between atoms: C_4  and  S_5 
REMARK    2  A    between atoms: S_5  and  C_6 
REMARK    3  A    between atoms: C_6  and  C_7 
REMARK       I    between atoms: C_7  and  N_8 
REMARK    4  A    between atoms: N_8  and  C_9 
REMARK    5  A    between atoms: C_10  and  O_11 
REMARK    6  A    between atoms: C_22  and  C_23 
REMARK    7  A    between atoms: C_29  and  C_30 
REMARK       I    between atoms: C_30  and  N_31 
REMARK    8  A    between atoms: N_31  and  C_32 
REMARK    9  A    between atoms: C_33  and  O_34 
ROOT
HETATM    1  C   UNL     1      39.733 -16.113   1.121  1.00  0.00     0.069 C 
HETATM    2  C   UNL     1      40.284 -14.706   1.088  1.00  0.00     0.019 C 
HETATM    3  N   UNL     1      39.403 -13.737   0.645  1.00  0.00    -0.353 N 
HETATM    4  C   UNL     1      39.740 -12.432   0.343  1.00  0.00     0.087 C 
HETATM    5  C   UNL     1      40.967 -11.979   0.685  1.00  0.00     0.055 C 
HETATM    6  C   UNL     1      41.488 -10.615   0.262  1.00  0.00     0.019 C 
HETATM    7  N   UNL     1      41.920  -9.483  -0.090  1.00  0.00    -0.096 N 
HETATM    8  C   UNL     1      41.911 -12.863   1.505  1.00  0.00     0.104 C 
HETATM    9  C   UNL     1      41.530 -14.345   1.489  1.00  0.00     0.046 C 
HETATM   10  H   UNL     1      38.483 -14.031   0.333  1.00  0.00     0.166 HD
ENDROOT
BRANCH   4  11
HETATM   11  S   UNL     1      38.507 -11.386  -0.296  1.00  0.00    -0.102 SA
BRANCH  11  12
HETATM   12  C   UNL     1      37.357 -11.144   1.064  1.00  0.00     0.184 C 
BRANCH  12  13
HETATM   13  C   UNL     1      36.617  -9.815   1.086  1.00  0.00     0.231 C 
HETATM   14  N   UNL     1      36.926  -8.856   2.021  1.00  0.00    -0.324 N 
HETATM   15  H   UNL     1      36.121  -8.307   2.305  1.00  0.00     0.169 HD
HETATM   16  O   UNL     1      35.605  -9.671   0.389  1.00  0.00    -0.272 OA
BRANCH  14  17
HETATM   17  C   UNL     1      38.089  -8.693   2.796  1.00  0.00     0.070 C 
HETATM   18  C   UNL     1      39.266  -8.227   2.184  1.00  0.00     0.095 C 
HETATM   19  C   UNL     1      40.414  -8.030   2.963  1.00  0.00     0.041 C 
HETATM   20  C   UNL     1      40.414  -8.364   4.320  1.00  0.00     0.026 C 
HETATM   21  C   UNL     1      39.279  -8.927   4.890  1.00  0.00     0.036 C 
HETATM   22 CL   UNL     1      39.297  -9.411   6.540  1.00  0.00    -0.084 Cl
HETATM   23  C   UNL     1      38.129  -9.110   4.127  1.00  0.00     0.056 C 
BRANCH  18  24
HETATM   24  O   UNL     1      39.181  -7.946   0.844  1.00  0.00    -0.354 OA
HETATM   25  C   UNL     1      39.439  -6.596   0.469  1.00  0.00     0.210 C 
ENDBRANCH  18  24
ENDBRANCH  14  17
ENDBRANCH  12  13
ENDBRANCH  11  12
ENDBRANCH   4  11
BRANCH   8  26
HETATM   26  C   UNL     1      41.973 -12.296   2.934  1.00  0.00    -0.044 A 
HETATM   27  C   UNL     1      43.055 -11.499   3.356  1.00  0.00     0.008 A 
HETATM   28  C   UNL     1      43.138 -11.040   4.670  1.00  0.00     0.001 A 
HETATM   29  C   UNL     1      42.147 -11.377   5.588  1.00  0.00     0.000 A 
HETATM   30  C   UNL     1      41.074 -12.174   5.190  1.00  0.00     0.001 A 
HETATM   31  C   UNL     1      40.987 -12.634   3.874  1.00  0.00     0.008 A 
ENDBRANCH   8  26
BRANCH   9  32
HETATM   32  C   UNL     1      42.537 -15.403   1.845  1.00  0.00     0.255 C 
HETATM   33  N   UNL     1      42.153 -16.306   2.817  1.00  0.00    -0.321 N 
HETATM   34  H   UNL     1      41.399 -16.073   3.443  1.00  0.00     0.169 HD
HETATM   35  O   UNL     1      43.670 -15.356   1.369  1.00  0.00    -0.268 OA
BRANCH  33  36
HETATM   36  C   UNL     1      42.931 -17.429   3.184  1.00  0.00     0.068 A 
HETATM   37  C   UNL     1      43.697 -17.483   4.368  1.00  0.00     0.095 A 
HETATM   38  C   UNL     1      44.381 -18.661   4.683  1.00  0.00     0.039 A 
HETATM   39  C   UNL     1      44.333 -19.761   3.822  1.00  0.00     0.003 A 
HETATM   40  C   UNL     1      43.629 -19.681   2.624  1.00  0.00     0.002 A 
HETATM   41  C   UNL     1      42.945 -18.511   2.295  1.00  0.00     0.032 A 
BRANCH  37  42
HETATM   42  O   UNL     1      43.821 -16.315   5.078  1.00  0.00    -0.354 OA
HETATM   43  C   UNL     1      44.466 -16.380   6.341  1.00  0.00     0.210 C 
ENDBRANCH  37  42
ENDBRANCH  33  36
ENDBRANCH   9  32
TORSDOF 9
ENDMDL
MODEL 9
REMARK VINA RESULT:      -7.8      3.491      6.633
REMARK  9 active torsions:
REMARK  status: ('A' for Active; 'I' for Inactive)
REMARK    1  A    between atoms: C_4  and  S_5 
REMARK    2  A    between atoms: S_5  and  C_6 
REMARK    3  A    between atoms: C_6  and  C_7 
REMARK       I    between atoms: C_7  and  N_8 
REMARK    4  A    between atoms: N_8  and  C_9 
REMARK    5  A    between atoms: C_10  and  O_11 
REMARK    6  A    between atoms: C_22  and  C_23 
REMARK    7  A    between atoms: C_29  and  C_30 
REMARK       I    between atoms: C_30  and  N_31 
REMARK    8  A    between atoms: N_31  and  C_32 
REMARK    9  A    between atoms: C_33  and  O_34 
ROOT
HETATM    1  C   UNL     1      39.639 -16.000   1.526  1.00  0.00     0.069 C 
HETATM    2  C   UNL     1      40.249 -14.619   1.457  1.00  0.00     0.019 C 
HETATM    3  N   UNL     1      39.371 -13.600   1.140  1.00  0.00    -0.353 N 
HETATM    4  C   UNL     1      39.732 -12.304   0.827  1.00  0.00     0.087 C 
HETATM    5  C   UNL     1      41.011 -11.917   1.031  1.00  0.00     0.055 C 
HETATM    6  C   UNL     1      41.545 -10.567   0.577  1.00  0.00     0.019 C 
HETATM    7  N   UNL     1      41.987  -9.448   0.200  1.00  0.00    -0.096 N 
HETATM    8  C   UNL     1      42.001 -12.863   1.716  1.00  0.00     0.104 C 
HETATM    9  C   UNL     1      41.550 -14.326   1.715  1.00  0.00     0.046 C 
HETATM   10  H   UNL     1      38.407 -13.844   0.933  1.00  0.00     0.166 HD
ENDROOT
BRANCH   4  11
HETATM   11  S   UNL     1      38.485 -11.187   0.360  1.00  0.00    -0.102 SA
BRANCH  11  12
HETATM   12  C   UNL     1      37.555 -12.042  -0.918  1.00  0.00     0.184 C 
BRANCH  12  13
HETATM   13  C   UNL     1      38.376 -12.715  -2.007  1.00  0.00     0.231 C 
HETATM   14  N   UNL     1      38.856 -11.991  -3.072  1.00  0.00    -0.324 N 
HETATM   15  H   UNL     1      38.896 -12.530  -3.931  1.00  0.00     0.169 HD
HETATM   16  O   UNL     1      38.447 -13.949  -2.039  1.00  0.00    -0.272 OA
BRANCH  14  17
HETATM   17  C   UNL     1      39.055 -10.604  -3.204  1.00  0.00     0.070 C 
HETATM   18  C   UNL     1      37.978  -9.784  -3.586  1.00  0.00     0.095 C 
HETATM   19  C   UNL     1      38.168  -8.400  -3.682  1.00  0.00     0.041 C 
HETATM   20  C   UNL     1      39.433  -7.843  -3.475  1.00  0.00     0.026 C 
HETATM   21  C   UNL     1      40.515  -8.673  -3.206  1.00  0.00     0.036 C 
HETATM   22 CL   UNL     1      42.088  -8.002  -3.027  1.00  0.00    -0.084 Cl
HETATM   23  C   UNL     1      40.330 -10.048  -3.092  1.00  0.00     0.056 C 
BRANCH  18  24
HETATM   24  O   UNL     1      36.779 -10.419  -3.790  1.00  0.00    -0.354 OA
HETATM   25  C   UNL     1      35.632  -9.789  -3.226  1.00  0.00     0.210 C 
ENDBRANCH  18  24
ENDBRANCH  14  17
ENDBRANCH  12  13
ENDBRANCH  11  12
ENDBRANCH   4  11
BRANCH   8  26
HETATM   26  C   UNL     1      42.257 -12.336   3.139  1.00  0.00    -0.044 A 
HETATM   27  C   UNL     1      43.495 -11.767   3.494  1.00  0.00     0.008 A 
HETATM   28  C   UNL     1      43.743 -11.350   4.802  1.00  0.00     0.001 A 
HETATM   29  C   UNL     1      42.764 -11.502   5.778  1.00  0.00     0.000 A 
HETATM   30  C   UNL     1      41.536 -12.073   5.447  1.00  0.00     0.001 A 
HETATM   31  C   UNL     1      41.283 -12.492   4.138  1.00  0.00     0.008 A 
ENDBRANCH   8  26
BRANCH   9  32
HETATM   32  C   UNL     1      42.539 -15.438   1.929  1.00  0.00     0.255 C 
HETATM   33  N   UNL     1      42.200 -16.378   2.881  1.00  0.00    -0.321 N 
HETATM   34  H   UNL     1      41.511 -16.154   3.580  1.00  0.00     0.169 HD
HETATM   35  O   UNL     1      43.630 -15.404   1.362  1.00  0.00    -0.268 OA
BRANCH  33  36
HETATM   36  C   UNL     1      42.961 -17.547   3.121  1.00  0.00     0.068 A 
HETATM   37  C   UNL     1      43.828 -17.690   4.225  1.00  0.00     0.095 A 
HETATM   38  C   UNL     1      44.488 -18.908   4.420  1.00  0.00     0.039 A 
HETATM   39  C   UNL     1      44.314 -19.961   3.517  1.00  0.00     0.003 A 
HETATM   40  C   UNL     1      43.508 -19.794   2.394  1.00  0.00     0.002 A 
HETATM   41  C   UNL     1      42.848 -18.583   2.186  1.00  0.00     0.032 A 
BRANCH  37  42
HETATM   42  O   UNL     1      44.066 -16.565   4.974  1.00  0.00    -0.354 OA
HETATM   43  C   UNL     1      43.875 -16.658   6.377  1.00  0.00     0.210 C 
ENDBRANCH  37  42
ENDBRANCH  33  36
ENDBRANCH   9  32
TORSDOF 9
ENDMDL
MODEL 10
REMARK VINA RESULT:      -7.7      2.535      3.757
REMARK  9 active torsions:
REMARK  status: ('A' for Active; 'I' for Inactive)
REMARK    1  A    between atoms: C_4  and  S_5 
REMARK    2  A    between atoms: S_5  and  C_6 
REMARK    3  A    between atoms: C_6  and  C_7 
REMARK       I    between atoms: C_7  and  N_8 
REMARK    4  A    between atoms: N_8  and  C_9 
REMARK    5  A    between atoms: C_10  and  O_11 
REMARK    6  A    between atoms: C_22  and  C_23 
REMARK    7  A    between atoms: C_29  and  C_30 
REMARK       I    between atoms: C_30  and  N_31 
REMARK    8  A    between atoms: N_31  and  C_32 
REMARK    9  A    between atoms: C_33  and  O_34 
ROOT
HETATM    1  C   UNL     1      43.899 -12.066   5.253  1.00  0.00     0.069 C 
HETATM    2  C   UNL     1      42.554 -11.465   4.915  1.00  0.00     0.019 C 
HETATM    3  N   UNL     1      42.449 -10.101   5.115  1.00  0.00    -0.353 N 
HETATM    4  C   UNL     1      41.274  -9.376   5.067  1.00  0.00     0.087 C 
HETATM    5  C   UNL     1      40.157  -9.975   4.596  1.00  0.00     0.055 C 
HETATM    6  C   UNL     1      38.788  -9.317   4.647  1.00  0.00     0.019 C 
HETATM    7  N   UNL     1      37.651  -8.771   4.690  1.00  0.00    -0.096 N 
HETATM    8  C   UNL     1      40.231 -11.387   4.009  1.00  0.00     0.104 C 
HETATM    9  C   UNL     1      41.496 -12.151   4.410  1.00  0.00     0.046 C 
HETATM   10  H   UNL     1      43.246  -9.610   5.510  1.00  0.00     0.166 HD
ENDROOT
BRANCH   4  11
HETATM   11  S   UNL     1      41.333  -7.680   5.443  1.00  0.00    -0.102 SA
BRANCH  11  12
HETATM   12  C   UNL     1      41.589  -7.609   7.219  1.00  0.00     0.184 C 
BRANCH  12  13
HETATM   13  C   UNL     1      40.774  -8.585   8.053  1.00  0.00     0.231 C 
HETATM   14  N   UNL     1      41.394  -9.572   8.782  1.00  0.00    -0.324 N 
HETATM   15  H   UNL     1      40.844 -10.422   8.846  1.00  0.00     0.169 HD
HETATM   16  O   UNL     1      39.545  -8.618   7.923  1.00  0.00    -0.272 OA
BRANCH  14  17
HETATM   17  C   UNL     1      42.727  -9.665   9.224  1.00  0.00     0.070 C 
HETATM   18  C   UNL     1      43.063  -9.201  10.509  1.00  0.00     0.095 C 
HETATM   19  C   UNL     1      44.382  -9.326  10.962  1.00  0.00     0.041 C 
HETATM   20  C   UNL     1      45.374  -9.838  10.121  1.00  0.00     0.026 C 
HETATM   21  C   UNL     1      45.054 -10.192   8.816  1.00  0.00     0.036 C 
HETATM   22 CL   UNL     1      46.284 -10.750   7.751  1.00  0.00    -0.084 Cl
HETATM   23  C   UNL     1      43.742 -10.086   8.364  1.00  0.00     0.056 C 
BRANCH  18  24
HETATM   24  O   UNL     1      42.031  -8.693  11.257  1.00  0.00    -0.354 OA
HETATM   25  C   UNL     1      42.093  -7.300  11.549  1.00  0.00     0.210 C 
ENDBRANCH  18  24
ENDBRANCH  14  17
ENDBRANCH  12  13
ENDBRANCH  11  12
ENDBRANCH   4  11
BRANCH   8  26
HETATM   26  C   UNL     1      40.081 -11.277   2.482  1.00  0.00    -0.044 A 
HETATM   27  C   UNL     1      41.013 -10.559   1.708  1.00  0.00     0.008 A 
HETATM   28  C   UNL     1      40.837 -10.409   0.332  1.00  0.00     0.001 A 
HETATM   29  C   UNL     1      39.723 -10.964  -0.291  1.00  0.00     0.000 A 
HETATM   30  C   UNL     1      38.785 -11.669   0.461  1.00  0.00     0.001 A 
HETATM   31  C   UNL     1      38.958 -11.822   1.839  1.00  0.00     0.008 A 
ENDBRANCH   8  26
BRANCH   9  32
HETATM   32  C   UNL     1      41.554 -13.650   4.315  1.00  0.00     0.255 C 
HETATM   33  N   UNL     1      42.543 -14.170   3.505  1.00  0.00    -0.321 N 
HETATM   34  H   UNL     1      42.970 -13.588   2.803  1.00  0.00     0.169 HD
HETATM   35  O   UNL     1      40.675 -14.331   4.841  1.00  0.00    -0.268 OA
BRANCH  33  36
HETATM   36  C   UNL     1      42.808 -15.556   3.398  1.00  0.00     0.068 A 
HETATM   37  C   UNL     1      42.389 -16.339   2.301  1.00  0.00     0.095 A 
HETATM   38  C   UNL     1      42.756 -17.688   2.248  1.00  0.00     0.039 A 
HETATM   39  C   UNL     1      43.504 -18.261   3.281  1.00  0.00     0.003 A 
HETATM   40  C   UNL     1      43.861 -17.501   4.391  1.00  0.00     0.002 A 
HETATM   41  C   UNL     1      43.497 -16.156   4.459  1.00  0.00     0.032 A 
BRANCH  37  42
HETATM   42  O   UNL     1      41.530 -15.746   1.411  1.00  0.00    -0.354 OA
HETATM   43  C   UNL     1      40.138 -15.910   1.634  1.00  0.00     0.210 C 
ENDBRANCH  37  42
ENDBRANCH  33  36
ENDBRANCH   9  32
TORSDOF 9
ENDMDL
