MODEL 1
REMARK VINA RESULT:      -8.0      0.000      0.000
REMARK  8 active torsions:
REMARK  status: ('A' for Active; 'I' for Inactive)
REMARK    1  A    between atoms: C_2  and  N_3 
REMARK       I    between atoms: N_3  and  C_4 
REMARK    2  A    between atoms: C_4  and  C_5 
REMARK    3  A    between atoms: C_5  and  O_6 
REMARK    4  A    between atoms: O_6  and  C_7 
REMARK    5  A    between atoms: C_11  and  C_12 
REMARK    6  A    between atoms: C_12  and  N_13 
REMARK    7  A    between atoms: N_13  and  C_14 
REMARK    8  A    between atoms: C_25  and  O_26 
ROOT
HETATM    1  C   UNL     1      42.435 -11.581   6.269  1.00  0.00     0.124 A 
HETATM    2  C   UNL     1      43.434 -12.485   6.652  1.00  0.00     0.070 A 
HETATM    3 CL   UNL     1      45.010 -11.932   7.101  1.00  0.00    -0.081 Cl
HETATM    4  C   UNL     1      43.175 -13.859   6.700  1.00  0.00     0.035 A 
HETATM    5  C   UNL     1      41.916 -14.361   6.341  1.00  0.00    -0.041 A 
HETATM    6  C   UNL     1      40.914 -13.457   5.958  1.00  0.00     0.048 A 
HETATM    7  C   UNL     1      41.183 -12.086   5.895  1.00  0.00     0.103 A 
ENDROOT
BRANCH   5   8
HETATM    8  C   UNL     1      41.636 -15.844   6.396  1.00  0.00     0.131 C 
BRANCH   8   9
HETATM    9  N   UNL     1      42.354 -16.508   5.319  1.00  0.00    -0.289 NA
HETATM   10  H   UNL     1      42.336 -17.521   5.408  1.00  0.00     0.128 HD
BRANCH   9  11
HETATM   11  C   UNL     1      42.136 -16.095   3.996  1.00  0.00     0.010 A 
HETATM   12  C   UNL     1      40.869 -16.102   3.389  1.00  0.00     0.055 A 
HETATM   13  C   UNL     1      40.765 -15.592   2.113  1.00  0.00     0.065 A 
HETATM   14  C   UNL     1      41.855 -15.061   1.431  1.00  0.00     0.063 A 
HETATM   15  N   UNL     1      39.650 -15.484   1.288  1.00  0.00    -0.306 N 
HETATM   16  N   UNL     1      41.415 -14.630   0.185  1.00  0.00    -0.307 N 
HETATM   17  C   UNL     1      43.103 -15.001   1.994  1.00  0.00     0.034 A 
HETATM   18  C   UNL     1      40.039 -14.884   0.081  1.00  0.00     0.325 A 
HETATM   19  H   UNL     1      41.960 -14.190  -0.538  1.00  0.00     0.170 HD
HETATM   20  O   UNL     1      39.322 -14.630  -0.869  1.00  0.00    -0.247 OA
HETATM   21  C   UNL     1      43.228 -15.511   3.293  1.00  0.00     0.026 A 
HETATM   22  H   UNL     1      38.706 -15.765   1.493  1.00  0.00     0.170 HD
ENDBRANCH   9  11
ENDBRANCH   8   9
ENDBRANCH   5   8
BRANCH   7  23
HETATM   23  O   UNL     1      40.164 -11.258   5.502  1.00  0.00    -0.353 OA
HETATM   24  C   UNL     1      40.107 -11.192   4.076  1.00  0.00     0.210 C 
ENDBRANCH   7  23
BRANCH   1  25
HETATM   25  O   UNL     1      42.770 -10.253   6.201  1.00  0.00    -0.337 OA
BRANCH  25  26
HETATM   26  C   UNL     1      42.160  -9.439   7.206  1.00  0.00     0.278 C 
BRANCH  26  27
HETATM   27  C   UNL     1      43.171  -9.093   8.302  1.00  0.00     0.242 C 
HETATM   28  N   UNL     1      43.040  -9.848   9.449  1.00  0.00    -0.351 N 
HETATM   29  H   UNL     1      42.414 -10.646   9.371  1.00  0.00     0.163 HD
HETATM   30  O   UNL     1      43.988  -8.188   8.159  1.00  0.00    -0.271 OA
BRANCH  28  31
HETATM   31  C   UNL     1      43.908  -9.762  10.630  1.00  0.00     0.022 C 
HETATM   32  C   UNL     1      45.391  -9.713  10.229  1.00  0.00     0.037 C 
HETATM   33  C   UNL     1      43.658 -10.948  11.575  1.00  0.00     0.037 C 
HETATM   34  C   UNL     1      43.568  -8.459  11.377  1.00  0.00     0.037 C 
ENDBRANCH  28  31
ENDBRANCH  26  27
ENDBRANCH  25  26
ENDBRANCH   1  25
TORSDOF 8
ENDMDL
MODEL 2
REMARK VINA RESULT:      -7.9      3.469      6.110
REMARK  8 active torsions:
REMARK  status: ('A' for Active; 'I' for Inactive)
REMARK    1  A    between atoms: C_2  and  N_3 
REMARK       I    between atoms: N_3  and  C_4 
REMARK    2  A    between atoms: C_4  and  C_5 
REMARK    3  A    between atoms: C_5  and  O_6 
REMARK    4  A    between atoms: O_6  and  C_7 
REMARK    5  A    between atoms: C_11  and  C_12 
REMARK    6  A    between atoms: C_12  and  N_13 
REMARK    7  A    between atoms: N_13  and  C_14 
REMARK    8  A    between atoms: C_25  and  O_26 
ROOT
HETATM    1  C   UNL     1      42.531 -12.269   5.263  1.00  0.00     0.124 A 
HETATM    2  C   UNL     1      43.670 -12.559   6.024  1.00  0.00     0.070 A 
HETATM    3 CL   UNL     1      45.017 -11.476   6.061  1.00  0.00    -0.081 Cl
HETATM    4  C   UNL     1      43.738 -13.728   6.791  1.00  0.00     0.035 A 
HETATM    5  C   UNL     1      42.675 -14.643   6.793  1.00  0.00    -0.041 A 
HETATM    6  C   UNL     1      41.534 -14.353   6.031  1.00  0.00     0.048 A 
HETATM    7  C   UNL     1      41.477 -13.192   5.253  1.00  0.00     0.103 A 
ENDROOT
BRANCH   5   8
HETATM    8  C   UNL     1      42.748 -15.903   7.623  1.00  0.00     0.131 C 
BRANCH   8   9
HETATM    9  N   UNL     1      43.923 -16.667   7.234  1.00  0.00    -0.289 NA
HETATM   10  H   UNL     1      44.500 -16.926   8.032  1.00  0.00     0.128 HD
BRANCH   9  11
HETATM   11  C   UNL     1      43.780 -17.727   6.326  1.00  0.00     0.010 A 
HETATM   12  C   UNL     1      43.961 -17.580   4.941  1.00  0.00     0.055 A 
HETATM   13  C   UNL     1      43.877 -18.712   4.159  1.00  0.00     0.065 A 
HETATM   14  C   UNL     1      43.646 -19.974   4.695  1.00  0.00     0.063 A 
HETATM   15  N   UNL     1      44.007 -18.851   2.781  1.00  0.00    -0.306 N 
HETATM   16  N   UNL     1      43.628 -20.889   3.650  1.00  0.00    -0.307 N 
HETATM   17  C   UNL     1      43.496 -20.172   6.043  1.00  0.00     0.034 A 
HETATM   18  C   UNL     1      43.856 -20.205   2.448  1.00  0.00     0.325 A 
HETATM   19  H   UNL     1      43.495 -21.886   3.711  1.00  0.00     0.170 HD
HETATM   20  O   UNL     1      43.914 -20.690   1.333  1.00  0.00    -0.247 OA
HETATM   21  C   UNL     1      43.582 -19.033   6.856  1.00  0.00     0.026 A 
HETATM   22  H   UNL     1      44.193 -18.127   2.106  1.00  0.00     0.170 HD
ENDBRANCH   9  11
ENDBRANCH   8   9
ENDBRANCH   5   8
BRANCH   7  23
HETATM   23  O   UNL     1      40.339 -12.973   4.523  1.00  0.00    -0.353 OA
HETATM   24  C   UNL     1      39.298 -12.481   5.370  1.00  0.00     0.210 C 
ENDBRANCH   7  23
BRANCH   1  25
HETATM   25  O   UNL     1      42.549 -11.128   4.500  1.00  0.00    -0.337 OA
BRANCH  25  26
HETATM   26  C   UNL     1      43.110 -11.300   3.197  1.00  0.00     0.278 C 
BRANCH  26  27
HETATM   27  C   UNL     1      42.014 -11.246   2.130  1.00  0.00     0.242 C 
HETATM   28  N   UNL     1      41.579 -12.484   1.704  1.00  0.00    -0.351 N 
HETATM   29  H   UNL     1      41.908 -13.271   2.259  1.00  0.00     0.163 HD
HETATM   30  O   UNL     1      41.606 -10.178   1.681  1.00  0.00    -0.271 OA
BRANCH  28  31
HETATM   31  C   UNL     1      40.505 -12.724   0.732  1.00  0.00     0.022 C 
HETATM   32  C   UNL     1      40.861 -12.143  -0.645  1.00  0.00     0.037 C 
HETATM   33  C   UNL     1      39.180 -12.125   1.230  1.00  0.00     0.037 C 
HETATM   34  C   UNL     1      40.329 -14.246   0.582  1.00  0.00     0.037 C 
ENDBRANCH  28  31
ENDBRANCH  26  27
ENDBRANCH  25  26
ENDBRANCH   1  25
TORSDOF 8
ENDMDL
MODEL 3
REMARK VINA RESULT:      -7.8      3.158      4.346
REMARK  8 active torsions:
REMARK  status: ('A' for Active; 'I' for Inactive)
REMARK    1  A    between atoms: C_2  and  N_3 
REMARK       I    between atoms: N_3  and  C_4 
REMARK    2  A    between atoms: C_4  and  C_5 
REMARK    3  A    between atoms: C_5  and  O_6 
REMARK    4  A    between atoms: O_6  and  C_7 
REMARK    5  A    between atoms: C_11  and  C_12 
REMARK    6  A    between atoms: C_12  and  N_13 
REMARK    7  A    between atoms: N_13  and  C_14 
REMARK    8  A    between atoms: C_25  and  O_26 
ROOT
HETATM    1  C   UNL     1      43.482 -10.385   7.985  1.00  0.00     0.124 A 
HETATM    2  C   UNL     1      42.260 -10.508   7.312  1.00  0.00     0.070 A 
HETATM    3 CL   UNL     1      40.934  -9.458   7.675  1.00  0.00    -0.081 Cl
HETATM    4  C   UNL     1      42.087 -11.473   6.314  1.00  0.00     0.035 A 
HETATM    5  C   UNL     1      43.128 -12.353   5.984  1.00  0.00    -0.041 A 
HETATM    6  C   UNL     1      44.353 -12.231   6.656  1.00  0.00     0.048 A 
HETATM    7  C   UNL     1      44.515 -11.276   7.665  1.00  0.00     0.103 A 
ENDROOT
BRANCH   5   8
HETATM    8  C   UNL     1      42.942 -13.392   4.904  1.00  0.00     0.131 C 
BRANCH   8   9
HETATM    9  N   UNL     1      43.234 -14.709   5.450  1.00  0.00    -0.289 NA
HETATM   10  H   UNL     1      42.687 -14.913   6.283  1.00  0.00     0.128 HD
BRANCH   9  11
HETATM   11  C   UNL     1      43.297 -15.810   4.583  1.00  0.00     0.010 A 
HETATM   12  C   UNL     1      43.747 -17.078   4.986  1.00  0.00     0.055 A 
HETATM   13  C   UNL     1      43.683 -18.104   4.067  1.00  0.00     0.065 A 
HETATM   14  C   UNL     1      43.174 -17.927   2.785  1.00  0.00     0.063 A 
HETATM   15  N   UNL     1      44.061 -19.437   4.197  1.00  0.00    -0.306 N 
HETATM   16  N   UNL     1      43.242 -19.146   2.122  1.00  0.00    -0.307 N 
HETATM   17  C   UNL     1      42.693 -16.716   2.357  1.00  0.00     0.034 A 
HETATM   18  C   UNL     1      43.790 -20.100   2.991  1.00  0.00     0.325 A 
HETATM   19  H   UNL     1      42.942 -19.350   1.183  1.00  0.00     0.170 HD
HETATM   20  O   UNL     1      43.990 -21.276   2.748  1.00  0.00    -0.247 OA
HETATM   21  C   UNL     1      42.746 -15.661   3.278  1.00  0.00     0.026 A 
HETATM   22  H   UNL     1      44.452 -19.887   5.008  1.00  0.00     0.170 HD
ENDBRANCH   9  11
ENDBRANCH   8   9
ENDBRANCH   5   8
BRANCH   7  23
HETATM   23  O   UNL     1      45.733 -11.216   8.292  1.00  0.00    -0.353 OA
HETATM   24  C   UNL     1      46.600 -10.319   7.596  1.00  0.00     0.210 C 
ENDBRANCH   7  23
BRANCH   1  25
HETATM   25  O   UNL     1      43.568  -9.448   8.983  1.00  0.00    -0.337 OA
BRANCH  25  26
HETATM   26  C   UNL     1      43.489  -9.985  10.305  1.00  0.00     0.278 C 
BRANCH  26  27
HETATM   27  C   UNL     1      42.394  -9.277  11.107  1.00  0.00     0.242 C 
HETATM   28  N   UNL     1      41.423 -10.122  11.603  1.00  0.00    -0.351 N 
HETATM   29  H   UNL     1      41.634 -11.114  11.527  1.00  0.00     0.163 HD
HETATM   30  O   UNL     1      42.385  -8.057  11.244  1.00  0.00    -0.271 OA
BRANCH  28  31
HETATM   31  C   UNL     1      40.292  -9.718  12.449  1.00  0.00     0.022 C 
HETATM   32  C   UNL     1      40.778  -9.073  13.756  1.00  0.00     0.037 C 
HETATM   33  C   UNL     1      39.390 -10.922  12.759  1.00  0.00     0.037 C 
HETATM   34  C   UNL     1      39.468  -8.674  11.674  1.00  0.00     0.037 C 
ENDBRANCH  28  31
ENDBRANCH  26  27
ENDBRANCH  25  26
ENDBRANCH   1  25
TORSDOF 8
ENDMDL
MODEL 4
REMARK VINA RESULT:      -7.8      2.832      3.815
REMARK  8 active torsions:
REMARK  status: ('A' for Active; 'I' for Inactive)
REMARK    1  A    between atoms: C_2  and  N_3 
REMARK       I    between atoms: N_3  and  C_4 
REMARK    2  A    between atoms: C_4  and  C_5 
REMARK    3  A    between atoms: C_5  and  O_6 
REMARK    4  A    between atoms: O_6  and  C_7 
REMARK    5  A    between atoms: C_11  and  C_12 
REMARK    6  A    between atoms: C_12  and  N_13 
REMARK    7  A    between atoms: N_13  and  C_14 
REMARK    8  A    between atoms: C_25  and  O_26 
ROOT
HETATM    1  C   UNL     1      41.102 -10.338   6.451  1.00  0.00     0.124 A 
HETATM    2  C   UNL     1      39.933 -10.732   5.788  1.00  0.00     0.070 A 
HETATM    3 CL   UNL     1      38.535  -9.714   5.766  1.00  0.00    -0.081 Cl
HETATM    4  C   UNL     1      39.873 -11.954   5.109  1.00  0.00     0.035 A 
HETATM    5  C   UNL     1      40.976 -12.820   5.100  1.00  0.00    -0.041 A 
HETATM    6  C   UNL     1      42.148 -12.426   5.763  1.00  0.00     0.048 A 
HETATM    7  C   UNL     1      42.197 -11.212   6.454  1.00  0.00     0.103 A 
ENDROOT
BRANCH   5   8
HETATM    8  C   UNL     1      40.912 -14.138   4.364  1.00  0.00     0.131 C 
BRANCH   8   9
HETATM    9  N   UNL     1      42.233 -14.462   3.847  1.00  0.00    -0.289 NA
HETATM   10  H   UNL     1      42.946 -13.810   4.167  1.00  0.00     0.128 HD
BRANCH   9  11
HETATM   11  C   UNL     1      42.679 -15.791   3.897  1.00  0.00     0.010 A 
HETATM   12  C   UNL     1      42.508 -16.698   2.837  1.00  0.00     0.055 A 
HETATM   13  C   UNL     1      43.065 -17.951   2.969  1.00  0.00     0.065 A 
HETATM   14  C   UNL     1      43.797 -18.329   4.090  1.00  0.00     0.063 A 
HETATM   15  N   UNL     1      43.043 -19.029   2.090  1.00  0.00    -0.306 N 
HETATM   16  N   UNL     1      44.222 -19.639   3.905  1.00  0.00    -0.307 N 
HETATM   17  C   UNL     1      44.019 -17.469   5.133  1.00  0.00     0.034 A 
HETATM   18  C   UNL     1      43.763 -20.090   2.659  1.00  0.00     0.325 A 
HETATM   19  H   UNL     1      44.782 -20.195   4.531  1.00  0.00     0.170 HD
HETATM   20  O   UNL     1      43.954 -21.186   2.167  1.00  0.00    -0.247 OA
HETATM   21  C   UNL     1      43.464 -16.187   5.017  1.00  0.00     0.026 A 
HETATM   22  H   UNL     1      42.608 -19.072   1.183  1.00  0.00     0.170 HD
ENDBRANCH   9  11
ENDBRANCH   8   9
ENDBRANCH   5   8
BRANCH   7  23
HETATM   23  O   UNL     1      43.367 -10.892   7.091  1.00  0.00    -0.353 OA
HETATM   24  C   UNL     1      44.281 -11.988   7.022  1.00  0.00     0.210 C 
ENDBRANCH   7  23
BRANCH   1  25
HETATM   25  O   UNL     1      41.077  -9.148   7.133  1.00  0.00    -0.337 OA
BRANCH  25  26
HETATM   26  C   UNL     1      40.716  -9.267   8.511  1.00  0.00     0.278 C 
BRANCH  26  27
HETATM   27  C   UNL     1      41.888  -8.863   9.409  1.00  0.00     0.242 C 
HETATM   28  N   UNL     1      42.460  -9.915  10.096  1.00  0.00    -0.351 N 
HETATM   29  H   UNL     1      42.155 -10.839   9.801  1.00  0.00     0.163 HD
HETATM   30  O   UNL     1      42.240  -7.692   9.520  1.00  0.00    -0.271 OA
BRANCH  28  31
HETATM   31  C   UNL     1      43.628  -9.821  10.981  1.00  0.00     0.022 C 
HETATM   32  C   UNL     1      43.469  -8.675  11.992  1.00  0.00     0.037 C 
HETATM   33  C   UNL     1      44.914  -9.627  10.163  1.00  0.00     0.037 C 
HETATM   34  C   UNL     1      43.739 -11.142  11.764  1.00  0.00     0.037 C 
ENDBRANCH  28  31
ENDBRANCH  26  27
ENDBRANCH  25  26
ENDBRANCH   1  25
TORSDOF 8
ENDMDL
MODEL 5
REMARK VINA RESULT:      -7.8      2.879      4.002
REMARK  8 active torsions:
REMARK  status: ('A' for Active; 'I' for Inactive)
REMARK    1  A    between atoms: C_2  and  N_3 
REMARK       I    between atoms: N_3  and  C_4 
REMARK    2  A    between atoms: C_4  and  C_5 
REMARK    3  A    between atoms: C_5  and  O_6 
REMARK    4  A    between atoms: O_6  and  C_7 
REMARK    5  A    between atoms: C_11  and  C_12 
REMARK    6  A    between atoms: C_12  and  N_13 
REMARK    7  A    between atoms: N_13  and  C_14 
REMARK    8  A    between atoms: C_25  and  O_26 
ROOT
HETATM    1  C   UNL     1      43.996 -10.306   7.654  1.00  0.00     0.124 A 
HETATM    2  C   UNL     1      45.055 -10.872   6.932  1.00  0.00     0.070 A 
HETATM    3 CL   UNL     1      46.677 -10.803   7.528  1.00  0.00    -0.081 Cl
HETATM    4  C   UNL     1      44.822 -11.525   5.717  1.00  0.00     0.035 A 
HETATM    5  C   UNL     1      43.526 -11.605   5.186  1.00  0.00    -0.041 A 
HETATM    6  C   UNL     1      42.466 -11.040   5.909  1.00  0.00     0.048 A 
HETATM    7  C   UNL     1      42.706 -10.373   7.114  1.00  0.00     0.103 A 
ENDROOT
BRANCH   5   8
HETATM    8  C   UNL     1      43.275 -12.314   3.876  1.00  0.00     0.131 C 
BRANCH   8   9
HETATM    9  N   UNL     1      42.380 -13.438   4.103  1.00  0.00    -0.289 NA
HETATM   10  H   UNL     1      41.461 -13.291   3.691  1.00  0.00     0.128 HD
BRANCH   9  11
HETATM   11  C   UNL     1      42.849 -14.742   3.885  1.00  0.00     0.010 A 
HETATM   12  C   UNL     1      43.152 -15.633   4.928  1.00  0.00     0.055 A 
HETATM   13  C   UNL     1      43.523 -16.916   4.589  1.00  0.00     0.065 A 
HETATM   14  C   UNL     1      43.584 -17.351   3.269  1.00  0.00     0.063 A 
HETATM   15  N   UNL     1      43.878 -17.984   5.408  1.00  0.00    -0.306 N 
HETATM   16  N   UNL     1      43.979 -18.683   3.273  1.00  0.00    -0.307 N 
HETATM   17  C   UNL     1      43.266 -16.529   2.220  1.00  0.00     0.034 A 
HETATM   18  C   UNL     1      44.163 -19.095   4.601  1.00  0.00     0.325 A 
HETATM   19  H   UNL     1      44.105 -19.287   2.477  1.00  0.00     0.170 HD
HETATM   20  O   UNL     1      44.502 -20.200   4.980  1.00  0.00    -0.247 OA
HETATM   21  C   UNL     1      42.881 -15.221   2.544  1.00  0.00     0.026 A 
HETATM   22  H   UNL     1      43.919 -17.997   6.413  1.00  0.00     0.170 HD
ENDBRANCH   9  11
ENDBRANCH   8   9
ENDBRANCH   5   8
BRANCH   7  23
HETATM   23  O   UNL     1      41.628  -9.832   7.765  1.00  0.00    -0.353 OA
HETATM   24  C   UNL     1      40.447  -9.989   6.975  1.00  0.00     0.210 C 
ENDBRANCH   7  23
BRANCH   1  25
HETATM   25  O   UNL     1      44.301  -9.642   8.815  1.00  0.00    -0.337 OA
BRANCH  25  26
HETATM   26  C   UNL     1      44.146 -10.426  10.000  1.00  0.00     0.278 C 
BRANCH  26  27
HETATM   27  C   UNL     1      43.178  -9.744  10.971  1.00  0.00     0.242 C 
HETATM   28  N   UNL     1      41.848 -10.009  10.719  1.00  0.00    -0.351 N 
HETATM   29  H   UNL     1      41.676 -10.746  10.039  1.00  0.00     0.163 HD
HETATM   30  O   UNL     1      43.578  -9.000  11.861  1.00  0.00    -0.271 OA
BRANCH  28  31
HETATM   31  C   UNL     1      40.716  -9.531  11.523  1.00  0.00     0.022 C 
HETATM   32  C   UNL     1      40.665  -7.995  11.554  1.00  0.00     0.037 C 
HETATM   33  C   UNL     1      40.794 -10.085  12.953  1.00  0.00     0.037 C 
HETATM   34  C   UNL     1      39.418 -10.041  10.869  1.00  0.00     0.037 C 
ENDBRANCH  28  31
ENDBRANCH  26  27
ENDBRANCH  25  26
ENDBRANCH   1  25
TORSDOF 8
ENDMDL
MODEL 6
REMARK VINA RESULT:      -7.6      2.640      3.358
REMARK  8 active torsions:
REMARK  status: ('A' for Active; 'I' for Inactive)
REMARK    1  A    between atoms: C_2  and  N_3 
REMARK       I    between atoms: N_3  and  C_4 
REMARK    2  A    between atoms: C_4  and  C_5 
REMARK    3  A    between atoms: C_5  and  O_6 
REMARK    4  A    between atoms: O_6  and  C_7 
REMARK    5  A    between atoms: C_11  and  C_12 
REMARK    6  A    between atoms: C_12  and  N_13 
REMARK    7  A    between atoms: N_13  and  C_14 
REMARK    8  A    between atoms: C_25  and  O_26 
ROOT
HETATM    1  C   UNL     1      40.842 -10.308   6.770  1.00  0.00     0.124 A 
HETATM    2  C   UNL     1      42.083 -10.923   6.565  1.00  0.00     0.070 A 
HETATM    3 CL   UNL     1      43.534 -10.241   7.214  1.00  0.00    -0.081 Cl
HETATM    4  C   UNL     1      42.178 -12.117   5.842  1.00  0.00     0.035 A 
HETATM    5  C   UNL     1      41.034 -12.710   5.289  1.00  0.00    -0.041 A 
HETATM    6  C   UNL     1      39.790 -12.096   5.496  1.00  0.00     0.048 A 
HETATM    7  C   UNL     1      39.702 -10.893   6.203  1.00  0.00     0.103 A 
ENDROOT
BRANCH   5   8
HETATM    8  C   UNL     1      41.137 -14.002   4.513  1.00  0.00     0.131 C 
BRANCH   8   9
HETATM    9  N   UNL     1      42.540 -14.345   4.338  1.00  0.00    -0.289 NA
HETATM   10  H   UNL     1      43.146 -13.835   4.976  1.00  0.00     0.128 HD
BRANCH   9  11
HETATM   11  C   UNL     1      42.905 -15.695   4.235  1.00  0.00     0.010 A 
HETATM   12  C   UNL     1      42.623 -16.483   3.106  1.00  0.00     0.055 A 
HETATM   13  C   UNL     1      43.108 -17.772   3.085  1.00  0.00     0.065 A 
HETATM   14  C   UNL     1      43.874 -18.299   4.120  1.00  0.00     0.063 A 
HETATM   15  N   UNL     1      42.973 -18.756   2.110  1.00  0.00    -0.306 N 
HETATM   16  N   UNL     1      44.208 -19.606   3.787  1.00  0.00    -0.307 N 
HETATM   17  C   UNL     1      44.204 -17.559   5.226  1.00  0.00     0.034 A 
HETATM   18  C   UNL     1      43.656 -19.906   2.534  1.00  0.00     0.325 A 
HETATM   19  H   UNL     1      44.764 -20.251   4.324  1.00  0.00     0.170 HD
HETATM   20  O   UNL     1      43.752 -20.958   1.929  1.00  0.00    -0.247 OA
HETATM   21  C   UNL     1      43.723 -16.243   5.264  1.00  0.00     0.026 A 
HETATM   22  H   UNL     1      42.488 -18.686   1.231  1.00  0.00     0.170 HD
ENDBRANCH   9  11
ENDBRANCH   8   9
ENDBRANCH   5   8
BRANCH   7  23
HETATM   23  O   UNL     1      38.459 -10.339   6.359  1.00  0.00    -0.353 OA
HETATM   24  C   UNL     1      38.157  -9.489   5.250  1.00  0.00     0.210 C 
ENDBRANCH   7  23
BRANCH   1  25
HETATM   25  O   UNL     1      40.826  -9.116   7.449  1.00  0.00    -0.337 OA
BRANCH  25  26
HETATM   26  C   UNL     1      40.454  -9.226   8.824  1.00  0.00     0.278 C 
BRANCH  26  27
HETATM   27  C   UNL     1      41.624  -8.830   9.729  1.00  0.00     0.242 C 
HETATM   28  N   UNL     1      42.130  -9.869  10.482  1.00  0.00    -0.351 N 
HETATM   29  H   UNL     1      41.789 -10.793  10.228  1.00  0.00     0.163 HD
HETATM   30  O   UNL     1      42.026  -7.671   9.789  1.00  0.00    -0.271 OA
BRANCH  28  31
HETATM   31  C   UNL     1      43.281  -9.782  11.390  1.00  0.00     0.022 C 
HETATM   32  C   UNL     1      43.617 -11.153  11.997  1.00  0.00     0.037 C 
HETATM   33  C   UNL     1      43.015  -8.762  12.508  1.00  0.00     0.037 C 
HETATM   34  C   UNL     1      44.497  -9.307  10.573  1.00  0.00     0.037 C 
ENDBRANCH  28  31
ENDBRANCH  26  27
ENDBRANCH  25  26
ENDBRANCH   1  25
TORSDOF 8
ENDMDL
MODEL 7
REMARK VINA RESULT:      -7.5      2.658      3.432
REMARK  8 active torsions:
REMARK  status: ('A' for Active; 'I' for Inactive)
REMARK    1  A    between atoms: C_2  and  N_3 
REMARK       I    between atoms: N_3  and  C_4 
REMARK    2  A    between atoms: C_4  and  C_5 
REMARK    3  A    between atoms: C_5  and  O_6 
REMARK    4  A    between atoms: O_6  and  C_7 
REMARK    5  A    between atoms: C_11  and  C_12 
REMARK    6  A    between atoms: C_12  and  N_13 
REMARK    7  A    between atoms: N_13  and  C_14 
REMARK    8  A    between atoms: C_25  and  O_26 
ROOT
HETATM    1  C   UNL     1      43.310 -10.165   7.209  1.00  0.00     0.124 A 
HETATM    2  C   UNL     1      44.503 -10.881   7.368  1.00  0.00     0.070 A 
HETATM    3 CL   UNL     1      45.911 -10.131   8.036  1.00  0.00    -0.081 Cl
HETATM    4  C   UNL     1      44.580 -12.230   7.004  1.00  0.00     0.035 A 
HETATM    5  C   UNL     1      43.470 -12.886   6.453  1.00  0.00    -0.041 A 
HETATM    6  C   UNL     1      42.274 -12.170   6.295  1.00  0.00     0.048 A 
HETATM    7  C   UNL     1      42.207 -10.817   6.643  1.00  0.00     0.103 A 
ENDROOT
BRANCH   5   8
HETATM    8  C   UNL     1      43.553 -14.343   6.065  1.00  0.00     0.131 C 
BRANCH   8   9
HETATM    9  N   UNL     1      42.956 -14.524   4.751  1.00  0.00    -0.289 NA
HETATM   10  H   UNL     1      43.100 -13.719   4.145  1.00  0.00     0.128 HD
BRANCH   9  11
HETATM   11  C   UNL     1      43.156 -15.734   4.070  1.00  0.00     0.010 A 
HETATM   12  C   UNL     1      43.488 -16.934   4.719  1.00  0.00     0.055 A 
HETATM   13  C   UNL     1      43.575 -18.076   3.953  1.00  0.00     0.065 A 
HETATM   14  C   UNL     1      43.326 -18.078   2.584  1.00  0.00     0.063 A 
HETATM   15  N   UNL     1      43.887 -19.378   4.332  1.00  0.00    -0.306 N 
HETATM   16  N   UNL     1      43.489 -19.377   2.119  1.00  0.00    -0.307 N 
HETATM   17  C   UNL     1      42.966 -16.939   1.913  1.00  0.00     0.034 A 
HETATM   18  C   UNL     1      43.836 -20.202   3.198  1.00  0.00     0.325 A 
HETATM   19  H   UNL     1      43.369 -19.708   1.176  1.00  0.00     0.170 HD
HETATM   20  O   UNL     1      44.049 -21.400   3.160  1.00  0.00    -0.247 OA
HETATM   21  C   UNL     1      42.869 -15.767   2.675  1.00  0.00     0.026 A 
HETATM   22  H   UNL     1      44.104 -19.712   5.257  1.00  0.00     0.170 HD
ENDBRANCH   9  11
ENDBRANCH   8   9
ENDBRANCH   5   8
BRANCH   7  23
HETATM   23  O   UNL     1      41.013 -10.172   6.452  1.00  0.00    -0.353 OA
HETATM   24  C   UNL     1      39.949 -11.122   6.373  1.00  0.00     0.210 C 
ENDBRANCH   7  23
BRANCH   1  25
HETATM   25  O   UNL     1      43.317  -8.834   7.544  1.00  0.00    -0.337 OA
BRANCH  25  26
HETATM   26  C   UNL     1      42.365  -8.474   8.547  1.00  0.00     0.278 C 
BRANCH  26  27
HETATM   27  C   UNL     1      42.930  -8.742   9.944  1.00  0.00     0.242 C 
HETATM   28  N   UNL     1      42.005  -9.241  10.839  1.00  0.00    -0.351 N 
HETATM   29  H   UNL     1      41.120  -9.528  10.430  1.00  0.00     0.163 HD
HETATM   30  O   UNL     1      44.097  -8.487  10.225  1.00  0.00    -0.271 OA
BRANCH  28  31
HETATM   31  C   UNL     1      42.288  -9.635  12.225  1.00  0.00     0.022 C 
HETATM   32  C   UNL     1      42.850  -8.457  13.035  1.00  0.00     0.037 C 
HETATM   33  C   UNL     1      43.269 -10.817  12.264  1.00  0.00     0.037 C 
HETATM   34  C   UNL     1      40.963 -10.076  12.874  1.00  0.00     0.037 C 
ENDBRANCH  28  31
ENDBRANCH  26  27
ENDBRANCH  25  26
ENDBRANCH   1  25
TORSDOF 8
ENDMDL
MODEL 8
REMARK VINA RESULT:      -7.5      3.695      7.516
REMARK  8 active torsions:
REMARK  status: ('A' for Active; 'I' for Inactive)
REMARK    1  A    between atoms: C_2  and  N_3 
REMARK       I    between atoms: N_3  and  C_4 
REMARK    2  A    between atoms: C_4  and  C_5 
REMARK    3  A    between atoms: C_5  and  O_6 
REMARK    4  A    between atoms: O_6  and  C_7 
REMARK    5  A    between atoms: C_11  and  C_12 
REMARK    6  A    between atoms: C_12  and  N_13 
REMARK    7  A    between atoms: N_13  and  C_14 
REMARK    8  A    between atoms: C_25  and  O_26 
ROOT
HETATM    1  C   UNL     1      41.486 -13.386   3.706  1.00  0.00     0.124 A 
HETATM    2  C   UNL     1      40.801 -14.585   3.943  1.00  0.00     0.070 A 
HETATM    3 CL   UNL     1      39.592 -15.152   2.845  1.00  0.00    -0.081 Cl
HETATM    4  C   UNL     1      41.092 -15.364   5.068  1.00  0.00     0.035 A 
HETATM    5  C   UNL     1      42.061 -14.948   5.994  1.00  0.00    -0.041 A 
HETATM    6  C   UNL     1      42.748 -13.749   5.757  1.00  0.00     0.048 A 
HETATM    7  C   UNL     1      42.441 -12.964   4.640  1.00  0.00     0.103 A 
ENDROOT
BRANCH   5   8
HETATM    8  C   UNL     1      42.378 -15.792   7.205  1.00  0.00     0.131 C 
BRANCH   8   9
HETATM    9  N   UNL     1      43.622 -16.509   6.977  1.00  0.00    -0.289 NA
HETATM   10  H   UNL     1      44.156 -16.643   7.834  1.00  0.00     0.128 HD
BRANCH   9  11
HETATM   11  C   UNL     1      43.610 -17.666   6.183  1.00  0.00     0.010 A 
HETATM   12  C   UNL     1      43.810 -17.644   4.793  1.00  0.00     0.055 A 
HETATM   13  C   UNL     1      43.861 -18.853   4.133  1.00  0.00     0.065 A 
HETATM   14  C   UNL     1      43.744 -20.071   4.795  1.00  0.00     0.063 A 
HETATM   15  N   UNL     1      44.039 -19.118   2.779  1.00  0.00    -0.306 N 
HETATM   16  N   UNL     1      43.846 -21.085   3.851  1.00  0.00    -0.307 N 
HETATM   17  C   UNL     1      43.582 -20.144   6.154  1.00  0.00     0.034 A 
HETATM   18  C   UNL     1      44.034 -20.507   2.587  1.00  0.00     0.325 A 
HETATM   19  H   UNL     1      43.812 -22.078   4.014  1.00  0.00     0.170 HD
HETATM   20  O   UNL     1      44.169 -21.096   1.530  1.00  0.00    -0.247 OA
HETATM   21  C   UNL     1      43.531 -18.925   6.845  1.00  0.00     0.026 A 
HETATM   22  H   UNL     1      44.168 -18.451   2.035  1.00  0.00     0.170 HD
ENDBRANCH   9  11
ENDBRANCH   8   9
ENDBRANCH   5   8
BRANCH   7  23
HETATM   23  O   UNL     1      43.141 -11.798   4.474  1.00  0.00    -0.353 OA
HETATM   24  C   UNL     1      42.478 -10.726   5.147  1.00  0.00     0.210 C 
ENDBRANCH   7  23
BRANCH   1  25
HETATM   25  O   UNL     1      41.119 -12.650   2.609  1.00  0.00    -0.337 OA
BRANCH  25  26
HETATM   26  C   UNL     1      41.820 -12.990   1.410  1.00  0.00     0.278 C 
BRANCH  26  27
HETATM   27  C   UNL     1      41.022 -12.549   0.180  1.00  0.00     0.242 C 
HETATM   28  N   UNL     1      40.455 -13.591  -0.526  1.00  0.00    -0.351 N 
HETATM   29  H   UNL     1      40.487 -14.495  -0.061  1.00  0.00     0.163 HD
HETATM   30  O   UNL     1      40.947 -11.369  -0.149  1.00  0.00    -0.271 OA
BRANCH  28  31
HETATM   31  C   UNL     1      39.598 -13.451  -1.710  1.00  0.00     0.022 C 
HETATM   32  C   UNL     1      40.377 -12.855  -2.893  1.00  0.00     0.037 C 
HETATM   33  C   UNL     1      38.373 -12.580  -1.393  1.00  0.00     0.037 C 
HETATM   34  C   UNL     1      39.111 -14.855  -2.114  1.00  0.00     0.037 C 
ENDBRANCH  28  31
ENDBRANCH  26  27
ENDBRANCH  25  26
ENDBRANCH   1  25
TORSDOF 8
ENDMDL
MODEL 9
REMARK VINA RESULT:      -7.5      2.741      9.461
REMARK  8 active torsions:
REMARK  status: ('A' for Active; 'I' for Inactive)
REMARK    1  A    between atoms: C_2  and  N_3 
REMARK       I    between atoms: N_3  and  C_4 
REMARK    2  A    between atoms: C_4  and  C_5 
REMARK    3  A    between atoms: C_5  and  O_6 
REMARK    4  A    between atoms: O_6  and  C_7 
REMARK    5  A    between atoms: C_11  and  C_12 
REMARK    6  A    between atoms: C_12  and  N_13 
REMARK    7  A    between atoms: N_13  and  C_14 
REMARK    8  A    between atoms: C_25  and  O_26 
ROOT
HETATM    1  C   UNL     1      40.557 -14.937   3.132  1.00  0.00     0.124 A 
HETATM    2  C   UNL     1      40.573 -13.638   3.657  1.00  0.00     0.070 A 
HETATM    3 CL   UNL     1      39.314 -12.512   3.284  1.00  0.00    -0.081 Cl
HETATM    4  C   UNL     1      41.600 -13.225   4.512  1.00  0.00     0.035 A 
HETATM    5  C   UNL     1      42.648 -14.096   4.842  1.00  0.00    -0.041 A 
HETATM    6  C   UNL     1      42.633 -15.397   4.318  1.00  0.00     0.048 A 
HETATM    7  C   UNL     1      41.614 -15.800   3.450  1.00  0.00     0.103 A 
ENDROOT
BRANCH   5   8
HETATM    8  C   UNL     1      43.755 -13.651   5.768  1.00  0.00     0.131 C 
BRANCH   8   9
HETATM    9  N   UNL     1      43.942 -12.214   5.634  1.00  0.00    -0.289 NA
HETATM   10  H   UNL     1      43.198 -11.774   5.097  1.00  0.00     0.128 HD
BRANCH   9  11
HETATM   11  C   UNL     1      44.284 -11.461   6.767  1.00  0.00     0.010 A 
HETATM   12  C   UNL     1      43.362 -11.124   7.772  1.00  0.00     0.055 A 
HETATM   13  C   UNL     1      43.835 -10.454   8.879  1.00  0.00     0.065 A 
HETATM   14  C   UNL     1      45.178 -10.128   9.037  1.00  0.00     0.063 A 
HETATM   15  N   UNL     1      43.150 -10.000  10.002  1.00  0.00    -0.306 N 
HETATM   16  N   UNL     1      45.322  -9.471  10.253  1.00  0.00    -0.307 N 
HETATM   17  C   UNL     1      46.120 -10.465   8.101  1.00  0.00     0.034 A 
HETATM   18  C   UNL     1      44.065  -9.386  10.870  1.00  0.00     0.325 A 
HETATM   19  H   UNL     1      46.171  -9.117  10.661  1.00  0.00     0.170 HD
HETATM   20  O   UNL     1      43.817  -8.881  11.949  1.00  0.00    -0.247 OA
HETATM   21  C   UNL     1      45.660 -11.151   6.968  1.00  0.00     0.026 A 
HETATM   22  H   UNL     1      42.168 -10.093  10.200  1.00  0.00     0.170 HD
ENDBRANCH   9  11
ENDBRANCH   8   9
ENDBRANCH   5   8
BRANCH   7  23
HETATM   23  O   UNL     1      41.664 -17.081   2.964  1.00  0.00    -0.353 OA
HETATM   24  C   UNL     1      42.990 -17.389   2.528  1.00  0.00     0.210 C 
ENDBRANCH   7  23
BRANCH   1  25
HETATM   25  O   UNL     1      39.545 -15.261   2.265  1.00  0.00    -0.337 OA
BRANCH  25  26
HETATM   26  C   UNL     1      39.989 -15.706   0.981  1.00  0.00     0.278 C 
BRANCH  26  27
HETATM   27  C   UNL     1      39.899 -14.570  -0.041  1.00  0.00     0.242 C 
HETATM   28  N   UNL     1      39.165 -14.882  -1.167  1.00  0.00    -0.351 N 
HETATM   29  H   UNL     1      38.638 -15.749  -1.111  1.00  0.00     0.163 HD
HETATM   30  O   UNL     1      40.475 -13.500   0.135  1.00  0.00    -0.271 OA
BRANCH  28  31
HETATM   31  C   UNL     1      38.874 -13.964  -2.276  1.00  0.00     0.022 C 
HETATM   32  C   UNL     1      40.162 -13.327  -2.823  1.00  0.00     0.037 C 
HETATM   33  C   UNL     1      37.892 -12.870  -1.831  1.00  0.00     0.037 C 
HETATM   34  C   UNL     1      38.222 -14.778  -3.409  1.00  0.00     0.037 C 
ENDBRANCH  28  31
ENDBRANCH  26  27
ENDBRANCH  25  26
ENDBRANCH   1  25
TORSDOF 8
ENDMDL
MODEL 10
REMARK VINA RESULT:      -7.4      1.401      1.999
REMARK  8 active torsions:
REMARK  status: ('A' for Active; 'I' for Inactive)
REMARK    1  A    between atoms: C_2  and  N_3 
REMARK       I    between atoms: N_3  and  C_4 
REMARK    2  A    between atoms: C_4  and  C_5 
REMARK    3  A    between atoms: C_5  and  O_6 
REMARK    4  A    between atoms: O_6  and  C_7 
REMARK    5  A    between atoms: C_11  and  C_12 
REMARK    6  A    between atoms: C_12  and  N_13 
REMARK    7  A    between atoms: N_13  and  C_14 
REMARK    8  A    between atoms: C_25  and  O_26 
ROOT
HETATM    1  C   UNL     1      41.517 -11.419   6.306  1.00  0.00     0.124 A 
HETATM    2  C   UNL     1      40.328 -12.093   6.000  1.00  0.00     0.070 A 
HETATM    3 CL   UNL     1      38.881 -11.222   5.625  1.00  0.00    -0.081 Cl
HETATM    4  C   UNL     1      40.285 -13.491   5.972  1.00  0.00     0.035 A 
HETATM    5  C   UNL     1      41.428 -14.246   6.273  1.00  0.00    -0.041 A 
HETATM    6  C   UNL     1      42.620 -13.572   6.579  1.00  0.00     0.048 A 
HETATM    7  C   UNL     1      42.653 -12.175   6.623  1.00  0.00     0.103 A 
ENDROOT
BRANCH   5   8
HETATM    8  C   UNL     1      41.383 -15.755   6.238  1.00  0.00     0.131 C 
BRANCH   8   9
HETATM    9  N   UNL     1      42.278 -16.238   5.198  1.00  0.00    -0.289 NA
HETATM   10  H   UNL     1      42.457 -17.237   5.273  1.00  0.00     0.128 HD
BRANCH   9  11
HETATM   11  C   UNL     1      42.057 -15.844   3.869  1.00  0.00     0.010 A 
HETATM   12  C   UNL     1      40.818 -15.987   3.223  1.00  0.00     0.055 A 
HETATM   13  C   UNL     1      40.700 -15.485   1.945  1.00  0.00     0.065 A 
HETATM   14  C   UNL     1      41.745 -14.833   1.298  1.00  0.00     0.063 A 
HETATM   15  N   UNL     1      39.605 -15.495   1.085  1.00  0.00    -0.306 N 
HETATM   16  N   UNL     1      41.299 -14.447   0.041  1.00  0.00    -0.307 N 
HETATM   17  C   UNL     1      42.961 -14.640   1.901  1.00  0.00     0.034 A 
HETATM   18  C   UNL     1      39.964 -14.849  -0.107  1.00  0.00     0.325 A 
HETATM   19  H   UNL     1      41.814 -13.946  -0.664  1.00  0.00     0.170 HD
HETATM   20  O   UNL     1      39.253 -14.671  -1.079  1.00  0.00    -0.247 OA
HETATM   21  C   UNL     1      43.101 -15.140   3.203  1.00  0.00     0.026 A 
HETATM   22  H   UNL     1      38.692 -15.879   1.261  1.00  0.00     0.170 HD
ENDBRANCH   9  11
ENDBRANCH   8   9
ENDBRANCH   5   8
BRANCH   7  23
HETATM   23  O   UNL     1      43.845 -11.579   6.940  1.00  0.00    -0.353 OA
HETATM   24  C   UNL     1      44.933 -12.367   6.455  1.00  0.00     0.210 C 
ENDBRANCH   7  23
BRANCH   1  25
HETATM   25  O   UNL     1      41.476 -10.049   6.360  1.00  0.00    -0.337 OA
BRANCH  25  26
HETATM   26  C   UNL     1      41.045  -9.521   7.616  1.00  0.00     0.278 C 
BRANCH  26  27
HETATM   27  C   UNL     1      42.248  -9.078   8.453  1.00  0.00     0.242 C 
HETATM   28  N   UNL     1      42.531  -9.911   9.517  1.00  0.00    -0.351 N 
HETATM   29  H   UNL     1      42.026 -10.793   9.520  1.00  0.00     0.163 HD
HETATM   30  O   UNL     1      42.862  -8.046   8.200  1.00  0.00    -0.271 OA
BRANCH  28  31
HETATM   31  C   UNL     1      43.657  -9.753  10.446  1.00  0.00     0.022 C 
HETATM   32  C   UNL     1      45.000  -9.751   9.698  1.00  0.00     0.037 C 
HETATM   33  C   UNL     1      43.646 -10.866  11.505  1.00  0.00     0.037 C 
HETATM   34  C   UNL     1      43.501  -8.397  11.158  1.00  0.00     0.037 C 
ENDBRANCH  28  31
ENDBRANCH  26  27
ENDBRANCH  25  26
ENDBRANCH   1  25
TORSDOF 8
ENDMDL
