MODEL 1
REMARK VINA RESULT:      -9.2      0.000      0.000
REMARK  5 active torsions:
REMARK  status: ('A' for Active; 'I' for Inactive)
REMARK    1  A    between atoms: C_2  and  C_3 
REMARK    2  A    between atoms: N_4  and  C_6 
REMARK    3  A    between atoms: C_6  and  C_7 
REMARK    4  A    between atoms: N_14  and  C_16 
REMARK    5  A    between atoms: C_16  and  C_17 
ROOT
HETATM    1  C   UNL     1      42.985 -12.064   3.612  1.00  0.00    -0.032 A 
HETATM    2  C   UNL     1      42.413 -13.327   3.883  1.00  0.00     0.020 A 
HETATM    3  C   UNL     1      41.341 -13.829   3.117  1.00  0.00     0.002 A 
HETATM    4  C   UNL     1      40.847 -13.042   2.076  1.00  0.00     0.076 A 
HETATM    5  O   UNL     1      39.774 -13.445   1.336  1.00  0.00    -0.349 OA
HETATM    6  C   UNL     1      40.104 -14.531   0.461  1.00  0.00     0.203 C 
HETATM    7  C   UNL     1      39.854 -15.880   1.138  1.00  0.00     0.262 C 
HETATM    8  N   UNL     1      40.830 -16.177   2.271  1.00  0.00    -0.061 N 
HETATM    9  H   UNL     1      40.495 -17.063   2.665  1.00  0.00     0.280 HD
HETATM   10  C   UNL     1      40.727 -15.175   3.405  1.00  0.00     0.276 C 
HETATM   11  C   UNL     1      41.393 -11.793   1.795  1.00  0.00     0.038 A 
HETATM   12  C   UNL     1      42.474 -11.317   2.540  1.00  0.00     0.011 A 
ENDROOT
BRANCH   1  13
HETATM   13  C   UNL     1      44.170 -11.580   4.425  1.00  0.00     0.274 C 
BRANCH  13  14
HETATM   14  N   UNL     1      43.836 -10.936   5.745  1.00  0.00    -0.053 N 
HETATM   15  C   UNL     1      44.197 -11.814   6.983  1.00  0.00     0.279 C 
HETATM   16  C   UNL     1      43.940 -11.041   8.296  1.00  0.00     0.248 C 
HETATM   17  N   UNL     1      42.850 -10.208   8.323  1.00  0.00    -0.358 N 
HETATM   18  O   UNL     1      44.627 -11.203   9.295  1.00  0.00    -0.271 OA
HETATM   19  C   UNL     1      42.295  -9.568   7.142  1.00  0.00     0.150 C 
HETATM   20  H   UNL     1      42.733  -9.737   9.219  1.00  0.00     0.162 HD
HETATM   21  C   UNL     1      42.420 -10.393   5.855  1.00  0.00     0.256 C 
HETATM   22  H   UNL     1      44.459 -10.127   5.844  1.00  0.00     0.281 HD
BRANCH  15  23
HETATM   23  C   UNL     1      43.417 -13.139   6.970  1.00  0.00     0.038 C 
HETATM   24  C   UNL     1      44.324 -14.348   6.765  1.00  0.00     0.007 C 
ENDBRANCH  15  23
ENDBRANCH  13  14
ENDBRANCH   1  13
BRANCH   8  25
HETATM   25  C   UNL     1      42.258 -16.439   1.851  1.00  0.00     0.274 C 
BRANCH  25  26
HETATM   26  C   UNL     1      42.983 -17.446   2.702  1.00  0.00    -0.029 A 
HETATM   27  C   UNL     1      43.134 -18.773   2.268  1.00  0.00     0.054 A 
HETATM   28  C   UNL     1      43.800 -19.700   3.072  1.00  0.00     0.155 A 
HETATM   29  F   UNL     1      43.931 -20.957   2.634  1.00  0.00    -0.203 F 
HETATM   30  C   UNL     1      44.317 -19.324   4.303  1.00  0.00     0.154 A 
HETATM   31  F   UNL     1      44.954 -20.215   5.071  1.00  0.00    -0.203 F 
HETATM   32  C   UNL     1      44.175 -18.015   4.749  1.00  0.00     0.046 A 
HETATM   33  C   UNL     1      43.510 -17.077   3.953  1.00  0.00     0.012 A 
ENDBRANCH  25  26
ENDBRANCH   8  25
TORSDOF 5
ENDMDL
MODEL 2
REMARK VINA RESULT:      -9.0      1.808      3.124
REMARK  5 active torsions:
REMARK  status: ('A' for Active; 'I' for Inactive)
REMARK    1  A    between atoms: C_2  and  C_3 
REMARK    2  A    between atoms: N_4  and  C_6 
REMARK    3  A    between atoms: C_6  and  C_7 
REMARK    4  A    between atoms: N_14  and  C_16 
REMARK    5  A    between atoms: C_16  and  C_17 
ROOT
HETATM    1  C   UNL     1      43.406 -11.626   6.058  1.00  0.00    -0.032 A 
HETATM    2  C   UNL     1      42.968 -12.891   6.510  1.00  0.00     0.020 A 
HETATM    3  C   UNL     1      41.927 -13.585   5.860  1.00  0.00     0.002 A 
HETATM    4  C   UNL     1      41.326 -12.988   4.751  1.00  0.00     0.076 A 
HETATM    5  O   UNL     1      40.274 -13.581   4.115  1.00  0.00    -0.349 OA
HETATM    6  C   UNL     1      40.681 -14.734   3.369  1.00  0.00     0.203 C 
HETATM    7  C   UNL     1      40.586 -16.003   4.220  1.00  0.00     0.262 C 
HETATM    8  N   UNL     1      41.621 -16.059   5.338  1.00  0.00    -0.061 N 
HETATM    9  H   UNL     1      41.386 -16.915   5.854  1.00  0.00     0.280 HD
HETATM   10  C   UNL     1      41.456 -14.933   6.341  1.00  0.00     0.276 C 
HETATM   11  C   UNL     1      41.739 -11.740   4.292  1.00  0.00     0.038 A 
HETATM   12  C   UNL     1      42.791 -11.074   4.924  1.00  0.00     0.011 A 
ENDROOT
BRANCH   1  13
HETATM   13  C   UNL     1      44.563 -10.934   6.751  1.00  0.00     0.274 C 
BRANCH  13  14
HETATM   14  N   UNL     1      44.362 -10.633   8.213  1.00  0.00    -0.053 N 
HETATM   15  C   UNL     1      43.092  -9.777   8.512  1.00  0.00     0.279 C 
HETATM   16  C   UNL     1      42.887  -9.614  10.034  1.00  0.00     0.248 C 
HETATM   17  N   UNL     1      44.017  -9.482  10.802  1.00  0.00    -0.358 N 
HETATM   18  O   UNL     1      41.776  -9.537  10.541  1.00  0.00    -0.271 OA
HETATM   19  C   UNL     1      45.310 -10.034  10.436  1.00  0.00     0.150 C 
HETATM   20  H   UNL     1      43.811  -9.369  11.795  1.00  0.00     0.162 HD
HETATM   21  C   UNL     1      45.581 -10.069   8.926  1.00  0.00     0.256 C 
HETATM   22  H   UNL     1      44.152 -11.527   8.672  1.00  0.00     0.281 HD
BRANCH  15  23
HETATM   23  C   UNL     1      43.174  -8.404   7.825  1.00  0.00     0.038 C 
HETATM   24  C   UNL     1      41.936  -8.095   6.988  1.00  0.00     0.007 C 
ENDBRANCH  15  23
ENDBRANCH  13  14
ENDBRANCH   1  13
BRANCH   8  25
HETATM   25  C   UNL     1      43.054 -16.240   4.892  1.00  0.00     0.274 C 
BRANCH  25  26
HETATM   26  C   UNL     1      43.375 -17.613   4.369  1.00  0.00    -0.029 A 
HETATM   27  C   UNL     1      43.827 -18.622   5.235  1.00  0.00     0.054 A 
HETATM   28  C   UNL     1      44.130 -19.889   4.735  1.00  0.00     0.155 A 
HETATM   29  F   UNL     1      44.558 -20.831   5.582  1.00  0.00    -0.203 F 
HETATM   30  C   UNL     1      43.992 -20.166   3.383  1.00  0.00     0.154 A 
HETATM   31  F   UNL     1      44.285 -21.381   2.906  1.00  0.00    -0.203 F 
HETATM   32  C   UNL     1      43.548 -19.178   2.510  1.00  0.00     0.046 A 
HETATM   33  C   UNL     1      43.240 -17.905   2.999  1.00  0.00     0.012 A 
ENDBRANCH  25  26
ENDBRANCH   8  25
TORSDOF 5
ENDMDL
MODEL 3
REMARK VINA RESULT:      -8.9      1.570      2.157
REMARK  5 active torsions:
REMARK  status: ('A' for Active; 'I' for Inactive)
REMARK    1  A    between atoms: C_2  and  C_3 
REMARK    2  A    between atoms: N_4  and  C_6 
REMARK    3  A    between atoms: C_6  and  C_7 
REMARK    4  A    between atoms: N_14  and  C_16 
REMARK    5  A    between atoms: C_16  and  C_17 
ROOT
HETATM    1  C   UNL     1      42.598 -11.761   5.393  1.00  0.00    -0.032 A 
HETATM    2  C   UNL     1      42.000 -13.034   5.263  1.00  0.00     0.020 A 
HETATM    3  C   UNL     1      41.432 -13.460   4.045  1.00  0.00     0.002 A 
HETATM    4  C   UNL     1      41.468 -12.586   2.958  1.00  0.00     0.076 A 
HETATM    5  O   UNL     1      40.883 -12.914   1.770  1.00  0.00    -0.349 OA
HETATM    6  C   UNL     1      41.617 -13.929   1.075  1.00  0.00     0.203 C 
HETATM    7  C   UNL     1      41.113 -15.326   1.447  1.00  0.00     0.262 C 
HETATM    8  N   UNL     1      41.445 -15.725   2.881  1.00  0.00    -0.061 N 
HETATM    9  H   UNL     1      40.988 -16.636   3.000  1.00  0.00     0.280 HD
HETATM   10  C   UNL     1      40.791 -14.816   3.904  1.00  0.00     0.276 C 
HETATM   11  C   UNL     1      42.048 -11.324   3.066  1.00  0.00     0.038 A 
HETATM   12  C   UNL     1      42.635 -10.923   4.268  1.00  0.00     0.011 A 
ENDROOT
BRANCH   1  13
HETATM   13  C   UNL     1      43.244 -11.358   6.704  1.00  0.00     0.274 C 
BRANCH  13  14
HETATM   14  N   UNL     1      43.020  -9.932   7.131  1.00  0.00    -0.053 N 
HETATM   15  C   UNL     1      44.072  -9.409   8.158  1.00  0.00     0.279 C 
HETATM   16  C   UNL     1      43.849  -7.909   8.455  1.00  0.00     0.248 C 
HETATM   17  N   UNL     1      42.549  -7.471   8.500  1.00  0.00    -0.358 N 
HETATM   18  O   UNL     1      44.774  -7.147   8.705  1.00  0.00    -0.271 OA
HETATM   19  C   UNL     1      41.462  -8.096   7.766  1.00  0.00     0.150 C 
HETATM   20  H   UNL     1      42.474  -6.476   8.709  1.00  0.00     0.162 HD
HETATM   21  C   UNL     1      41.605  -9.613   7.589  1.00  0.00     0.256 C 
HETATM   22  H   UNL     1      43.190  -9.346   6.306  1.00  0.00     0.281 HD
BRANCH  15  23
HETATM   23  C   UNL     1      44.036 -10.230   9.457  1.00  0.00     0.038 C 
HETATM   24  C   UNL     1      45.314 -10.084  10.276  1.00  0.00     0.007 C 
ENDBRANCH  15  23
ENDBRANCH  13  14
ENDBRANCH   1  13
BRANCH   8  25
HETATM   25  C   UNL     1      42.909 -15.970   3.168  1.00  0.00     0.274 C 
BRANCH  25  26
HETATM   26  C   UNL     1      43.276 -17.419   3.336  1.00  0.00    -0.029 A 
HETATM   27  C   UNL     1      43.081 -18.334   2.289  1.00  0.00     0.054 A 
HETATM   28  C   UNL     1      43.417 -19.677   2.461  1.00  0.00     0.155 A 
HETATM   29  F   UNL     1      43.221 -20.527   1.447  1.00  0.00    -0.203 F 
HETATM   30  C   UNL     1      43.945 -20.124   3.663  1.00  0.00     0.154 A 
HETATM   31  F   UNL     1      44.266 -21.413   3.825  1.00  0.00    -0.203 F 
HETATM   32  C   UNL     1      44.144 -19.233   4.712  1.00  0.00     0.046 A 
HETATM   33  C   UNL     1      43.812 -17.884   4.551  1.00  0.00     0.012 A 
ENDBRANCH  25  26
ENDBRANCH   8  25
TORSDOF 5
ENDMDL
MODEL 4
REMARK VINA RESULT:      -8.8      3.640      7.772
REMARK  5 active torsions:
REMARK  status: ('A' for Active; 'I' for Inactive)
REMARK    1  A    between atoms: C_2  and  C_3 
REMARK    2  A    between atoms: N_4  and  C_6 
REMARK    3  A    between atoms: C_6  and  C_7 
REMARK    4  A    between atoms: N_14  and  C_16 
REMARK    5  A    between atoms: C_16  and  C_17 
ROOT
HETATM    1  C   UNL     1      40.936 -15.835   2.407  1.00  0.00    -0.032 A 
HETATM    2  C   UNL     1      40.610 -15.193   3.622  1.00  0.00     0.020 A 
HETATM    3  C   UNL     1      41.283 -15.501   4.822  1.00  0.00     0.002 A 
HETATM    4  C   UNL     1      42.287 -16.469   4.787  1.00  0.00     0.076 A 
HETATM    5  O   UNL     1      42.934 -16.855   5.924  1.00  0.00    -0.349 OA
HETATM    6  C   UNL     1      43.825 -15.840   6.404  1.00  0.00     0.203 C 
HETATM    7  C   UNL     1      43.118 -14.910   7.394  1.00  0.00     0.262 C 
HETATM    8  N   UNL     1      42.066 -14.021   6.742  1.00  0.00    -0.061 N 
HETATM    9  H   UNL     1      41.639 -13.519   7.529  1.00  0.00     0.280 HD
HETATM   10  C   UNL     1      40.935 -14.818   6.120  1.00  0.00     0.276 C 
HETATM   11  C   UNL     1      42.621 -17.119   3.601  1.00  0.00     0.038 A 
HETATM   12  C   UNL     1      41.970 -16.785   2.412  1.00  0.00     0.011 A 
ENDROOT
BRANCH   1  13
HETATM   13  C   UNL     1      40.226 -15.441   1.127  1.00  0.00     0.274 C 
BRANCH  13  14
HETATM   14  N   UNL     1      40.130 -13.961   0.864  1.00  0.00    -0.053 N 
HETATM   15  C   UNL     1      39.314 -13.602  -0.417  1.00  0.00     0.279 C 
HETATM   16  C   UNL     1      39.156 -12.071  -0.554  1.00  0.00     0.248 C 
HETATM   17  N   UNL     1      40.222 -11.300  -0.163  1.00  0.00    -0.358 N 
HETATM   18  O   UNL     1      38.160 -11.557  -1.046  1.00  0.00    -0.271 OA
HETATM   19  C   UNL     1      41.185 -11.706   0.845  1.00  0.00     0.150 C 
HETATM   20  H   UNL     1      40.055 -10.301  -0.288  1.00  0.00     0.162 HD
HETATM   21  C   UNL     1      41.455 -13.216   0.893  1.00  0.00     0.256 C 
HETATM   22  H   UNL     1      39.562 -13.563   1.620  1.00  0.00     0.281 HD
BRANCH  15  23
HETATM   23  C   UNL     1      39.966 -14.195  -1.676  1.00  0.00     0.038 C 
HETATM   24  C   UNL     1      38.942 -14.779  -2.644  1.00  0.00     0.007 C 
ENDBRANCH  15  23
ENDBRANCH  13  14
ENDBRANCH   1  13
BRANCH   8  25
HETATM   25  C   UNL     1      42.598 -12.946   5.822  1.00  0.00     0.274 C 
BRANCH  25  26
HETATM   26  C   UNL     1      43.409 -11.883   6.510  1.00  0.00    -0.029 A 
HETATM   27  C   UNL     1      44.811 -11.959   6.540  1.00  0.00     0.054 A 
HETATM   28  C   UNL     1      45.551 -10.971   7.190  1.00  0.00     0.155 A 
HETATM   29  F   UNL     1      46.885 -11.068   7.203  1.00  0.00    -0.203 F 
HETATM   30  C   UNL     1      44.915  -9.907   7.813  1.00  0.00     0.154 A 
HETATM   31  F   UNL     1      45.628  -8.962   8.436  1.00  0.00    -0.203 F 
HETATM   32  C   UNL     1      43.528  -9.816   7.795  1.00  0.00     0.046 A 
HETATM   33  C   UNL     1      42.775 -10.800   7.146  1.00  0.00     0.012 A 
ENDBRANCH  25  26
ENDBRANCH   8  25
TORSDOF 5
ENDMDL
MODEL 5
REMARK VINA RESULT:      -8.7      3.868      7.382
REMARK  5 active torsions:
REMARK  status: ('A' for Active; 'I' for Inactive)
REMARK    1  A    between atoms: C_2  and  C_3 
REMARK    2  A    between atoms: N_4  and  C_6 
REMARK    3  A    between atoms: C_6  and  C_7 
REMARK    4  A    between atoms: N_14  and  C_16 
REMARK    5  A    between atoms: C_16  and  C_17 
ROOT
HETATM    1  C   UNL     1      40.900 -16.089   2.715  1.00  0.00    -0.032 A 
HETATM    2  C   UNL     1      40.639 -15.587   4.009  1.00  0.00     0.020 A 
HETATM    3  C   UNL     1      41.483 -15.885   5.098  1.00  0.00     0.002 A 
HETATM    4  C   UNL     1      42.592 -16.701   4.871  1.00  0.00     0.076 A 
HETATM    5  O   UNL     1      43.413 -17.076   5.895  1.00  0.00    -0.349 OA
HETATM    6  C   UNL     1      44.217 -15.986   6.362  1.00  0.00     0.203 C 
HETATM    7  C   UNL     1      43.519 -15.235   7.499  1.00  0.00     0.262 C 
HETATM    8  N   UNL     1      42.292 -14.454   7.044  1.00  0.00    -0.061 N 
HETATM    9  H   UNL     1      41.900 -14.073   7.913  1.00  0.00     0.280 HD
HETATM   10  C   UNL     1      41.207 -15.351   6.480  1.00  0.00     0.276 C 
HETATM   11  C   UNL     1      42.864 -17.212   3.605  1.00  0.00     0.038 A 
HETATM   12  C   UNL     1      42.040 -16.886   2.526  1.00  0.00     0.011 A 
ENDROOT
BRANCH   1  13
HETATM   13  C   UNL     1      39.999 -15.705   1.557  1.00  0.00     0.274 C 
BRANCH  13  14
HETATM   14  N   UNL     1      40.454 -14.524   0.741  1.00  0.00    -0.053 N 
HETATM   15  C   UNL     1      40.543 -13.194   1.552  1.00  0.00     0.279 C 
HETATM   16  C   UNL     1      41.130 -12.060   0.682  1.00  0.00     0.248 C 
HETATM   17  N   UNL     1      40.776 -12.049  -0.644  1.00  0.00    -0.358 N 
HETATM   18  O   UNL     1      41.825 -11.169   1.151  1.00  0.00    -0.271 OA
HETATM   19  C   UNL     1      40.414 -13.240  -1.393  1.00  0.00     0.150 C 
HETATM   20  H   UNL     1      41.190 -11.271  -1.157  1.00  0.00     0.162 HD
HETATM   21  C   UNL     1      39.701 -14.318  -0.564  1.00  0.00     0.256 C 
HETATM   22  H   UNL     1      41.430 -14.703   0.481  1.00  0.00     0.281 HD
BRANCH  15  23
HETATM   23  C   UNL     1      39.169 -12.793   2.113  1.00  0.00     0.038 C 
HETATM   24  C   UNL     1      39.258 -12.235   3.530  1.00  0.00     0.007 C 
ENDBRANCH  15  23
ENDBRANCH  13  14
ENDBRANCH   1  13
BRANCH   8  25
HETATM   25  C   UNL     1      42.570 -13.253   6.169  1.00  0.00     0.274 C 
BRANCH  25  26
HETATM   26  C   UNL     1      43.659 -12.350   6.679  1.00  0.00    -0.029 A 
HETATM   27  C   UNL     1      43.516 -11.674   7.901  1.00  0.00     0.054 A 
HETATM   28  C   UNL     1      44.531 -10.831   8.357  1.00  0.00     0.155 A 
HETATM   29  F   UNL     1      44.368 -10.200   9.526  1.00  0.00    -0.203 F 
HETATM   30  C   UNL     1      45.687 -10.651   7.613  1.00  0.00     0.154 A 
HETATM   31  F   UNL     1      46.657  -9.842   8.053  1.00  0.00    -0.203 F 
HETATM   32  C   UNL     1      45.845 -11.310   6.399  1.00  0.00     0.046 A 
HETATM   33  C   UNL     1      44.836 -12.158   5.931  1.00  0.00     0.012 A 
ENDBRANCH  25  26
ENDBRANCH   8  25
TORSDOF 5
ENDMDL
MODEL 6
REMARK VINA RESULT:      -8.6      1.499      2.069
REMARK  5 active torsions:
REMARK  status: ('A' for Active; 'I' for Inactive)
REMARK    1  A    between atoms: C_2  and  C_3 
REMARK    2  A    between atoms: N_4  and  C_6 
REMARK    3  A    between atoms: C_6  and  C_7 
REMARK    4  A    between atoms: N_14  and  C_16 
REMARK    5  A    between atoms: C_16  and  C_17 
ROOT
HETATM    1  C   UNL     1      41.198 -11.306   5.101  1.00  0.00    -0.032 A 
HETATM    2  C   UNL     1      40.850 -12.657   4.880  1.00  0.00     0.020 A 
HETATM    3  C   UNL     1      40.609 -13.152   3.582  1.00  0.00     0.002 A 
HETATM    4  C   UNL     1      40.717 -12.269   2.507  1.00  0.00     0.076 A 
HETATM    5  O   UNL     1      40.437 -12.671   1.234  1.00  0.00    -0.349 OA
HETATM    6  C   UNL     1      41.448 -13.545   0.715  1.00  0.00     0.203 C 
HETATM    7  C   UNL     1      41.112 -15.010   1.007  1.00  0.00     0.262 C 
HETATM    8  N   UNL     1      41.216 -15.369   2.485  1.00  0.00    -0.061 N 
HETATM    9  H   UNL     1      40.897 -16.344   2.529  1.00  0.00     0.280 HD
HETATM   10  C   UNL     1      40.236 -14.592   3.343  1.00  0.00     0.276 C 
HETATM   11  C   UNL     1      41.053 -10.932   2.703  1.00  0.00     0.038 A 
HETATM   12  C   UNL     1      41.320 -10.458   3.989  1.00  0.00     0.011 A 
ENDROOT
BRANCH   1  13
HETATM   13  C   UNL     1      41.500 -10.822   6.506  1.00  0.00     0.274 C 
BRANCH  13  14
HETATM   14  N   UNL     1      42.932 -10.433   6.768  1.00  0.00    -0.053 N 
HETATM   15  C   UNL     1      43.960 -11.561   6.446  1.00  0.00     0.279 C 
HETATM   16  C   UNL     1      45.407 -11.050   6.623  1.00  0.00     0.248 C 
HETATM   17  N   UNL     1      45.633 -10.170   7.651  1.00  0.00    -0.358 N 
HETATM   18  O   UNL     1      46.332 -11.451   5.930  1.00  0.00    -0.271 OA
HETATM   19  C   UNL     1      44.621  -9.273   8.182  1.00  0.00     0.150 C 
HETATM   20  H   UNL     1      46.609  -9.880   7.717  1.00  0.00     0.162 HD
HETATM   21  C   UNL     1      43.193  -9.832   8.140  1.00  0.00     0.256 C 
HETATM   22  H   UNL     1      43.168  -9.702   6.088  1.00  0.00     0.281 HD
BRANCH  15  23
HETATM   23  C   UNL     1      43.713 -12.803   7.317  1.00  0.00     0.038 C 
HETATM   24  C   UNL     1      43.845 -14.104   6.531  1.00  0.00     0.007 C 
ENDBRANCH  15  23
ENDBRANCH  13  14
ENDBRANCH   1  13
BRANCH   8  25
HETATM   25  C   UNL     1      42.614 -15.379   3.059  1.00  0.00     0.274 C 
BRANCH  25  26
HETATM   26  C   UNL     1      43.106 -16.737   3.477  1.00  0.00    -0.029 A 
HETATM   27  C   UNL     1      43.203 -17.077   4.836  1.00  0.00     0.054 A 
HETATM   28  C   UNL     1      43.670 -18.338   5.210  1.00  0.00     0.155 A 
HETATM   29  F   UNL     1      43.752 -18.635   6.512  1.00  0.00    -0.203 F 
HETATM   30  C   UNL     1      44.044 -19.265   4.250  1.00  0.00     0.154 A 
HETATM   31  F   UNL     1      44.493 -20.473   4.612  1.00  0.00    -0.203 F 
HETATM   32  C   UNL     1      43.957 -18.946   2.899  1.00  0.00     0.046 A 
HETATM   33  C   UNL     1      43.489 -17.687   2.512  1.00  0.00     0.012 A 
ENDBRANCH  25  26
ENDBRANCH   8  25
TORSDOF 5
ENDMDL
MODEL 7
REMARK VINA RESULT:      -8.6      3.076      6.323
REMARK  5 active torsions:
REMARK  status: ('A' for Active; 'I' for Inactive)
REMARK    1  A    between atoms: C_2  and  C_3 
REMARK    2  A    between atoms: N_4  and  C_6 
REMARK    3  A    between atoms: C_6  and  C_7 
REMARK    4  A    between atoms: N_14  and  C_16 
REMARK    5  A    between atoms: C_16  and  C_17 
ROOT
HETATM    1  C   UNL     1      42.134 -14.938   1.430  1.00  0.00    -0.032 A 
HETATM    2  C   UNL     1      42.331 -13.642   1.956  1.00  0.00     0.020 A 
HETATM    3  C   UNL     1      41.337 -12.647   1.854  1.00  0.00     0.002 A 
HETATM    4  C   UNL     1      40.142 -12.970   1.209  1.00  0.00     0.076 A 
HETATM    5  O   UNL     1      39.166 -12.035   1.024  1.00  0.00    -0.349 OA
HETATM    6  C   UNL     1      38.503 -11.704   2.251  1.00  0.00     0.203 C 
HETATM    7  C   UNL     1      39.185 -10.522   2.944  1.00  0.00     0.262 C 
HETATM    8  N   UNL     1      40.564 -10.861   3.498  1.00  0.00    -0.061 N 
HETATM    9  H   UNL     1      40.916  -9.967   3.860  1.00  0.00     0.280 HD
HETATM   10  C   UNL     1      41.545 -11.263   2.412  1.00  0.00     0.276 C 
HETATM   11  C   UNL     1      39.929 -14.240   0.679  1.00  0.00     0.038 A 
HETATM   12  C   UNL     1      40.907 -15.227   0.812  1.00  0.00     0.011 A 
ENDROOT
BRANCH   1  13
HETATM   13  C   UNL     1      43.204 -15.997   1.605  1.00  0.00     0.274 C 
BRANCH  13  14
HETATM   14  N   UNL     1      43.337 -16.567   2.993  1.00  0.00    -0.053 N 
HETATM   15  C   UNL     1      43.810 -18.054   3.020  1.00  0.00     0.279 C 
HETATM   16  C   UNL     1      44.039 -18.530   4.472  1.00  0.00     0.248 C 
HETATM   17  N   UNL     1      43.175 -18.053   5.425  1.00  0.00    -0.358 N 
HETATM   18  O   UNL     1      44.904 -19.345   4.764  1.00  0.00    -0.271 OA
HETATM   19  C   UNL     1      42.486 -16.778   5.323  1.00  0.00     0.150 C 
HETATM   20  H   UNL     1      43.376 -18.412   6.358  1.00  0.00     0.162 HD
HETATM   21  C   UNL     1      42.127 -16.363   3.890  1.00  0.00     0.256 C 
HETATM   22  H   UNL     1      44.113 -16.069   3.444  1.00  0.00     0.281 HD
BRANCH  15  23
HETATM   23  C   UNL     1      42.805 -18.969   2.301  1.00  0.00     0.038 C 
HETATM   24  C   UNL     1      43.433 -20.282   1.845  1.00  0.00     0.007 C 
ENDBRANCH  15  23
ENDBRANCH  13  14
ENDBRANCH   1  13
BRANCH   8  25
HETATM   25  C   UNL     1      40.580 -11.806   4.678  1.00  0.00     0.274 C 
BRANCH  25  26
HETATM   26  C   UNL     1      41.858 -11.789   5.471  1.00  0.00    -0.029 A 
HETATM   27  C   UNL     1      42.575 -12.974   5.699  1.00  0.00     0.054 A 
HETATM   28  C   UNL     1      43.754 -12.946   6.445  1.00  0.00     0.155 A 
HETATM   29  F   UNL     1      44.418 -14.090   6.646  1.00  0.00    -0.203 F 
HETATM   30  C   UNL     1      44.229 -11.754   6.970  1.00  0.00     0.154 A 
HETATM   31  F   UNL     1      45.359 -11.730   7.686  1.00  0.00    -0.203 F 
HETATM   32  C   UNL     1      43.531 -10.570   6.757  1.00  0.00     0.046 A 
HETATM   33  C   UNL     1      42.349 -10.585   6.010  1.00  0.00     0.012 A 
ENDBRANCH  25  26
ENDBRANCH   8  25
TORSDOF 5
ENDMDL
MODEL 8
REMARK VINA RESULT:      -8.5      1.581      2.580
REMARK  5 active torsions:
REMARK  status: ('A' for Active; 'I' for Inactive)
REMARK    1  A    between atoms: C_2  and  C_3 
REMARK    2  A    between atoms: N_4  and  C_6 
REMARK    3  A    between atoms: C_6  and  C_7 
REMARK    4  A    between atoms: N_14  and  C_16 
REMARK    5  A    between atoms: C_16  and  C_17 
ROOT
HETATM    1  C   UNL     1      40.496 -11.647   4.628  1.00  0.00    -0.032 A 
HETATM    2  C   UNL     1      40.361 -13.009   4.280  1.00  0.00     0.020 A 
HETATM    3  C   UNL     1      39.933 -13.403   2.996  1.00  0.00     0.002 A 
HETATM    4  C   UNL     1      39.635 -12.407   2.065  1.00  0.00     0.076 A 
HETATM    5  O   UNL     1      39.158 -12.721   0.826  1.00  0.00    -0.349 OA
HETATM    6  C   UNL     1      40.171 -13.302  -0.006  1.00  0.00     0.203 C 
HETATM    7  C   UNL     1      40.184 -14.827   0.125  1.00  0.00     0.262 C 
HETATM    8  N   UNL     1      40.677 -15.312   1.483  1.00  0.00    -0.061 N 
HETATM    9  H   UNL     1      40.561 -16.331   1.443  1.00  0.00     0.280 HD
HETATM   10  C   UNL     1      39.787 -14.856   2.623  1.00  0.00     0.276 C 
HETATM   11  C   UNL     1      39.755 -11.058   2.388  1.00  0.00     0.038 A 
HETATM   12  C   UNL     1      40.209 -10.679   3.653  1.00  0.00     0.011 A 
ENDROOT
BRANCH   1  13
HETATM   13  C   UNL     1      41.009 -11.263   6.002  1.00  0.00     0.274 C 
BRANCH  13  14
HETATM   14  N   UNL     1      42.490 -11.430   6.215  1.00  0.00    -0.053 N 
HETATM   15  C   UNL     1      43.020 -10.745   7.513  1.00  0.00     0.279 C 
HETATM   16  C   UNL     1      44.518 -11.061   7.727  1.00  0.00     0.248 C 
HETATM   17  N   UNL     1      45.303 -11.134   6.604  1.00  0.00    -0.358 N 
HETATM   18  O   UNL     1      45.009 -11.177   8.841  1.00  0.00    -0.271 OA
HETATM   19  C   UNL     1      44.802 -11.509   5.292  1.00  0.00     0.150 C 
HETATM   20  H   UNL     1      46.279 -11.337   6.816  1.00  0.00     0.162 HD
HETATM   21  C   UNL     1      43.356 -11.073   5.017  1.00  0.00     0.256 C 
HETATM   22  H   UNL     1      42.652 -12.427   6.396  1.00  0.00     0.281 HD
BRANCH  15  23
HETATM   23  C   UNL     1      42.786  -9.226   7.475  1.00  0.00     0.038 C 
HETATM   24  C   UNL     1      42.162  -8.699   8.764  1.00  0.00     0.007 C 
ENDBRANCH  15  23
ENDBRANCH  13  14
ENDBRANCH   1  13
BRANCH   8  25
HETATM   25  C   UNL     1      42.146 -15.087   1.763  1.00  0.00     0.274 C 
BRANCH  25  26
HETATM   26  C   UNL     1      42.797 -16.170   2.578  1.00  0.00    -0.029 A 
HETATM   27  C   UNL     1      43.253 -15.911   3.880  1.00  0.00     0.054 A 
HETATM   28  C   UNL     1      43.864 -16.923   4.622  1.00  0.00     0.155 A 
HETATM   29  F   UNL     1      44.288 -16.648   5.861  1.00  0.00    -0.203 F 
HETATM   30  C   UNL     1      44.030 -18.190   4.084  1.00  0.00     0.154 A 
HETATM   31  F   UNL     1      44.617 -19.158   4.798  1.00  0.00    -0.203 F 
HETATM   32  C   UNL     1      43.587 -18.465   2.795  1.00  0.00     0.046 A 
HETATM   33  C   UNL     1      42.972 -17.460   2.042  1.00  0.00     0.012 A 
ENDBRANCH  25  26
ENDBRANCH   8  25
TORSDOF 5
ENDMDL
MODEL 9
REMARK VINA RESULT:      -8.4      4.200      7.982
REMARK  5 active torsions:
REMARK  status: ('A' for Active; 'I' for Inactive)
REMARK    1  A    between atoms: C_2  and  C_3 
REMARK    2  A    between atoms: N_4  and  C_6 
REMARK    3  A    between atoms: C_6  and  C_7 
REMARK    4  A    between atoms: N_14  and  C_16 
REMARK    5  A    between atoms: C_16  and  C_17 
ROOT
HETATM    1  C   UNL     1      40.747 -15.876   2.153  1.00  0.00    -0.032 A 
HETATM    2  C   UNL     1      40.300 -15.390   3.402  1.00  0.00     0.020 A 
HETATM    3  C   UNL     1      40.995 -15.674   4.595  1.00  0.00     0.002 A 
HETATM    4  C   UNL     1      42.145 -16.460   4.518  1.00  0.00     0.076 A 
HETATM    5  O   UNL     1      42.829 -16.821   5.643  1.00  0.00    -0.349 OA
HETATM    6  C   UNL     1      43.533 -15.714   6.220  1.00  0.00     0.203 C 
HETATM    7  C   UNL     1      42.667 -14.990   7.254  1.00  0.00     0.262 C 
HETATM    8  N   UNL     1      41.493 -14.238   6.638  1.00  0.00    -0.061 N 
HETATM    9  H   UNL     1      40.976 -13.874   7.447  1.00  0.00     0.280 HD
HETATM   10  C   UNL     1      40.519 -15.159   5.928  1.00  0.00     0.276 C 
HETATM   11  C   UNL     1      42.601 -16.954   3.299  1.00  0.00     0.038 A 
HETATM   12  C   UNL     1      41.923 -16.642   2.119  1.00  0.00     0.011 A 
ENDROOT
BRANCH   1  13
HETATM   13  C   UNL     1      40.003 -15.507   0.886  1.00  0.00     0.274 C 
BRANCH  13  14
HETATM   14  N   UNL     1      39.884 -14.031   0.605  1.00  0.00    -0.053 N 
HETATM   15  C   UNL     1      39.088 -13.700  -0.695  1.00  0.00     0.279 C 
HETATM   16  C   UNL     1      38.905 -12.174  -0.851  1.00  0.00     0.248 C 
HETATM   17  N   UNL     1      39.948 -11.379  -0.448  1.00  0.00    -0.358 N 
HETATM   18  O   UNL     1      37.910 -11.684  -1.369  1.00  0.00    -0.271 OA
HETATM   19  C   UNL     1      40.898 -11.757   0.584  1.00  0.00     0.150 C 
HETATM   20  H   UNL     1      39.765 -10.385  -0.586  1.00  0.00     0.162 HD
HETATM   21  C   UNL     1      41.195 -13.261   0.653  1.00  0.00     0.256 C 
HETATM   22  H   UNL     1      39.295 -13.636   1.345  1.00  0.00     0.281 HD
BRANCH  15  23
HETATM   23  C   UNL     1      39.776 -14.294  -1.935  1.00  0.00     0.038 C 
HETATM   24  C   UNL     1      38.779 -14.847  -2.948  1.00  0.00     0.007 C 
ENDBRANCH  15  23
ENDBRANCH  13  14
ENDBRANCH   1  13
BRANCH   8  25
HETATM   25  C   UNL     1      41.855 -13.023   5.814  1.00  0.00     0.274 C 
BRANCH  25  26
HETATM   26  C   UNL     1      40.723 -12.056   5.600  1.00  0.00    -0.029 A 
HETATM   27  C   UNL     1      40.219 -11.817   4.312  1.00  0.00     0.054 A 
HETATM   28  C   UNL     1      39.175 -10.909   4.126  1.00  0.00     0.155 A 
HETATM   29  F   UNL     1      38.714 -10.701   2.888  1.00  0.00    -0.203 F 
HETATM   30  C   UNL     1      38.626 -10.235   5.206  1.00  0.00     0.154 A 
HETATM   31  F   UNL     1      37.626  -9.365   5.025  1.00  0.00    -0.203 F 
HETATM   32  C   UNL     1      39.114 -10.458   6.490  1.00  0.00     0.046 A 
HETATM   33  C   UNL     1      40.159 -11.365   6.688  1.00  0.00     0.012 A 
ENDBRANCH  25  26
ENDBRANCH   8  25
TORSDOF 5
ENDMDL
MODEL 10
REMARK VINA RESULT:      -8.4      3.197      6.891
REMARK  5 active torsions:
REMARK  status: ('A' for Active; 'I' for Inactive)
REMARK    1  A    between atoms: C_2  and  C_3 
REMARK    2  A    between atoms: N_4  and  C_6 
REMARK    3  A    between atoms: C_6  and  C_7 
REMARK    4  A    between atoms: N_14  and  C_16 
REMARK    5  A    between atoms: C_16  and  C_17 
ROOT
HETATM    1  C   UNL     1      40.379 -12.909   1.149  1.00  0.00    -0.032 A 
HETATM    2  C   UNL     1      41.519 -13.438   1.794  1.00  0.00     0.020 A 
HETATM    3  C   UNL     1      41.861 -13.063   3.110  1.00  0.00     0.002 A 
HETATM    4  C   UNL     1      41.044 -12.144   3.768  1.00  0.00     0.076 A 
HETATM    5  O   UNL     1      41.354 -11.695   5.019  1.00  0.00    -0.349 OA
HETATM    6  C   UNL     1      41.150 -12.704   6.016  1.00  0.00     0.203 C 
HETATM    7  C   UNL     1      42.425 -13.521   6.241  1.00  0.00     0.262 C 
HETATM    8  N   UNL     1      42.786 -14.415   5.060  1.00  0.00    -0.061 N 
HETATM    9  H   UNL     1      43.684 -14.834   5.328  1.00  0.00     0.280 HD
HETATM   10  C   UNL     1      43.078 -13.624   3.799  1.00  0.00     0.276 C 
HETATM   11  C   UNL     1      39.919 -11.606   3.149  1.00  0.00     0.038 A 
HETATM   12  C   UNL     1      39.571 -12.006   1.858  1.00  0.00     0.011 A 
ENDROOT
BRANCH   1  13
HETATM   13  C   UNL     1      40.014 -13.375  -0.246  1.00  0.00     0.274 C 
BRANCH  13  14
HETATM   14  N   UNL     1      39.236 -12.391  -1.080  1.00  0.00    -0.053 N 
HETATM   15  C   UNL     1      38.233 -13.061  -2.071  1.00  0.00     0.279 C 
HETATM   16  C   UNL     1      37.389 -11.992  -2.800  1.00  0.00     0.248 C 
HETATM   17  N   UNL     1      38.021 -10.819  -3.130  1.00  0.00    -0.358 N 
HETATM   18  O   UNL     1      36.229 -12.192  -3.135  1.00  0.00    -0.271 OA
HETATM   19  C   UNL     1      39.150 -10.278  -2.394  1.00  0.00     0.150 C 
HETATM   20  H   UNL     1      37.410 -10.163  -3.616  1.00  0.00     0.162 HD
HETATM   21  C   UNL     1      40.077 -11.338  -1.783  1.00  0.00     0.256 C 
HETATM   22  H   UNL     1      38.620 -11.881  -0.437  1.00  0.00     0.281 HD
BRANCH  15  23
HETATM   23  C   UNL     1      38.967 -13.957  -3.082  1.00  0.00     0.038 C 
HETATM   24  C   UNL     1      38.033 -14.947  -3.770  1.00  0.00     0.007 C 
ENDBRANCH  15  23
ENDBRANCH  13  14
ENDBRANCH   1  13
BRANCH   8  25
HETATM   25  C   UNL     1      41.857 -15.582   4.816  1.00  0.00     0.274 C 
BRANCH  25  26
HETATM   26  C   UNL     1      42.492 -16.747   4.108  1.00  0.00    -0.029 A 
HETATM   27  C   UNL     1      43.439 -17.552   4.761  1.00  0.00     0.054 A 
HETATM   28  C   UNL     1      44.028 -18.624   4.089  1.00  0.00     0.155 A 
HETATM   29  F   UNL     1      44.927 -19.375   4.736  1.00  0.00    -0.203 F 
HETATM   30  C   UNL     1      43.689 -18.906   2.775  1.00  0.00     0.154 A 
HETATM   31  F   UNL     1      44.256 -19.934   2.134  1.00  0.00    -0.203 F 
HETATM   32  C   UNL     1      42.754 -18.118   2.111  1.00  0.00     0.046 A 
HETATM   33  C   UNL     1      42.156 -17.042   2.774  1.00  0.00     0.012 A 
ENDBRANCH  25  26
ENDBRANCH   8  25
TORSDOF 5
ENDMDL
