MODEL 1
REMARK VINA RESULT:     -10.1      0.000      0.000
REMARK  12 active torsions:
REMARK  status: ('A' for Active; 'I' for Inactive)
REMARK    1  A    between atoms: C_9  and  S_10 
REMARK    2  A    between atoms: S_10  and  C_11 
REMARK    3  A    between atoms: C_11  and  C_12 
REMARK       I    between atoms: C_12  and  N_13 
REMARK    4  A    between atoms: N_13  and  C_14 
REMARK    5  A    between atoms: C_14  and  C_15 
REMARK    6  A    between atoms: C_15  and  C_16 
REMARK    7  A    between atoms: C_19  and  S_20 
REMARK    8  A    between atoms: S_20  and  N_21 
REMARK    9  A    between atoms: N_27  and  C_28 
REMARK   10  A    between atoms: C_31  and  O_32 
REMARK   11  A    between atoms: O_32  and  C_33 
REMARK   12  A    between atoms: C_41  and  N_42 
ROOT
HETATM    1  C   UNL     1      37.242 -10.924   0.945  1.00  0.00     0.073 C 
HETATM    2  C   UNL     1      38.208 -10.728   2.059  1.00  0.00     0.068 A 
HETATM    3  N   UNL     1      38.074  -9.659   2.854  1.00  0.00    -0.177 NA
HETATM    4  N   UNL     1      39.064  -9.785   3.748  1.00  0.00    -0.260 N 
HETATM    5  H   UNL     1      39.159  -9.086   4.478  1.00  0.00     0.191 HD
HETATM    6  C   UNL     1      39.836 -10.891   3.536  1.00  0.00     0.162 A 
HETATM    7  C   UNL     1      39.313 -11.548   2.444  1.00  0.00     0.081 A 
HETATM    8  N   UNL     1      40.894 -11.257   4.252  1.00  0.00    -0.204 NA
HETATM    9  C   UNL     1      41.426 -12.425   3.828  1.00  0.00     0.177 A 
HETATM   10  N   UNL     1      40.960 -13.162   2.777  1.00  0.00    -0.276 N 
HETATM   11  C   UNL     1      39.920 -12.733   1.998  1.00  0.00     0.124 A 
ENDROOT
BRANCH   9  12
HETATM   12  S   UNL     1      42.804 -12.948   4.850  1.00  0.00    -0.082 SA
BRANCH  12  13
HETATM   13  C   UNL     1      42.880 -11.512   5.972  1.00  0.00     0.185 C 
BRANCH  13  14
HETATM   14  C   UNL     1      44.049 -11.599   6.941  1.00  0.00     0.227 C 
HETATM   15  N   UNL     1      45.110 -10.793   6.566  1.00  0.00    -0.360 N 
HETATM   16  H   UNL     1      44.950 -10.070   5.876  1.00  0.00     0.162 HD
HETATM   17  O   UNL     1      44.080 -12.355   7.904  1.00  0.00    -0.273 OA
BRANCH  15  18
HETATM   18  C   UNL     1      46.286 -10.632   7.409  1.00  0.00     0.127 C 
BRANCH  18  19
HETATM   19  C   UNL     1      46.298  -9.266   8.098  1.00  0.00     0.058 C 
BRANCH  19  20
HETATM   20  C   UNL     1      45.212  -9.155   9.138  1.00  0.00    -0.057 A 
HETATM   21  C   UNL     1      44.266  -8.121   9.077  1.00  0.00     0.009 A 
HETATM   22  C   UNL     1      43.291  -7.996  10.069  1.00  0.00     0.025 A 
HETATM   23  C   UNL     1      43.259  -8.911  11.125  1.00  0.00     0.074 A 
HETATM   24  C   UNL     1      44.198  -9.941  11.202  1.00  0.00     0.025 A 
HETATM   25  C   UNL     1      45.169 -10.062  10.208  1.00  0.00     0.009 A 
BRANCH  23  26
HETATM   26  S   UNL     1      42.071  -8.716  12.421  1.00  0.00     0.239 S 
HETATM   27  O   UNL     1      42.765  -8.416  13.653  1.00  0.00    -0.206 OA
HETATM   28  O   UNL     1      40.969  -7.919  11.939  1.00  0.00    -0.206 OA
BRANCH  26  29
HETATM   29  N   UNL     1      41.478 -10.277  12.591  1.00  0.00    -0.225 NA
HETATM   30  H   UNL     1      41.693 -10.821  11.754  1.00  0.00     0.136 HD
HETATM   31  H   UNL     1      41.844 -10.691  13.450  1.00  0.00     0.136 HD
ENDBRANCH  26  29
ENDBRANCH  23  26
ENDBRANCH  19  20
ENDBRANCH  18  19
ENDBRANCH  15  18
ENDBRANCH  13  14
ENDBRANCH  12  13
ENDBRANCH   9  12
BRANCH  10  32
HETATM   32  C   UNL     1      41.524 -14.463   2.497  1.00  0.00     0.043 A 
HETATM   33  C   UNL     1      42.755 -14.523   1.838  1.00  0.00     0.033 A 
HETATM   34  C   UNL     1      43.364 -15.764   1.656  1.00  0.00     0.039 A 
HETATM   35  C   UNL     1      42.750 -16.937   2.113  1.00  0.00     0.076 A 
HETATM   36  C   UNL     1      41.506 -16.860   2.752  1.00  0.00     0.039 A 
HETATM   37  C   UNL     1      40.896 -15.618   2.968  1.00  0.00     0.033 A 
BRANCH  35  38
HETATM   38  O   UNL     1      43.474 -18.082   1.867  1.00  0.00    -0.311 OA
BRANCH  38  39
HETATM   39  C   UNL     1      43.729 -18.950   2.896  1.00  0.00     0.076 A 
HETATM   40  C   UNL     1      43.950 -18.412   4.163  1.00  0.00     0.037 A 
HETATM   41  C   UNL     1      44.133 -19.262   5.253  1.00  0.00     0.003 A 
HETATM   42  C   UNL     1      44.087 -20.645   5.074  1.00  0.00     0.000 A 
HETATM   43  C   UNL     1      43.841 -21.180   3.807  1.00  0.00     0.003 A 
HETATM   44  C   UNL     1      43.645 -20.332   2.717  1.00  0.00     0.037 A 
ENDBRANCH  38  39
ENDBRANCH  35  38
ENDBRANCH  10  32
BRANCH  11  45
HETATM   45  N   UNL     1      39.492 -13.409   0.860  1.00  0.00    -0.384 N 
HETATM   46  H   UNL     1      39.598 -12.999  -0.062  1.00  0.00     0.157 HD
HETATM   47  H   UNL     1      38.694 -14.032   0.942  1.00  0.00     0.157 HD
ENDBRANCH  11  45
TORSDOF 12
ENDMDL
MODEL 2
REMARK VINA RESULT:      -9.8      2.841      4.585
REMARK  12 active torsions:
REMARK  status: ('A' for Active; 'I' for Inactive)
REMARK    1  A    between atoms: C_9  and  S_10 
REMARK    2  A    between atoms: S_10  and  C_11 
REMARK    3  A    between atoms: C_11  and  C_12 
REMARK       I    between atoms: C_12  and  N_13 
REMARK    4  A    between atoms: N_13  and  C_14 
REMARK    5  A    between atoms: C_14  and  C_15 
REMARK    6  A    between atoms: C_15  and  C_16 
REMARK    7  A    between atoms: C_19  and  S_20 
REMARK    8  A    between atoms: S_20  and  N_21 
REMARK    9  A    between atoms: N_27  and  C_28 
REMARK   10  A    between atoms: C_31  and  O_32 
REMARK   11  A    between atoms: O_32  and  C_33 
REMARK   12  A    between atoms: C_41  and  N_42 
ROOT
HETATM    1  C   UNL     1      39.074 -11.136   7.708  1.00  0.00     0.073 C 
HETATM    2  C   UNL     1      38.758 -10.829   6.288  1.00  0.00     0.068 A 
HETATM    3  N   UNL     1      38.036  -9.737   6.005  1.00  0.00    -0.177 NA
HETATM    4  N   UNL     1      37.949  -9.735   4.668  1.00  0.00    -0.260 N 
HETATM    5  H   UNL     1      37.449  -8.980   4.209  1.00  0.00     0.191 HD
HETATM    6  C   UNL     1      38.575 -10.802   4.092  1.00  0.00     0.162 A 
HETATM    7  C   UNL     1      39.129 -11.547   5.110  1.00  0.00     0.081 A 
HETATM    8  N   UNL     1      38.634 -11.068   2.790  1.00  0.00    -0.204 NA
HETATM    9  C   UNL     1      39.366 -12.172   2.520  1.00  0.00     0.177 A 
HETATM   10  N   UNL     1      39.976 -12.955   3.458  1.00  0.00    -0.276 N 
HETATM   11  C   UNL     1      39.841 -12.717   4.799  1.00  0.00     0.124 A 
ENDROOT
BRANCH   9  12
HETATM   12  S   UNL     1      39.504 -12.474   0.758  1.00  0.00    -0.082 SA
BRANCH  12  13
HETATM   13  C   UNL     1      39.630 -10.746   0.187  1.00  0.00     0.185 C 
BRANCH  13  14
HETATM   14  C   UNL     1      40.789 -10.008   0.836  1.00  0.00     0.227 C 
HETATM   15  N   UNL     1      40.375  -8.921   1.586  1.00  0.00    -0.360 N 
HETATM   16  H   UNL     1      39.397  -8.851   1.840  1.00  0.00     0.162 HD
HETATM   17  O   UNL     1      41.967 -10.294   0.655  1.00  0.00    -0.273 OA
BRANCH  15  18
HETATM   18  C   UNL     1      41.306  -8.141   2.388  1.00  0.00     0.127 C 
BRANCH  18  19
HETATM   19  C   UNL     1      40.853  -8.056   3.848  1.00  0.00     0.058 C 
BRANCH  19  20
HETATM   20  C   UNL     1      41.626  -9.003   4.729  1.00  0.00    -0.057 A 
HETATM   21  C   UNL     1      41.698  -8.793   6.114  1.00  0.00     0.009 A 
HETATM   22  C   UNL     1      42.455  -9.647   6.920  1.00  0.00     0.025 A 
HETATM   23  C   UNL     1      43.139 -10.718   6.339  1.00  0.00     0.074 A 
HETATM   24  C   UNL     1      43.082 -10.936   4.961  1.00  0.00     0.025 A 
HETATM   25  C   UNL     1      42.324 -10.081   4.161  1.00  0.00     0.009 A 
BRANCH  23  26
HETATM   26  S   UNL     1      44.155 -11.761   7.344  1.00  0.00     0.239 S 
HETATM   27  O   UNL     1      45.334 -12.131   6.594  1.00  0.00    -0.206 OA
HETATM   28  O   UNL     1      44.224 -11.213   8.676  1.00  0.00    -0.206 OA
BRANCH  26  29
HETATM   29  N   UNL     1      43.224 -13.152   7.460  1.00  0.00    -0.225 NA
HETATM   30  H   UNL     1      43.726 -13.861   7.996  1.00  0.00     0.136 HD
HETATM   31  H   UNL     1      42.308 -12.921   7.849  1.00  0.00     0.136 HD
ENDBRANCH  26  29
ENDBRANCH  23  26
ENDBRANCH  19  20
ENDBRANCH  18  19
ENDBRANCH  15  18
ENDBRANCH  13  14
ENDBRANCH  12  13
ENDBRANCH   9  12
BRANCH  10  32
HETATM   32  C   UNL     1      40.846 -14.034   3.046  1.00  0.00     0.043 A 
HETATM   33  C   UNL     1      42.205 -13.759   2.872  1.00  0.00     0.033 A 
HETATM   34  C   UNL     1      43.075 -14.808   2.580  1.00  0.00     0.039 A 
HETATM   35  C   UNL     1      42.597 -16.119   2.451  1.00  0.00     0.076 A 
HETATM   36  C   UNL     1      41.229 -16.374   2.607  1.00  0.00     0.039 A 
HETATM   37  C   UNL     1      40.348 -15.333   2.929  1.00  0.00     0.033 A 
BRANCH  35  38
HETATM   38  O   UNL     1      43.574 -17.047   2.169  1.00  0.00    -0.311 OA
BRANCH  38  39
HETATM   39  C   UNL     1      43.649 -18.193   2.917  1.00  0.00     0.076 A 
HETATM   40  C   UNL     1      43.429 -19.409   2.271  1.00  0.00     0.037 A 
HETATM   41  C   UNL     1      43.575 -20.603   2.976  1.00  0.00     0.003 A 
HETATM   42  C   UNL     1      43.949 -20.578   4.319  1.00  0.00     0.000 A 
HETATM   43  C   UNL     1      44.193 -19.359   4.957  1.00  0.00     0.003 A 
HETATM   44  C   UNL     1      44.059 -18.163   4.252  1.00  0.00     0.037 A 
ENDBRANCH  38  39
ENDBRANCH  35  38
ENDBRANCH  10  32
BRANCH  11  45
HETATM   45  N   UNL     1      40.363 -13.556   5.778  1.00  0.00    -0.384 N 
HETATM   46  H   UNL     1      41.275 -13.987   5.664  1.00  0.00     0.157 HD
HETATM   47  H   UNL     1      39.716 -14.105   6.335  1.00  0.00     0.157 HD
ENDBRANCH  11  45
TORSDOF 12
ENDMDL
MODEL 3
REMARK VINA RESULT:      -9.7      2.044      2.615
REMARK  12 active torsions:
REMARK  status: ('A' for Active; 'I' for Inactive)
REMARK    1  A    between atoms: C_9  and  S_10 
REMARK    2  A    between atoms: S_10  and  C_11 
REMARK    3  A    between atoms: C_11  and  C_12 
REMARK       I    between atoms: C_12  and  N_13 
REMARK    4  A    between atoms: N_13  and  C_14 
REMARK    5  A    between atoms: C_14  and  C_15 
REMARK    6  A    between atoms: C_15  and  C_16 
REMARK    7  A    between atoms: C_19  and  S_20 
REMARK    8  A    between atoms: S_20  and  N_21 
REMARK    9  A    between atoms: N_27  and  C_28 
REMARK   10  A    between atoms: C_31  and  O_32 
REMARK   11  A    between atoms: O_32  and  C_33 
REMARK   12  A    between atoms: C_41  and  N_42 
ROOT
HETATM    1  C   UNL     1      39.380 -13.354  -2.073  1.00  0.00     0.073 C 
HETATM    2  C   UNL     1      38.939 -12.712  -0.806  1.00  0.00     0.068 A 
HETATM    3  N   UNL     1      37.938 -11.824  -0.843  1.00  0.00    -0.177 NA
HETATM    4  N   UNL     1      37.773 -11.457   0.435  1.00  0.00    -0.260 N 
HETATM    5  H   UNL     1      37.046 -10.787   0.665  1.00  0.00     0.191 HD
HETATM    6  C   UNL     1      38.651 -12.070   1.282  1.00  0.00     0.162 A 
HETATM    7  C   UNL     1      39.433 -12.908   0.519  1.00  0.00     0.081 A 
HETATM    8  N   UNL     1      38.732 -11.884   2.597  1.00  0.00    -0.204 NA
HETATM    9  C   UNL     1      39.671 -12.668   3.173  1.00  0.00     0.177 A 
HETATM   10  N   UNL     1      40.472 -13.549   2.505  1.00  0.00    -0.276 N 
HETATM   11  C   UNL     1      40.434 -13.672   1.142  1.00  0.00     0.124 A 
ENDROOT
BRANCH   9  12
HETATM   12  S   UNL     1      39.716 -12.466   4.954  1.00  0.00    -0.082 SA
BRANCH  12  13
HETATM   13  C   UNL     1      41.086 -11.266   5.064  1.00  0.00     0.185 C 
BRANCH  13  14
HETATM   14  C   UNL     1      42.140 -11.686   6.075  1.00  0.00     0.227 C 
HETATM   15  N   UNL     1      42.887 -10.617   6.540  1.00  0.00    -0.360 N 
HETATM   16  H   UNL     1      42.540  -9.679   6.383  1.00  0.00     0.162 HD
HETATM   17  O   UNL     1      42.358 -12.850   6.389  1.00  0.00    -0.273 OA
BRANCH  15  18
HETATM   18  C   UNL     1      43.873 -10.772   7.600  1.00  0.00     0.127 C 
BRANCH  18  19
HETATM   19  C   UNL     1      43.935  -9.531   8.492  1.00  0.00     0.058 C 
BRANCH  19  20
HETATM   20  C   UNL     1      42.988  -9.636   9.661  1.00  0.00    -0.057 A 
HETATM   21  C   UNL     1      41.639  -9.279   9.523  1.00  0.00     0.009 A 
HETATM   22  C   UNL     1      40.777  -9.332  10.621  1.00  0.00     0.025 A 
HETATM   23  C   UNL     1      41.267  -9.750  11.861  1.00  0.00     0.074 A 
HETATM   24  C   UNL     1      42.609 -10.102  12.016  1.00  0.00     0.025 A 
HETATM   25  C   UNL     1      43.465 -10.047  10.916  1.00  0.00     0.009 A 
BRANCH  23  26
HETATM   26  S   UNL     1      40.197  -9.753  13.272  1.00  0.00     0.239 S 
HETATM   27  O   UNL     1      39.671 -11.085  13.458  1.00  0.00    -0.206 OA
HETATM   28  O   UNL     1      40.819  -9.008  14.339  1.00  0.00    -0.206 OA
BRANCH  26  29
HETATM   29  N   UNL     1      38.911  -8.816  12.738  1.00  0.00    -0.225 NA
HETATM   30  H   UNL     1      39.251  -7.903  12.434  1.00  0.00     0.136 HD
HETATM   31  H   UNL     1      38.397  -9.320  12.013  1.00  0.00     0.136 HD
ENDBRANCH  26  29
ENDBRANCH  23  26
ENDBRANCH  19  20
ENDBRANCH  18  19
ENDBRANCH  15  18
ENDBRANCH  13  14
ENDBRANCH  12  13
ENDBRANCH   9  12
BRANCH  10  32
HETATM   32  C   UNL     1      41.348 -14.433   3.240  1.00  0.00     0.043 A 
HETATM   33  C   UNL     1      40.806 -15.604   3.779  1.00  0.00     0.033 A 
HETATM   34  C   UNL     1      41.656 -16.519   4.397  1.00  0.00     0.039 A 
HETATM   35  C   UNL     1      43.031 -16.269   4.491  1.00  0.00     0.076 A 
HETATM   36  C   UNL     1      43.554 -15.081   3.965  1.00  0.00     0.039 A 
HETATM   37  C   UNL     1      42.716 -14.166   3.315  1.00  0.00     0.033 A 
BRANCH  35  38
HETATM   38  O   UNL     1      43.741 -17.266   5.122  1.00  0.00    -0.311 OA
BRANCH  38  39
HETATM   39  C   UNL     1      43.860 -18.492   4.520  1.00  0.00     0.076 A 
HETATM   40  C   UNL     1      43.907 -19.618   5.340  1.00  0.00     0.037 A 
HETATM   41  C   UNL     1      43.945 -20.889   4.767  1.00  0.00     0.003 A 
HETATM   42  C   UNL     1      43.928 -21.028   3.379  1.00  0.00     0.000 A 
HETATM   43  C   UNL     1      43.856 -19.899   2.562  1.00  0.00     0.003 A 
HETATM   44  C   UNL     1      43.805 -18.627   3.131  1.00  0.00     0.037 A 
ENDBRANCH  38  39
ENDBRANCH  35  38
ENDBRANCH  10  32
BRANCH  11  45
HETATM   45  N   UNL     1      41.309 -14.483   0.426  1.00  0.00    -0.384 N 
HETATM   46  H   UNL     1      41.675 -14.190  -0.473  1.00  0.00     0.157 HD
HETATM   47  H   UNL     1      41.220 -15.490   0.524  1.00  0.00     0.157 HD
ENDBRANCH  11  45
TORSDOF 12
ENDMDL
MODEL 4
REMARK VINA RESULT:      -9.5      2.841      5.878
REMARK  12 active torsions:
REMARK  status: ('A' for Active; 'I' for Inactive)
REMARK    1  A    between atoms: C_9  and  S_10 
REMARK    2  A    between atoms: S_10  and  C_11 
REMARK    3  A    between atoms: C_11  and  C_12 
REMARK       I    between atoms: C_12  and  N_13 
REMARK    4  A    between atoms: N_13  and  C_14 
REMARK    5  A    between atoms: C_14  and  C_15 
REMARK    6  A    between atoms: C_15  and  C_16 
REMARK    7  A    between atoms: C_19  and  S_20 
REMARK    8  A    between atoms: S_20  and  N_21 
REMARK    9  A    between atoms: N_27  and  C_28 
REMARK   10  A    between atoms: C_31  and  O_32 
REMARK   11  A    between atoms: O_32  and  C_33 
REMARK   12  A    between atoms: C_41  and  N_42 
ROOT
HETATM    1  C   UNL     1      43.655 -19.472   5.237  1.00  0.00     0.073 C 
HETATM    2  C   UNL     1      43.504 -18.221   6.026  1.00  0.00     0.068 A 
HETATM    3  N   UNL     1      43.914 -18.204   7.301  1.00  0.00    -0.177 NA
HETATM    4  N   UNL     1      43.664 -16.954   7.712  1.00  0.00    -0.260 N 
HETATM    5  H   UNL     1      43.909 -16.691   8.662  1.00  0.00     0.191 HD
HETATM    6  C   UNL     1      43.089 -16.180   6.746  1.00  0.00     0.162 A 
HETATM    7  C   UNL     1      42.968 -16.961   5.618  1.00  0.00     0.081 A 
HETATM    8  N   UNL     1      42.716 -14.910   6.878  1.00  0.00    -0.204 NA
HETATM    9  C   UNL     1      42.219 -14.396   5.731  1.00  0.00     0.177 A 
HETATM   10  N   UNL     1      42.088 -15.082   4.557  1.00  0.00    -0.276 N 
HETATM   11  C   UNL     1      42.401 -16.411   4.457  1.00  0.00     0.124 A 
ENDROOT
BRANCH   9  12
HETATM   12  S   UNL     1      41.793 -12.662   5.899  1.00  0.00    -0.082 SA
BRANCH  12  13
HETATM   13  C   UNL     1      43.418 -11.936   5.498  1.00  0.00     0.185 C 
BRANCH  13  14
HETATM   14  C   UNL     1      44.289 -11.757   6.731  1.00  0.00     0.227 C 
HETATM   15  N   UNL     1      45.471 -11.092   6.455  1.00  0.00    -0.360 N 
HETATM   16  H   UNL     1      45.551 -10.587   5.581  1.00  0.00     0.162 HD
HETATM   17  O   UNL     1      44.013 -12.216   7.833  1.00  0.00    -0.273 OA
BRANCH  15  18
HETATM   18  C   UNL     1      46.401 -10.710   7.508  1.00  0.00     0.127 C 
BRANCH  18  19
HETATM   19  C   UNL     1      46.203  -9.251   7.926  1.00  0.00     0.058 C 
BRANCH  19  20
HETATM   20  C   UNL     1      45.167  -9.116   9.012  1.00  0.00    -0.057 A 
HETATM   21  C   UNL     1      45.211  -9.937  10.148  1.00  0.00     0.009 A 
HETATM   22  C   UNL     1      44.221  -9.841  11.129  1.00  0.00     0.025 A 
HETATM   23  C   UNL     1      43.184  -8.917  10.974  1.00  0.00     0.074 A 
HETATM   24  C   UNL     1      43.124  -8.097   9.845  1.00  0.00     0.025 A 
HETATM   25  C   UNL     1      44.115  -8.197   8.869  1.00  0.00     0.009 A 
BRANCH  23  26
HETATM   26  S   UNL     1      41.889  -8.839  12.177  1.00  0.00     0.239 S 
HETATM   27  O   UNL     1      42.438  -9.143  13.479  1.00  0.00    -0.206 OA
HETATM   28  O   UNL     1      41.083  -7.668  11.931  1.00  0.00    -0.206 OA
BRANCH  26  29
HETATM   29  N   UNL     1      40.939 -10.156  11.755  1.00  0.00    -0.225 NA
HETATM   30  H   UNL     1      39.956  -9.943  11.930  1.00  0.00     0.136 HD
HETATM   31  H   UNL     1      41.131 -10.422  10.788  1.00  0.00     0.136 HD
ENDBRANCH  26  29
ENDBRANCH  23  26
ENDBRANCH  19  20
ENDBRANCH  18  19
ENDBRANCH  15  18
ENDBRANCH  13  14
ENDBRANCH  12  13
ENDBRANCH   9  12
BRANCH  10  32
HETATM   32  C   UNL     1      41.670 -14.393   3.358  1.00  0.00     0.043 A 
HETATM   33  C   UNL     1      40.300 -14.236   3.129  1.00  0.00     0.033 A 
HETATM   34  C   UNL     1      39.880 -13.482   2.034  1.00  0.00     0.039 A 
HETATM   35  C   UNL     1      40.813 -12.899   1.166  1.00  0.00     0.076 A 
HETATM   36  C   UNL     1      42.182 -13.085   1.398  1.00  0.00     0.039 A 
HETATM   37  C   UNL     1      42.618 -13.816   2.511  1.00  0.00     0.033 A 
BRANCH  35  38
HETATM   38  O   UNL     1      40.249 -12.179   0.137  1.00  0.00    -0.311 OA
BRANCH  38  39
HETATM   39  C   UNL     1      39.524 -12.834  -0.824  1.00  0.00     0.076 A 
HETATM   40  C   UNL     1      38.266 -12.328  -1.149  1.00  0.00     0.037 A 
HETATM   41  C   UNL     1      37.529 -12.915  -2.178  1.00  0.00     0.003 A 
HETATM   42  C   UNL     1      38.055 -13.999  -2.881  1.00  0.00     0.000 A 
HETATM   43  C   UNL     1      39.326 -14.487  -2.569  1.00  0.00     0.003 A 
HETATM   44  C   UNL     1      40.070 -13.895  -1.549  1.00  0.00     0.037 A 
ENDBRANCH  38  39
ENDBRANCH  35  38
ENDBRANCH  10  32
BRANCH  11  45
HETATM   45  N   UNL     1      42.181 -17.160   3.306  1.00  0.00    -0.384 N 
HETATM   46  H   UNL     1      42.650 -18.049   3.164  1.00  0.00     0.157 HD
HETATM   47  H   UNL     1      41.966 -16.667   2.445  1.00  0.00     0.157 HD
ENDBRANCH  11  45
TORSDOF 12
ENDMDL
MODEL 5
REMARK VINA RESULT:      -9.5      1.692      2.215
REMARK  12 active torsions:
REMARK  status: ('A' for Active; 'I' for Inactive)
REMARK    1  A    between atoms: C_9  and  S_10 
REMARK    2  A    between atoms: S_10  and  C_11 
REMARK    3  A    between atoms: C_11  and  C_12 
REMARK       I    between atoms: C_12  and  N_13 
REMARK    4  A    between atoms: N_13  and  C_14 
REMARK    5  A    between atoms: C_14  and  C_15 
REMARK    6  A    between atoms: C_15  and  C_16 
REMARK    7  A    between atoms: C_19  and  S_20 
REMARK    8  A    between atoms: S_20  and  N_21 
REMARK    9  A    between atoms: N_27  and  C_28 
REMARK   10  A    between atoms: C_31  and  O_32 
REMARK   11  A    between atoms: O_32  and  C_33 
REMARK   12  A    between atoms: C_41  and  N_42 
ROOT
HETATM    1  C   UNL     1      37.721  -9.719   2.220  1.00  0.00     0.073 C 
HETATM    2  C   UNL     1      38.553  -9.872   3.443  1.00  0.00     0.068 A 
HETATM    3  N   UNL     1      38.386  -9.010   4.454  1.00  0.00    -0.177 NA
HETATM    4  N   UNL     1      39.250  -9.426   5.390  1.00  0.00    -0.260 N 
HETATM    5  H   UNL     1      39.296  -8.927   6.273  1.00  0.00     0.191 HD
HETATM    6  C   UNL     1      39.975 -10.514   4.999  1.00  0.00     0.162 A 
HETATM    7  C   UNL     1      39.552 -10.851   3.733  1.00  0.00     0.081 A 
HETATM    8  N   UNL     1      40.915 -11.127   5.713  1.00  0.00    -0.204 NA
HETATM    9  C   UNL     1      41.426 -12.206   5.078  1.00  0.00     0.177 A 
HETATM   10  N   UNL     1      41.049 -12.634   3.837  1.00  0.00    -0.276 N 
HETATM   11  C   UNL     1      40.138 -11.948   3.080  1.00  0.00     0.124 A 
ENDROOT
BRANCH   9  12
HETATM   12  S   UNL     1      42.635 -13.069   6.081  1.00  0.00    -0.082 SA
BRANCH  12  13
HETATM   13  C   UNL     1      44.039 -11.924   5.873  1.00  0.00     0.185 C 
BRANCH  13  14
HETATM   14  C   UNL     1      44.531 -11.367   7.199  1.00  0.00     0.227 C 
HETATM   15  N   UNL     1      43.501 -10.888   7.989  1.00  0.00    -0.360 N 
HETATM   16  H   UNL     1      42.550 -11.153   7.761  1.00  0.00     0.162 HD
HETATM   17  O   UNL     1      45.714 -11.281   7.505  1.00  0.00    -0.273 OA
BRANCH  15  18
HETATM   18  C   UNL     1      43.730 -10.417   9.348  1.00  0.00     0.127 C 
BRANCH  18  19
HETATM   19  C   UNL     1      44.120  -8.937   9.368  1.00  0.00     0.058 C 
BRANCH  19  20
HETATM   20  C   UNL     1      43.564  -8.230  10.578  1.00  0.00    -0.057 A 
HETATM   21  C   UNL     1      43.735  -8.768  11.862  1.00  0.00     0.009 A 
HETATM   22  C   UNL     1      43.177  -8.134  12.975  1.00  0.00     0.025 A 
HETATM   23  C   UNL     1      42.450  -6.953  12.802  1.00  0.00     0.074 A 
HETATM   24  C   UNL     1      42.266  -6.409  11.530  1.00  0.00     0.025 A 
HETATM   25  C   UNL     1      42.826  -7.046  10.422  1.00  0.00     0.009 A 
BRANCH  23  26
HETATM   26  S   UNL     1      41.682  -6.183  14.198  1.00  0.00     0.239 S 
HETATM   27  O   UNL     1      41.728  -4.748  14.027  1.00  0.00    -0.206 OA
HETATM   28  O   UNL     1      40.464  -6.887  14.518  1.00  0.00    -0.206 OA
BRANCH  26  29
HETATM   29  N   UNL     1      42.763  -6.537  15.432  1.00  0.00    -0.225 NA
HETATM   30  H   UNL     1      43.687  -6.719  15.040  1.00  0.00     0.136 HD
HETATM   31  H   UNL     1      42.755  -5.783  16.122  1.00  0.00     0.136 HD
ENDBRANCH  26  29
ENDBRANCH  23  26
ENDBRANCH  19  20
ENDBRANCH  18  19
ENDBRANCH  15  18
ENDBRANCH  13  14
ENDBRANCH  12  13
ENDBRANCH   9  12
BRANCH  10  32
HETATM   32  C   UNL     1      41.565 -13.878   3.312  1.00  0.00     0.043 A 
HETATM   33  C   UNL     1      42.803 -13.859   2.663  1.00  0.00     0.033 A 
HETATM   34  C   UNL     1      43.365 -15.065   2.246  1.00  0.00     0.039 A 
HETATM   35  C   UNL     1      42.698 -16.278   2.460  1.00  0.00     0.076 A 
HETATM   36  C   UNL     1      41.449 -16.276   3.092  1.00  0.00     0.039 A 
HETATM   37  C   UNL     1      40.885 -15.075   3.543  1.00  0.00     0.033 A 
BRANCH  35  38
HETATM   38  O   UNL     1      43.380 -17.382   2.000  1.00  0.00    -0.311 OA
BRANCH  38  39
HETATM   39  C   UNL     1      43.563 -18.455   2.833  1.00  0.00     0.076 A 
HETATM   40  C   UNL     1      43.443 -19.732   2.287  1.00  0.00     0.037 A 
HETATM   41  C   UNL     1      43.702 -20.850   3.079  1.00  0.00     0.003 A 
HETATM   42  C   UNL     1      44.086 -20.687   4.410  1.00  0.00     0.000 A 
HETATM   43  C   UNL     1      44.229 -19.406   4.947  1.00  0.00     0.003 A 
HETATM   44  C   UNL     1      43.983 -18.285   4.154  1.00  0.00     0.037 A 
ENDBRANCH  38  39
ENDBRANCH  35  38
ENDBRANCH  10  32
BRANCH  11  45
HETATM   45  N   UNL     1      39.814 -12.301   1.774  1.00  0.00    -0.384 N 
HETATM   46  H   UNL     1      40.516 -12.674   1.144  1.00  0.00     0.157 HD
HETATM   47  H   UNL     1      39.075 -11.784   1.306  1.00  0.00     0.157 HD
ENDBRANCH  11  45
TORSDOF 12
ENDMDL
MODEL 6
REMARK VINA RESULT:      -9.4      1.785      2.332
REMARK  12 active torsions:
REMARK  status: ('A' for Active; 'I' for Inactive)
REMARK    1  A    between atoms: C_9  and  S_10 
REMARK    2  A    between atoms: S_10  and  C_11 
REMARK    3  A    between atoms: C_11  and  C_12 
REMARK       I    between atoms: C_12  and  N_13 
REMARK    4  A    between atoms: N_13  and  C_14 
REMARK    5  A    between atoms: C_14  and  C_15 
REMARK    6  A    between atoms: C_15  and  C_16 
REMARK    7  A    between atoms: C_19  and  S_20 
REMARK    8  A    between atoms: S_20  and  N_21 
REMARK    9  A    between atoms: N_27  and  C_28 
REMARK   10  A    between atoms: C_31  and  O_32 
REMARK   11  A    between atoms: O_32  and  C_33 
REMARK   12  A    between atoms: C_41  and  N_42 
ROOT
HETATM    1  C   UNL     1      37.926  -9.491   4.792  1.00  0.00     0.073 C 
HETATM    2  C   UNL     1      39.163  -9.645   5.603  1.00  0.00     0.068 A 
HETATM    3  N   UNL     1      39.371  -8.818   6.635  1.00  0.00    -0.177 NA
HETATM    4  N   UNL     1      40.535  -9.226   7.158  1.00  0.00    -0.260 N 
HETATM    5  H   UNL     1      40.900  -8.749   7.976  1.00  0.00     0.191 HD
HETATM    6  C   UNL     1      41.086 -10.274   6.479  1.00  0.00     0.162 A 
HETATM    7  C   UNL     1      40.222 -10.593   5.454  1.00  0.00     0.081 A 
HETATM    8  N   UNL     1      42.241 -10.870   6.759  1.00  0.00    -0.204 NA
HETATM    9  C   UNL     1      42.499 -11.911   5.936  1.00  0.00     0.177 A 
HETATM   10  N   UNL     1      41.691 -12.319   4.913  1.00  0.00    -0.276 N 
HETATM   11  C   UNL     1      40.544 -11.648   4.585  1.00  0.00     0.124 A 
ENDROOT
BRANCH   9  12
HETATM   12  S   UNL     1      44.020 -12.754   6.373  1.00  0.00    -0.082 SA
BRANCH  12  13
HETATM   13  C   UNL     1      45.209 -11.472   5.851  1.00  0.00     0.185 C 
BRANCH  13  14
HETATM   14  C   UNL     1      45.831 -10.747   7.034  1.00  0.00     0.227 C 
HETATM   15  N   UNL     1      45.054  -9.691   7.478  1.00  0.00    -0.360 N 
HETATM   16  H   UNL     1      44.089  -9.639   7.177  1.00  0.00     0.162 HD
HETATM   17  O   UNL     1      46.932 -11.017   7.497  1.00  0.00    -0.273 OA
BRANCH  15  18
HETATM   18  C   UNL     1      45.400  -8.932   8.671  1.00  0.00     0.127 C 
BRANCH  18  19
HETATM   19  C   UNL     1      44.388  -7.814   8.936  1.00  0.00     0.058 C 
BRANCH  19  20
HETATM   20  C   UNL     1      43.375  -8.214   9.978  1.00  0.00    -0.057 A 
HETATM   21  C   UNL     1      42.039  -7.800   9.872  1.00  0.00     0.009 A 
HETATM   22  C   UNL     1      41.115  -8.133  10.865  1.00  0.00     0.025 A 
HETATM   23  C   UNL     1      41.528  -8.887  11.967  1.00  0.00     0.074 A 
HETATM   24  C   UNL     1      42.855  -9.301  12.089  1.00  0.00     0.025 A 
HETATM   25  C   UNL     1      43.774  -8.966  11.094  1.00  0.00     0.009 A 
BRANCH  23  26
HETATM   26  S   UNL     1      40.378  -9.252  13.262  1.00  0.00     0.239 S 
HETATM   27  O   UNL     1      41.042  -9.094  14.536  1.00  0.00    -0.206 OA
HETATM   28  O   UNL     1      39.114  -8.626  12.964  1.00  0.00    -0.206 OA
BRANCH  26  29
HETATM   29  N   UNL     1      40.140 -10.902  13.064  1.00  0.00    -0.225 NA
HETATM   30  H   UNL     1      40.197 -11.143  12.074  1.00  0.00     0.136 HD
HETATM   31  H   UNL     1      40.803 -11.417  13.646  1.00  0.00     0.136 HD
ENDBRANCH  26  29
ENDBRANCH  23  26
ENDBRANCH  19  20
ENDBRANCH  18  19
ENDBRANCH  15  18
ENDBRANCH  13  14
ENDBRANCH  12  13
ENDBRANCH   9  12
BRANCH  10  32
HETATM   32  C   UNL     1      42.001 -13.527   4.184  1.00  0.00     0.043 A 
HETATM   33  C   UNL     1      42.935 -13.453   3.146  1.00  0.00     0.033 A 
HETATM   34  C   UNL     1      43.325 -14.627   2.503  1.00  0.00     0.039 A 
HETATM   35  C   UNL     1      42.783 -15.863   2.878  1.00  0.00     0.076 A 
HETATM   36  C   UNL     1      41.833 -15.917   3.905  1.00  0.00     0.039 A 
HETATM   37  C   UNL     1      41.453 -14.749   4.580  1.00  0.00     0.033 A 
BRANCH  35  38
HETATM   38  O   UNL     1      43.270 -16.931   2.158  1.00  0.00    -0.311 OA
BRANCH  38  39
HETATM   39  C   UNL     1      43.571 -18.099   2.808  1.00  0.00     0.076 A 
HETATM   40  C   UNL     1      44.022 -18.015   4.125  1.00  0.00     0.037 A 
HETATM   41  C   UNL     1      44.262 -19.182   4.849  1.00  0.00     0.003 A 
HETATM   42  C   UNL     1      44.044 -20.427   4.258  1.00  0.00     0.000 A 
HETATM   43  C   UNL     1      43.569 -20.507   2.947  1.00  0.00     0.003 A 
HETATM   44  C   UNL     1      43.316 -19.341   2.223  1.00  0.00     0.037 A 
ENDBRANCH  38  39
ENDBRANCH  35  38
ENDBRANCH  10  32
BRANCH  11  45
HETATM   45  N   UNL     1      39.758 -11.978   3.486  1.00  0.00    -0.384 N 
HETATM   46  H   UNL     1      40.107 -12.594   2.759  1.00  0.00     0.157 HD
HETATM   47  H   UNL     1      39.083 -11.294   3.155  1.00  0.00     0.157 HD
ENDBRANCH  11  45
TORSDOF 12
ENDMDL
MODEL 7
REMARK VINA RESULT:      -9.4      2.918      6.244
REMARK  12 active torsions:
REMARK  status: ('A' for Active; 'I' for Inactive)
REMARK    1  A    between atoms: C_9  and  S_10 
REMARK    2  A    between atoms: S_10  and  C_11 
REMARK    3  A    between atoms: C_11  and  C_12 
REMARK       I    between atoms: C_12  and  N_13 
REMARK    4  A    between atoms: N_13  and  C_14 
REMARK    5  A    between atoms: C_14  and  C_15 
REMARK    6  A    between atoms: C_15  and  C_16 
REMARK    7  A    between atoms: C_19  and  S_20 
REMARK    8  A    between atoms: S_20  and  N_21 
REMARK    9  A    between atoms: N_27  and  C_28 
REMARK   10  A    between atoms: C_31  and  O_32 
REMARK   11  A    between atoms: O_32  and  C_33 
REMARK   12  A    between atoms: C_41  and  N_42 
ROOT
HETATM    1  C   UNL     1      43.278 -19.230   2.271  1.00  0.00     0.073 C 
HETATM    2  C   UNL     1      43.566 -18.351   3.435  1.00  0.00     0.068 A 
HETATM    3  N   UNL     1      44.410 -18.781   4.381  1.00  0.00    -0.177 NA
HETATM    4  N   UNL     1      44.470 -17.770   5.257  1.00  0.00    -0.260 N 
HETATM    5  H   UNL     1      45.070 -17.859   6.071  1.00  0.00     0.191 HD
HETATM    6  C   UNL     1      43.675 -16.716   4.910  1.00  0.00     0.162 A 
HETATM    7  C   UNL     1      43.065 -17.043   3.718  1.00  0.00     0.081 A 
HETATM    8  N   UNL     1      43.521 -15.589   5.598  1.00  0.00    -0.204 NA
HETATM    9  C   UNL     1      42.702 -14.711   4.977  1.00  0.00     0.177 A 
HETATM   10  N   UNL     1      42.078 -14.933   3.782  1.00  0.00    -0.276 N 
HETATM   11  C   UNL     1      42.181 -16.128   3.123  1.00  0.00     0.124 A 
ENDROOT
BRANCH   9  12
HETATM   12  S   UNL     1      42.565 -13.166   5.875  1.00  0.00    -0.082 SA
BRANCH  12  13
HETATM   13  C   UNL     1      44.227 -13.130   6.625  1.00  0.00     0.185 C 
BRANCH  13  14
HETATM   14  C   UNL     1      44.780 -11.718   6.734  1.00  0.00     0.227 C 
HETATM   15  N   UNL     1      44.520 -11.138   7.963  1.00  0.00    -0.360 N 
HETATM   16  H   UNL     1      44.231 -11.734   8.729  1.00  0.00     0.162 HD
HETATM   17  O   UNL     1      45.329 -11.128   5.811  1.00  0.00    -0.273 OA
BRANCH  15  18
HETATM   18  C   UNL     1      45.058  -9.835   8.327  1.00  0.00     0.127 C 
BRANCH  18  19
HETATM   19  C   UNL     1      45.401  -9.768   9.817  1.00  0.00     0.058 C 
BRANCH  19  20
HETATM   20  C   UNL     1      44.162  -9.745  10.675  1.00  0.00    -0.057 A 
HETATM   21  C   UNL     1      43.279  -8.656  10.627  1.00  0.00     0.009 A 
HETATM   22  C   UNL     1      42.157  -8.618  11.459  1.00  0.00     0.025 A 
HETATM   23  C   UNL     1      41.916  -9.676  12.339  1.00  0.00     0.074 A 
HETATM   24  C   UNL     1      42.789 -10.763  12.403  1.00  0.00     0.025 A 
HETATM   25  C   UNL     1      43.907 -10.796  11.570  1.00  0.00     0.009 A 
BRANCH  23  26
HETATM   26  S   UNL     1      40.536  -9.601  13.445  1.00  0.00     0.239 S 
HETATM   27  O   UNL     1      39.889 -10.893  13.476  1.00  0.00    -0.206 OA
HETATM   28  O   UNL     1      40.927  -8.901  14.644  1.00  0.00    -0.206 OA
BRANCH  26  29
HETATM   29  N   UNL     1      39.488  -8.576  12.628  1.00  0.00    -0.225 NA
HETATM   30  H   UNL     1      38.745  -8.268  13.257  1.00  0.00     0.136 HD
HETATM   31  H   UNL     1      40.014  -7.806  12.213  1.00  0.00     0.136 HD
ENDBRANCH  26  29
ENDBRANCH  23  26
ENDBRANCH  19  20
ENDBRANCH  18  19
ENDBRANCH  15  18
ENDBRANCH  13  14
ENDBRANCH  12  13
ENDBRANCH   9  12
BRANCH  10  32
HETATM   32  C   UNL     1      41.333 -13.871   3.145  1.00  0.00     0.043 A 
HETATM   33  C   UNL     1      41.991 -13.074   2.204  1.00  0.00     0.033 A 
HETATM   34  C   UNL     1      41.261 -12.116   1.502  1.00  0.00     0.039 A 
HETATM   35  C   UNL     1      39.892 -11.942   1.742  1.00  0.00     0.076 A 
HETATM   36  C   UNL     1      39.253 -12.734   2.704  1.00  0.00     0.039 A 
HETATM   37  C   UNL     1      39.968 -13.721   3.396  1.00  0.00     0.033 A 
BRANCH  35  38
HETATM   38  O   UNL     1      39.306 -10.964   0.969  1.00  0.00    -0.311 OA
BRANCH  38  39
HETATM   39  C   UNL     1      39.135 -11.181  -0.374  1.00  0.00     0.076 A 
HETATM   40  C   UNL     1      39.826 -10.356  -1.260  1.00  0.00     0.037 A 
HETATM   41  C   UNL     1      39.745 -10.593  -2.632  1.00  0.00     0.003 A 
HETATM   42  C   UNL     1      38.980 -11.657  -3.111  1.00  0.00     0.000 A 
HETATM   43  C   UNL     1      38.309 -12.496  -2.219  1.00  0.00     0.003 A 
HETATM   44  C   UNL     1      38.398 -12.269  -0.845  1.00  0.00     0.037 A 
ENDBRANCH  38  39
ENDBRANCH  35  38
ENDBRANCH  10  32
BRANCH  11  45
HETATM   45  N   UNL     1      41.475 -16.420   1.961  1.00  0.00    -0.384 N 
HETATM   46  H   UNL     1      40.601 -16.934   1.996  1.00  0.00     0.157 HD
HETATM   47  H   UNL     1      41.999 -16.560   1.102  1.00  0.00     0.157 HD
ENDBRANCH  11  45
TORSDOF 12
ENDMDL
MODEL 8
REMARK VINA RESULT:      -9.2      5.135      8.349
REMARK  12 active torsions:
REMARK  status: ('A' for Active; 'I' for Inactive)
REMARK    1  A    between atoms: C_9  and  S_10 
REMARK    2  A    between atoms: S_10  and  C_11 
REMARK    3  A    between atoms: C_11  and  C_12 
REMARK       I    between atoms: C_12  and  N_13 
REMARK    4  A    between atoms: N_13  and  C_14 
REMARK    5  A    between atoms: C_14  and  C_15 
REMARK    6  A    between atoms: C_15  and  C_16 
REMARK    7  A    between atoms: C_19  and  S_20 
REMARK    8  A    between atoms: S_20  and  N_21 
REMARK    9  A    between atoms: N_27  and  C_28 
REMARK   10  A    between atoms: C_31  and  O_32 
REMARK   11  A    between atoms: O_32  and  C_33 
REMARK   12  A    between atoms: C_41  and  N_42 
ROOT
HETATM    1  C   UNL     1      39.142  -9.364   5.605  1.00  0.00     0.073 C 
HETATM    2  C   UNL     1      38.848 -10.050   4.319  1.00  0.00     0.068 A 
HETATM    3  N   UNL     1      38.096  -9.423   3.405  1.00  0.00    -0.177 NA
HETATM    4  N   UNL     1      38.039 -10.281   2.378  1.00  0.00    -0.260 N 
HETATM    5  H   UNL     1      37.525 -10.015   1.544  1.00  0.00     0.191 HD
HETATM    6  C   UNL     1      38.715 -11.443   2.616  1.00  0.00     0.162 A 
HETATM    7  C   UNL     1      39.269 -11.340   3.872  1.00  0.00     0.081 A 
HETATM    8  N   UNL     1      38.812 -12.477   1.785  1.00  0.00    -0.204 NA
HETATM    9  C   UNL     1      39.587 -13.467   2.282  1.00  0.00     0.177 A 
HETATM   10  N   UNL     1      40.202 -13.443   3.501  1.00  0.00    -0.276 N 
HETATM   11  C   UNL     1      40.029 -12.408   4.379  1.00  0.00     0.124 A 
ENDROOT
BRANCH   9  12
HETATM   12  S   UNL     1      39.775 -14.821   1.122  1.00  0.00    -0.082 SA
BRANCH  12  13
HETATM   13  C   UNL     1      40.637 -13.927  -0.214  1.00  0.00     0.185 C 
BRANCH  13  14
HETATM   14  C   UNL     1      39.777 -13.785  -1.460  1.00  0.00     0.227 C 
HETATM   15  N   UNL     1      38.521 -13.276  -1.184  1.00  0.00    -0.360 N 
HETATM   16  H   UNL     1      38.364 -12.830  -0.289  1.00  0.00     0.162 HD
HETATM   17  O   UNL     1      40.128 -14.152  -2.575  1.00  0.00    -0.273 OA
BRANCH  15  18
HETATM   18  C   UNL     1      37.576 -12.948  -2.243  1.00  0.00     0.127 C 
BRANCH  18  19
HETATM   19  C   UNL     1      37.291 -11.446  -2.294  1.00  0.00     0.058 C 
BRANCH  19  20
HETATM   20  C   UNL     1      38.558 -10.634  -2.204  1.00  0.00    -0.057 A 
HETATM   21  C   UNL     1      38.817  -9.834  -1.082  1.00  0.00     0.009 A 
HETATM   22  C   UNL     1      39.970  -9.047  -1.025  1.00  0.00     0.025 A 
HETATM   23  C   UNL     1      40.870  -9.064  -2.094  1.00  0.00     0.074 A 
HETATM   24  C   UNL     1      40.622  -9.851  -3.221  1.00  0.00     0.025 A 
HETATM   25  C   UNL     1      39.470 -10.635  -3.272  1.00  0.00     0.009 A 
BRANCH  23  26
HETATM   26  S   UNL     1      42.296  -8.017  -2.059  1.00  0.00     0.239 S 
HETATM   27  O   UNL     1      43.300  -8.620  -1.213  1.00  0.00    -0.206 OA
HETATM   28  O   UNL     1      42.582  -7.562  -3.398  1.00  0.00    -0.206 OA
BRANCH  26  29
HETATM   29  N   UNL     1      41.727  -6.678  -1.223  1.00  0.00    -0.225 NA
HETATM   30  H   UNL     1      41.492  -6.943  -0.265  1.00  0.00     0.136 HD
HETATM   31  H   UNL     1      42.411  -5.922  -1.279  1.00  0.00     0.136 HD
ENDBRANCH  26  29
ENDBRANCH  23  26
ENDBRANCH  19  20
ENDBRANCH  18  19
ENDBRANCH  15  18
ENDBRANCH  13  14
ENDBRANCH  12  13
ENDBRANCH   9  12
BRANCH  10  32
HETATM   32  C   UNL     1      41.116 -14.499   3.872  1.00  0.00     0.043 A 
HETATM   33  C   UNL     1      42.459 -14.371   3.505  1.00  0.00     0.033 A 
HETATM   34  C   UNL     1      43.374 -15.326   3.946  1.00  0.00     0.039 A 
HETATM   35  C   UNL     1      42.957 -16.405   4.736  1.00  0.00     0.076 A 
HETATM   36  C   UNL     1      41.605 -16.530   5.077  1.00  0.00     0.039 A 
HETATM   37  C   UNL     1      40.679 -15.562   4.665  1.00  0.00     0.033 A 
BRANCH  35  38
HETATM   38  O   UNL     1      43.974 -17.260   5.101  1.00  0.00    -0.311 OA
BRANCH  38  39
HETATM   39  C   UNL     1      43.998 -18.533   4.594  1.00  0.00     0.076 A 
HETATM   40  C   UNL     1      44.025 -19.594   5.498  1.00  0.00     0.037 A 
HETATM   41  C   UNL     1      43.968 -20.905   5.027  1.00  0.00     0.003 A 
HETATM   42  C   UNL     1      43.876 -21.150   3.657  1.00  0.00     0.000 A 
HETATM   43  C   UNL     1      43.824 -20.084   2.756  1.00  0.00     0.003 A 
HETATM   44  C   UNL     1      43.869 -18.771   3.224  1.00  0.00     0.037 A 
ENDBRANCH  38  39
ENDBRANCH  35  38
ENDBRANCH  10  32
BRANCH  11  45
HETATM   45  N   UNL     1      40.556 -12.404   5.666  1.00  0.00    -0.384 N 
HETATM   46  H   UNL     1      41.435 -12.867   5.871  1.00  0.00     0.157 HD
HETATM   47  H   UNL     1      39.911 -12.382   6.450  1.00  0.00     0.157 HD
ENDBRANCH  11  45
TORSDOF 12
ENDMDL
MODEL 9
REMARK VINA RESULT:      -9.2      2.465      3.191
REMARK  12 active torsions:
REMARK  status: ('A' for Active; 'I' for Inactive)
REMARK    1  A    between atoms: C_9  and  S_10 
REMARK    2  A    between atoms: S_10  and  C_11 
REMARK    3  A    between atoms: C_11  and  C_12 
REMARK       I    between atoms: C_12  and  N_13 
REMARK    4  A    between atoms: N_13  and  C_14 
REMARK    5  A    between atoms: C_14  and  C_15 
REMARK    6  A    between atoms: C_15  and  C_16 
REMARK    7  A    between atoms: C_19  and  S_20 
REMARK    8  A    between atoms: S_20  and  N_21 
REMARK    9  A    between atoms: N_27  and  C_28 
REMARK   10  A    between atoms: C_31  and  O_32 
REMARK   11  A    between atoms: O_32  and  C_33 
REMARK   12  A    between atoms: C_41  and  N_42 
ROOT
HETATM    1  C   UNL     1      38.342 -11.770  -2.364  1.00  0.00     0.073 C 
HETATM    2  C   UNL     1      38.282 -11.598  -0.888  1.00  0.00     0.068 A 
HETATM    3  N   UNL     1      37.433 -10.701  -0.372  1.00  0.00    -0.177 NA
HETATM    4  N   UNL     1      37.604 -10.806   0.952  1.00  0.00    -0.260 N 
HETATM    5  H   UNL     1      37.047 -10.222   1.568  1.00  0.00     0.191 HD
HETATM    6  C   UNL     1      38.550 -11.728   1.295  1.00  0.00     0.162 A 
HETATM    7  C   UNL     1      39.021 -12.282   0.126  1.00  0.00     0.081 A 
HETATM    8  N   UNL     1      38.941 -12.029   2.531  1.00  0.00    -0.204 NA
HETATM    9  C   UNL     1      39.862 -13.018   2.556  1.00  0.00     0.177 A 
HETATM   10  N   UNL     1      40.366 -13.646   1.453  1.00  0.00    -0.276 N 
HETATM   11  C   UNL     1      40.015 -13.273   0.184  1.00  0.00     0.124 A 
ENDROOT
BRANCH   9  12
HETATM   12  S   UNL     1      40.322 -13.468   4.229  1.00  0.00    -0.082 SA
BRANCH  12  13
HETATM   13  C   UNL     1      39.356 -12.211   5.132  1.00  0.00     0.185 C 
BRANCH  13  14
HETATM   14  C   UNL     1      40.241 -11.165   5.789  1.00  0.00     0.227 C 
HETATM   15  N   UNL     1      39.724  -9.886   5.680  1.00  0.00    -0.360 N 
HETATM   16  H   UNL     1      38.751  -9.776   5.420  1.00  0.00     0.162 HD
HETATM   17  O   UNL     1      41.330 -11.413   6.293  1.00  0.00    -0.273 OA
BRANCH  15  18
HETATM   18  C   UNL     1      40.348  -8.746   6.337  1.00  0.00     0.127 C 
BRANCH  18  19
HETATM   19  C   UNL     1      39.413  -8.117   7.373  1.00  0.00     0.058 C 
BRANCH  19  20
HETATM   20  C   UNL     1      39.807  -8.489   8.780  1.00  0.00    -0.057 A 
HETATM   21  C   UNL     1      41.069  -9.041   9.046  1.00  0.00     0.009 A 
HETATM   22  C   UNL     1      41.411  -9.428  10.345  1.00  0.00     0.025 A 
HETATM   23  C   UNL     1      40.489  -9.257  11.381  1.00  0.00     0.074 A 
HETATM   24  C   UNL     1      39.228  -8.714  11.129  1.00  0.00     0.025 A 
HETATM   25  C   UNL     1      38.891  -8.329   9.831  1.00  0.00     0.009 A 
BRANCH  23  26
HETATM   26  S   UNL     1      40.890  -9.809  13.014  1.00  0.00     0.239 S 
HETATM   27  O   UNL     1      42.195 -10.430  12.992  1.00  0.00    -0.206 OA
HETATM   28  O   UNL     1      40.536  -8.781  13.961  1.00  0.00    -0.206 OA
BRANCH  26  29
HETATM   29  N   UNL     1      39.788 -11.054  13.243  1.00  0.00    -0.225 NA
HETATM   30  H   UNL     1      39.834 -11.382  14.209  1.00  0.00     0.136 HD
HETATM   31  H   UNL     1      38.856 -10.743  12.963  1.00  0.00     0.136 HD
ENDBRANCH  26  29
ENDBRANCH  23  26
ENDBRANCH  19  20
ENDBRANCH  18  19
ENDBRANCH  15  18
ENDBRANCH  13  14
ENDBRANCH  12  13
ENDBRANCH   9  12
BRANCH  10  32
HETATM   32  C   UNL     1      41.246 -14.782   1.605  1.00  0.00     0.043 A 
HETATM   33  C   UNL     1      42.626 -14.554   1.605  1.00  0.00     0.033 A 
HETATM   34  C   UNL     1      43.486 -15.622   1.857  1.00  0.00     0.039 A 
HETATM   35  C   UNL     1      42.982 -16.907   2.096  1.00  0.00     0.076 A 
HETATM   36  C   UNL     1      41.599 -17.121   2.071  1.00  0.00     0.039 A 
HETATM   37  C   UNL     1      40.721 -16.053   1.848  1.00  0.00     0.033 A 
BRANCH  35  38
HETATM   38  O   UNL     1      43.952 -17.854   2.336  1.00  0.00    -0.311 OA
BRANCH  38  39
HETATM   39  C   UNL     1      43.842 -18.666   3.435  1.00  0.00     0.076 A 
HETATM   40  C   UNL     1      43.891 -20.045   3.233  1.00  0.00     0.037 A 
HETATM   41  C   UNL     1      43.864 -20.906   4.330  1.00  0.00     0.003 A 
HETATM   42  C   UNL     1      43.797 -20.385   5.623  1.00  0.00     0.000 A 
HETATM   43  C   UNL     1      43.773 -19.003   5.822  1.00  0.00     0.003 A 
HETATM   44  C   UNL     1      43.812 -18.139   4.727  1.00  0.00     0.037 A 
ENDBRANCH  38  39
ENDBRANCH  35  38
ENDBRANCH  10  32
BRANCH  11  45
HETATM   45  N   UNL     1      40.589 -13.823  -0.958  1.00  0.00    -0.384 N 
HETATM   46  H   UNL     1      40.068 -14.465  -1.547  1.00  0.00     0.157 HD
HETATM   47  H   UNL     1      41.592 -13.983  -0.963  1.00  0.00     0.157 HD
ENDBRANCH  11  45
TORSDOF 12
ENDMDL
MODEL 10
REMARK VINA RESULT:      -9.1      1.825      2.189
REMARK  12 active torsions:
REMARK  status: ('A' for Active; 'I' for Inactive)
REMARK    1  A    between atoms: C_9  and  S_10 
REMARK    2  A    between atoms: S_10  and  C_11 
REMARK    3  A    between atoms: C_11  and  C_12 
REMARK       I    between atoms: C_12  and  N_13 
REMARK    4  A    between atoms: N_13  and  C_14 
REMARK    5  A    between atoms: C_14  and  C_15 
REMARK    6  A    between atoms: C_15  and  C_16 
REMARK    7  A    between atoms: C_19  and  S_20 
REMARK    8  A    between atoms: S_20  and  N_21 
REMARK    9  A    between atoms: N_27  and  C_28 
REMARK   10  A    between atoms: C_31  and  O_32 
REMARK   11  A    between atoms: O_32  and  C_33 
REMARK   12  A    between atoms: C_41  and  N_42 
ROOT
HETATM    1  C   UNL     1      39.454 -12.022  -2.682  1.00  0.00     0.073 C 
HETATM    2  C   UNL     1      39.496 -11.254  -1.410  1.00  0.00     0.068 A 
HETATM    3  N   UNL     1      38.960 -10.028  -1.373  1.00  0.00    -0.177 NA
HETATM    4  N   UNL     1      39.138  -9.625  -0.108  1.00  0.00    -0.260 N 
HETATM    5  H   UNL     1      38.793  -8.711   0.170  1.00  0.00     0.191 HD
HETATM    6  C   UNL     1      39.788 -10.549   0.658  1.00  0.00     0.162 A 
HETATM    7  C   UNL     1      40.039 -11.639  -0.146  1.00  0.00     0.081 A 
HETATM    8  N   UNL     1      40.116 -10.413   1.940  1.00  0.00    -0.204 NA
HETATM    9  C   UNL     1      40.714 -11.518   2.440  1.00  0.00     0.177 A 
HETATM   10  N   UNL     1      40.977 -12.655   1.730  1.00  0.00    -0.276 N 
HETATM   11  C   UNL     1      40.707 -12.752   0.392  1.00  0.00     0.124 A 
ENDROOT
BRANCH   9  12
HETATM   12  S   UNL     1      41.080 -11.353   4.187  1.00  0.00    -0.082 SA
BRANCH  12  13
HETATM   13  C   UNL     1      42.891 -11.158   4.075  1.00  0.00     0.185 C 
BRANCH  13  14
HETATM   14  C   UNL     1      43.614 -11.814   5.240  1.00  0.00     0.227 C 
HETATM   15  N   UNL     1      44.759 -11.129   5.609  1.00  0.00    -0.360 N 
HETATM   16  H   UNL     1      44.885 -10.181   5.277  1.00  0.00     0.162 HD
HETATM   17  O   UNL     1      43.267 -12.873   5.748  1.00  0.00    -0.273 OA
BRANCH  15  18
HETATM   18  C   UNL     1      45.542 -11.514   6.774  1.00  0.00     0.127 C 
BRANCH  18  19
HETATM   19  C   UNL     1      45.949 -10.293   7.603  1.00  0.00     0.058 C 
BRANCH  19  20
HETATM   20  C   UNL     1      44.946  -9.995   8.687  1.00  0.00    -0.057 A 
HETATM   21  C   UNL     1      45.292 -10.132  10.039  1.00  0.00     0.009 A 
HETATM   22  C   UNL     1      44.344  -9.900  11.039  1.00  0.00     0.025 A 
HETATM   23  C   UNL     1      43.046  -9.525  10.685  1.00  0.00     0.074 A 
HETATM   24  C   UNL     1      42.685  -9.390   9.343  1.00  0.00     0.025 A 
HETATM   25  C   UNL     1      43.635  -9.622   8.349  1.00  0.00     0.009 A 
BRANCH  23  26
HETATM   26  S   UNL     1      41.823  -9.298  11.943  1.00  0.00     0.239 S 
HETATM   27  O   UNL     1      42.229 -10.018  13.128  1.00  0.00    -0.206 OA
HETATM   28  O   UNL     1      41.429  -7.911  11.976  1.00  0.00    -0.206 OA
BRANCH  26  29
HETATM   29  N   UNL     1      40.513 -10.139  11.315  1.00  0.00    -0.225 NA
HETATM   30  H   UNL     1      40.518 -11.098  11.666  1.00  0.00     0.136 HD
HETATM   31  H   UNL     1      39.650  -9.635  11.522  1.00  0.00     0.136 HD
ENDBRANCH  26  29
ENDBRANCH  23  26
ENDBRANCH  19  20
ENDBRANCH  18  19
ENDBRANCH  15  18
ENDBRANCH  13  14
ENDBRANCH  12  13
ENDBRANCH   9  12
BRANCH  10  32
HETATM   32  C   UNL     1      41.497 -13.824   2.402  1.00  0.00     0.043 A 
HETATM   33  C   UNL     1      42.867 -14.086   2.309  1.00  0.00     0.033 A 
HETATM   34  C   UNL     1      43.403 -15.147   3.037  1.00  0.00     0.039 A 
HETATM   35  C   UNL     1      42.584 -15.949   3.842  1.00  0.00     0.076 A 
HETATM   36  C   UNL     1      41.210 -15.686   3.906  1.00  0.00     0.039 A 
HETATM   37  C   UNL     1      40.662 -14.605   3.203  1.00  0.00     0.033 A 
BRANCH  35  38
HETATM   38  O   UNL     1      43.256 -16.951   4.505  1.00  0.00    -0.311 OA
BRANCH  38  39
HETATM   39  C   UNL     1      43.453 -18.156   3.882  1.00  0.00     0.076 A 
HETATM   40  C   UNL     1      43.993 -19.198   4.635  1.00  0.00     0.037 A 
HETATM   41  C   UNL     1      44.134 -20.462   4.064  1.00  0.00     0.003 A 
HETATM   42  C   UNL     1      43.728 -20.682   2.748  1.00  0.00     0.000 A 
HETATM   43  C   UNL     1      43.165 -19.642   2.005  1.00  0.00     0.003 A 
HETATM   44  C   UNL     1      43.011 -18.379   2.576  1.00  0.00     0.037 A 
ENDBRANCH  38  39
ENDBRANCH  35  38
ENDBRANCH  10  32
BRANCH  11  45
HETATM   45  N   UNL     1      41.059 -13.855  -0.378  1.00  0.00    -0.384 N 
HETATM   46  H   UNL     1      41.053 -13.808  -1.392  1.00  0.00     0.157 HD
HETATM   47  H   UNL     1      40.863 -14.781  -0.009  1.00  0.00     0.157 HD
ENDBRANCH  11  45
TORSDOF 12
ENDMDL
