MODEL 1
REMARK VINA RESULT:      -9.1      0.000      0.000
REMARK  6 active torsions:
REMARK  status: ('A' for Active; 'I' for Inactive)
REMARK    1  A    between atoms: C_3  and  N_4 
REMARK    2  A    between atoms: N_4  and  C_5 
REMARK    3  A    between atoms: C_12  and  C_13 
REMARK       I    between atoms: C_13  and  N_14 
REMARK    4  A    between atoms: N_14  and  C_15 
REMARK    5  A    between atoms: C_15  and  C_16 
REMARK    6  A    between atoms: C_16  and  C_17 
ROOT
HETATM    1  C   UNL     1      43.667 -12.452   6.468  1.00  0.00     0.251 C 
HETATM    2  N   UNL     1      43.131 -13.534   7.142  1.00  0.00    -0.357 N 
HETATM    3  O   UNL     1      43.632 -12.346   5.245  1.00  0.00    -0.268 OA
HETATM    4  H   UNL     1      43.427 -13.702   8.096  1.00  0.00     0.162 HD
ENDROOT
BRANCH   1   5
HETATM    5  C   UNL     1      44.346 -11.407   7.284  1.00  0.00     0.034 A 
HETATM    6  C   UNL     1      43.650 -10.582   8.182  1.00  0.00     0.047 A 
HETATM    7  C   UNL     1      44.319  -9.611   8.938  1.00  0.00     0.050 A 
HETATM    8  C   UNL     1      45.706  -9.473   8.754  1.00  0.00     0.030 A 
HETATM    9  C   UNL     1      46.405 -10.275   7.851  1.00  0.00     0.003 A 
HETATM   10  C   UNL     1      45.725 -11.241   7.117  1.00  0.00     0.017 A 
BRANCH   7  11
HETATM   11  N   UNL     1      43.687  -8.760   9.853  1.00  0.00    -0.188 N 
HETATM   12  H   UNL     1      43.721  -7.770   9.660  1.00  0.00     0.184 HD
BRANCH  11  13
HETATM   13  C   UNL     1      43.030  -8.951  11.063  1.00  0.00     0.726 A 
HETATM   14  N   UNL     1      41.956  -9.746  11.174  1.00  0.00    -0.075 NA
HETATM   15  C   UNL     1      41.390  -9.855  12.392  1.00  0.00     0.138 A 
HETATM   16  C   UNL     1      41.861  -9.212  13.508  1.00  0.00     0.040 A 
HETATM   17  C   UNL     1      42.963  -8.425  13.301  1.00  0.00     0.138 A 
HETATM   18  N   UNL     1      43.558  -8.278  12.101  1.00  0.00    -0.075 NA
ENDBRANCH  11  13
ENDBRANCH   7  11
ENDBRANCH   1   5
BRANCH   2  19
HETATM   19  C   UNL     1      42.618 -14.670   6.397  1.00  0.00     0.127 C 
BRANCH  19  20
HETATM   20  C   UNL     1      43.674 -15.741   6.123  1.00  0.00     0.060 C 
BRANCH  20  21
HETATM   21  C   UNL     1      43.551 -16.394   4.778  1.00  0.00    -0.029 A 
HETATM   22  C   UNL     1      43.711 -17.786   4.478  1.00  0.00     0.001 A 
HETATM   23  C   UNL     1      43.471 -17.952   3.111  1.00  0.00     0.043 A 
HETATM   24  C   UNL     1      44.028 -18.925   5.244  1.00  0.00     0.056 A 
HETATM   25  C   UNL     1      43.528 -19.196   2.471  1.00  0.00     0.033 A 
HETATM   26  N   UNL     1      43.183 -16.709   2.598  1.00  0.00    -0.365 N 
HETATM   27  C   UNL     1      43.842 -20.311   3.253  1.00  0.00     0.044 A 
HETATM   28  C   UNL     1      44.085 -20.168   4.612  1.00  0.00     0.117 A 
HETATM   29  F   UNL     1      44.396 -21.253   5.336  1.00  0.00    -0.206 F 
HETATM   30  H   UNL     1      42.963 -16.524   1.629  1.00  0.00     0.165 HD
HETATM   31  C   UNL     1      43.218 -15.769   3.592  1.00  0.00     0.096 A 
ENDBRANCH  20  21
ENDBRANCH  19  20
ENDBRANCH   2  19
TORSDOF 6
ENDMDL
MODEL 2
REMARK VINA RESULT:      -8.8      6.576      9.283
REMARK  6 active torsions:
REMARK  status: ('A' for Active; 'I' for Inactive)
REMARK    1  A    between atoms: C_3  and  N_4 
REMARK    2  A    between atoms: N_4  and  C_5 
REMARK    3  A    between atoms: C_12  and  C_13 
REMARK       I    between atoms: C_13  and  N_14 
REMARK    4  A    between atoms: N_14  and  C_15 
REMARK    5  A    between atoms: C_15  and  C_16 
REMARK    6  A    between atoms: C_16  and  C_17 
ROOT
HETATM    1  C   UNL     1      40.253 -14.883   1.086  1.00  0.00     0.251 C 
HETATM    2  N   UNL     1      41.099 -14.244   1.973  1.00  0.00    -0.357 N 
HETATM    3  O   UNL     1      39.835 -16.022   1.267  1.00  0.00    -0.268 OA
HETATM    4  H   UNL     1      41.622 -13.440   1.648  1.00  0.00     0.162 HD
ENDROOT
BRANCH   1   5
HETATM    5  C   UNL     1      39.884 -14.146  -0.156  1.00  0.00     0.034 A 
HETATM    6  C   UNL     1      39.908 -12.744  -0.235  1.00  0.00     0.047 A 
HETATM    7  C   UNL     1      39.558 -12.081  -1.419  1.00  0.00     0.050 A 
HETATM    8  C   UNL     1      39.162 -12.862  -2.518  1.00  0.00     0.030 A 
HETATM    9  C   UNL     1      39.117 -14.255  -2.445  1.00  0.00     0.003 A 
HETATM   10  C   UNL     1      39.477 -14.896  -1.265  1.00  0.00     0.017 A 
BRANCH   7  11
HETATM   11  N   UNL     1      39.565 -10.689  -1.566  1.00  0.00    -0.188 N 
HETATM   12  H   UNL     1      38.684 -10.210  -1.458  1.00  0.00     0.184 HD
BRANCH  11  13
HETATM   13  C   UNL     1      40.538  -9.753  -1.898  1.00  0.00     0.726 A 
HETATM   14  N   UNL     1      40.569  -9.151  -3.097  1.00  0.00    -0.075 NA
HETATM   15  C   UNL     1      41.558  -8.265  -3.318  1.00  0.00     0.138 A 
HETATM   16  C   UNL     1      42.514  -7.945  -2.388  1.00  0.00     0.040 A 
HETATM   17  C   UNL     1      42.402  -8.606  -1.193  1.00  0.00     0.138 A 
HETATM   18  N   UNL     1      41.436  -9.505  -0.928  1.00  0.00    -0.075 NA
ENDBRANCH  11  13
ENDBRANCH   7  11
ENDBRANCH   1   5
BRANCH   2  19
HETATM   19  C   UNL     1      41.639 -14.971   3.109  1.00  0.00     0.127 C 
BRANCH  19  20
HETATM   20  C   UNL     1      43.026 -15.559   2.846  1.00  0.00     0.060 C 
BRANCH  20  21
HETATM   21  C   UNL     1      43.407 -16.672   3.776  1.00  0.00    -0.029 A 
HETATM   22  C   UNL     1      43.510 -18.066   3.458  1.00  0.00     0.001 A 
HETATM   23  C   UNL     1      43.930 -18.731   4.612  1.00  0.00     0.043 A 
HETATM   24  C   UNL     1      43.294 -18.824   2.290  1.00  0.00     0.056 A 
HETATM   25  C   UNL     1      44.149 -20.114   4.660  1.00  0.00     0.033 A 
HETATM   26  N   UNL     1      44.072 -17.782   5.597  1.00  0.00    -0.365 N 
HETATM   27  C   UNL     1      43.931 -20.842   3.487  1.00  0.00     0.044 A 
HETATM   28  C   UNL     1      43.512 -20.201   2.330  1.00  0.00     0.117 A 
HETATM   29  F   UNL     1      43.298 -20.927   1.224  1.00  0.00    -0.206 F 
HETATM   30  H   UNL     1      44.370 -17.976   6.543  1.00  0.00     0.165 HD
HETATM   31  C   UNL     1      43.771 -16.542   5.104  1.00  0.00     0.096 A 
ENDBRANCH  20  21
ENDBRANCH  19  20
ENDBRANCH   2  19
TORSDOF 6
ENDMDL
MODEL 3
REMARK VINA RESULT:      -8.8      1.584      2.163
REMARK  6 active torsions:
REMARK  status: ('A' for Active; 'I' for Inactive)
REMARK    1  A    between atoms: C_3  and  N_4 
REMARK    2  A    between atoms: N_4  and  C_5 
REMARK    3  A    between atoms: C_12  and  C_13 
REMARK       I    between atoms: C_13  and  N_14 
REMARK    4  A    between atoms: N_14  and  C_15 
REMARK    5  A    between atoms: C_15  and  C_16 
REMARK    6  A    between atoms: C_16  and  C_17 
ROOT
HETATM    1  C   UNL     1      43.432 -12.526   4.935  1.00  0.00     0.251 C 
HETATM    2  N   UNL     1      42.745 -13.701   5.177  1.00  0.00    -0.357 N 
HETATM    3  O   UNL     1      43.527 -12.028   3.818  1.00  0.00    -0.268 OA
HETATM    4  H   UNL     1      42.931 -14.200   6.039  1.00  0.00     0.162 HD
ENDROOT
BRANCH   1   5
HETATM    5  C   UNL     1      44.113 -11.883   6.095  1.00  0.00     0.034 A 
HETATM    6  C   UNL     1      43.457 -11.633   7.310  1.00  0.00     0.047 A 
HETATM    7  C   UNL     1      44.126 -11.030   8.383  1.00  0.00     0.050 A 
HETATM    8  C   UNL     1      45.470 -10.663   8.197  1.00  0.00     0.030 A 
HETATM    9  C   UNL     1      46.128 -10.891   6.988  1.00  0.00     0.003 A 
HETATM   10  C   UNL     1      45.450 -11.500   5.938  1.00  0.00     0.017 A 
BRANCH   7  11
HETATM   11  N   UNL     1      43.532 -10.757   9.621  1.00  0.00    -0.188 N 
HETATM   12  H   UNL     1      43.606 -11.468  10.334  1.00  0.00     0.184 HD
BRANCH  11  13
HETATM   13  C   UNL     1      42.771  -9.707  10.123  1.00  0.00     0.726 A 
HETATM   14  N   UNL     1      42.501  -8.612   9.398  1.00  0.00    -0.075 NA
HETATM   15  C   UNL     1      41.761  -7.650   9.983  1.00  0.00     0.138 A 
HETATM   16  C   UNL     1      41.270  -7.741  11.260  1.00  0.00     0.040 A 
HETATM   17  C   UNL     1      41.594  -8.895  11.924  1.00  0.00     0.138 A 
HETATM   18  N   UNL     1      42.337  -9.880  11.384  1.00  0.00    -0.075 NA
ENDBRANCH  11  13
ENDBRANCH   7  11
ENDBRANCH   1   5
BRANCH   2  19
HETATM   19  C   UNL     1      42.214 -14.471   4.066  1.00  0.00     0.127 C 
BRANCH  19  20
HETATM   20  C   UNL     1      43.232 -15.436   3.458  1.00  0.00     0.060 C 
BRANCH  20  21
HETATM   21  C   UNL     1      43.494 -16.656   4.290  1.00  0.00    -0.029 A 
HETATM   22  C   UNL     1      43.574 -18.012   3.832  1.00  0.00     0.001 A 
HETATM   23  C   UNL     1      43.872 -18.813   4.938  1.00  0.00     0.043 A 
HETATM   24  C   UNL     1      43.432 -18.633   2.575  1.00  0.00     0.056 A 
HETATM   25  C   UNL     1      44.038 -20.201   4.853  1.00  0.00     0.033 A 
HETATM   26  N   UNL     1      43.962 -17.979   6.027  1.00  0.00    -0.365 N 
HETATM   27  C   UNL     1      43.894 -20.792   3.595  1.00  0.00     0.044 A 
HETATM   28  C   UNL     1      43.598 -20.015   2.484  1.00  0.00     0.117 A 
HETATM   29  F   UNL     1      43.453 -20.611   1.292  1.00  0.00    -0.206 F 
HETATM   30  H   UNL     1      44.172 -18.284   6.968  1.00  0.00     0.165 HD
HETATM   31  C   UNL     1      43.748 -16.682   5.649  1.00  0.00     0.096 A 
ENDBRANCH  20  21
ENDBRANCH  19  20
ENDBRANCH   2  19
TORSDOF 6
ENDMDL
MODEL 4
REMARK VINA RESULT:      -8.5      2.440      3.611
REMARK  6 active torsions:
REMARK  status: ('A' for Active; 'I' for Inactive)
REMARK    1  A    between atoms: C_3  and  N_4 
REMARK    2  A    between atoms: N_4  and  C_5 
REMARK    3  A    between atoms: C_12  and  C_13 
REMARK       I    between atoms: C_13  and  N_14 
REMARK    4  A    between atoms: N_14  and  C_15 
REMARK    5  A    between atoms: C_15  and  C_16 
REMARK    6  A    between atoms: C_16  and  C_17 
ROOT
HETATM    1  C   UNL     1      40.897 -13.743   5.012  1.00  0.00     0.251 C 
HETATM    2  N   UNL     1      41.572 -13.742   3.805  1.00  0.00    -0.357 N 
HETATM    3  O   UNL     1      40.453 -14.764   5.526  1.00  0.00    -0.268 OA
HETATM    4  H   UNL     1      41.666 -12.866   3.305  1.00  0.00     0.162 HD
ENDROOT
BRANCH   1   5
HETATM    5  C   UNL     1      40.678 -12.424   5.671  1.00  0.00     0.034 A 
HETATM    6  C   UNL     1      41.734 -11.649   6.176  1.00  0.00     0.047 A 
HETATM    7  C   UNL     1      41.495 -10.412   6.788  1.00  0.00     0.050 A 
HETATM    8  C   UNL     1      40.162  -9.980   6.901  1.00  0.00     0.030 A 
HETATM    9  C   UNL     1      39.103 -10.750   6.418  1.00  0.00     0.003 A 
HETATM   10  C   UNL     1      39.361 -11.971   5.805  1.00  0.00     0.017 A 
BRANCH   7  11
HETATM   11  N   UNL     1      42.502  -9.590   7.308  1.00  0.00    -0.188 N 
HETATM   12  H   UNL     1      42.930  -8.930   6.675  1.00  0.00     0.184 HD
BRANCH  11  13
HETATM   13  C   UNL     1      43.134  -9.490   8.542  1.00  0.00     0.726 A 
HETATM   14  N   UNL     1      44.144 -10.299   8.894  1.00  0.00    -0.075 NA
HETATM   15  C   UNL     1      44.681 -10.123  10.116  1.00  0.00     0.138 A 
HETATM   16  C   UNL     1      44.258  -9.162  10.999  1.00  0.00     0.040 A 
HETATM   17  C   UNL     1      43.225  -8.381  10.555  1.00  0.00     0.138 A 
HETATM   18  N   UNL     1      42.651  -8.525   9.345  1.00  0.00    -0.075 NA
ENDBRANCH  11  13
ENDBRANCH   7  11
ENDBRANCH   1   5
BRANCH   2  19
HETATM   19  C   UNL     1      41.661 -14.964   3.025  1.00  0.00     0.127 C 
BRANCH  19  20
HETATM   20  C   UNL     1      43.092 -15.477   2.865  1.00  0.00     0.060 C 
BRANCH  20  21
HETATM   21  C   UNL     1      43.447 -16.604   3.789  1.00  0.00    -0.029 A 
HETATM   22  C   UNL     1      43.515 -17.998   3.461  1.00  0.00     0.001 A 
HETATM   23  C   UNL     1      43.920 -18.681   4.612  1.00  0.00     0.043 A 
HETATM   24  C   UNL     1      43.281 -18.744   2.289  1.00  0.00     0.056 A 
HETATM   25  C   UNL     1      44.105 -20.069   4.651  1.00  0.00     0.033 A 
HETATM   26  N   UNL     1      44.084 -17.742   5.602  1.00  0.00    -0.365 N 
HETATM   27  C   UNL     1      43.869 -20.785   3.474  1.00  0.00     0.044 A 
HETATM   28  C   UNL     1      43.465 -20.126   2.321  1.00  0.00     0.117 A 
HETATM   29  F   UNL     1      43.234 -20.840   1.210  1.00  0.00    -0.206 F 
HETATM   30  H   UNL     1      44.378 -17.948   6.547  1.00  0.00     0.165 HD
HETATM   31  C   UNL     1      43.814 -16.491   5.117  1.00  0.00     0.096 A 
ENDBRANCH  20  21
ENDBRANCH  19  20
ENDBRANCH   2  19
TORSDOF 6
ENDMDL
MODEL 5
REMARK VINA RESULT:      -8.5      2.125      2.725
REMARK  6 active torsions:
REMARK  status: ('A' for Active; 'I' for Inactive)
REMARK    1  A    between atoms: C_3  and  N_4 
REMARK    2  A    between atoms: N_4  and  C_5 
REMARK    3  A    between atoms: C_12  and  C_13 
REMARK       I    between atoms: C_13  and  N_14 
REMARK    4  A    between atoms: N_14  and  C_15 
REMARK    5  A    between atoms: C_15  and  C_16 
REMARK    6  A    between atoms: C_16  and  C_17 
ROOT
HETATM    1  C   UNL     1      43.963 -12.326   6.897  1.00  0.00     0.251 C 
HETATM    2  N   UNL     1      43.327 -13.355   7.567  1.00  0.00    -0.357 N 
HETATM    3  O   UNL     1      44.076 -12.295   5.676  1.00  0.00    -0.268 OA
HETATM    4  H   UNL     1      43.504 -13.468   8.557  1.00  0.00     0.162 HD
ENDROOT
BRANCH   1   5
HETATM    5  C   UNL     1      44.564 -11.242   7.726  1.00  0.00     0.034 A 
HETATM    6  C   UNL     1      44.040 -10.869   8.974  1.00  0.00     0.047 A 
HETATM    7  C   UNL     1      44.631  -9.848   9.729  1.00  0.00     0.050 A 
HETATM    8  C   UNL     1      45.752  -9.194   9.190  1.00  0.00     0.030 A 
HETATM    9  C   UNL     1      46.270  -9.545   7.943  1.00  0.00     0.003 A 
HETATM   10  C   UNL     1      45.677 -10.567   7.212  1.00  0.00     0.017 A 
BRANCH   7  11
HETATM   11  N   UNL     1      44.162  -9.431  10.981  1.00  0.00    -0.188 N 
HETATM   12  H   UNL     1      44.306 -10.058  11.759  1.00  0.00     0.184 HD
BRANCH  11  13
HETATM   13  C   UNL     1      43.453  -8.324  11.433  1.00  0.00     0.726 A 
HETATM   14  N   UNL     1      42.932  -7.418  10.592  1.00  0.00    -0.075 NA
HETATM   15  C   UNL     1      42.271  -6.378  11.135  1.00  0.00     0.138 A 
HETATM   16  C   UNL     1      42.099  -6.210  12.485  1.00  0.00     0.040 A 
HETATM   17  C   UNL     1      42.662  -7.184  13.267  1.00  0.00     0.138 A 
HETATM   18  N   UNL     1      43.339  -8.237  12.770  1.00  0.00    -0.075 NA
ENDBRANCH  11  13
ENDBRANCH   7  11
ENDBRANCH   1   5
BRANCH   2  19
HETATM   19  C   UNL     1      42.880 -14.527   6.834  1.00  0.00     0.127 C 
BRANCH  19  20
HETATM   20  C   UNL     1      43.935 -15.630   6.757  1.00  0.00     0.060 C 
BRANCH  20  21
HETATM   21  C   UNL     1      43.755 -16.572   5.604  1.00  0.00    -0.029 A 
HETATM   22  C   UNL     1      43.459 -16.225   4.245  1.00  0.00     0.001 A 
HETATM   23  C   UNL     1      43.418 -17.411   3.507  1.00  0.00     0.043 A 
HETATM   24  C   UNL     1      43.232 -15.009   3.570  1.00  0.00     0.056 A 
HETATM   25  C   UNL     1      43.165 -17.445   2.129  1.00  0.00     0.033 A 
HETATM   26  N   UNL     1      43.672 -18.440   4.382  1.00  0.00    -0.365 N 
HETATM   27  C   UNL     1      42.947 -16.226   1.483  1.00  0.00     0.044 A 
HETATM   28  C   UNL     1      42.982 -15.036   2.198  1.00  0.00     0.117 A 
HETATM   29  F   UNL     1      42.756 -13.882   1.554  1.00  0.00    -0.206 F 
HETATM   30  H   UNL     1      43.709 -19.417   4.125  1.00  0.00     0.165 HD
HETATM   31  C   UNL     1      43.886 -17.948   5.641  1.00  0.00     0.096 A 
ENDBRANCH  20  21
ENDBRANCH  19  20
ENDBRANCH   2  19
TORSDOF 6
ENDMDL
MODEL 6
REMARK VINA RESULT:      -8.5      1.629      2.184
REMARK  6 active torsions:
REMARK  status: ('A' for Active; 'I' for Inactive)
REMARK    1  A    between atoms: C_3  and  N_4 
REMARK    2  A    between atoms: N_4  and  C_5 
REMARK    3  A    between atoms: C_12  and  C_13 
REMARK       I    between atoms: C_13  and  N_14 
REMARK    4  A    between atoms: N_14  and  C_15 
REMARK    5  A    between atoms: C_15  and  C_16 
REMARK    6  A    between atoms: C_16  and  C_17 
ROOT
HETATM    1  C   UNL     1      43.448 -11.640   6.078  1.00  0.00     0.251 C 
HETATM    2  N   UNL     1      42.298 -12.344   6.382  1.00  0.00    -0.357 N 
HETATM    3  O   UNL     1      43.983 -11.683   4.974  1.00  0.00    -0.268 OA
HETATM    4  H   UNL     1      42.065 -12.491   7.357  1.00  0.00     0.162 HD
ENDROOT
BRANCH   1   5
HETATM    5  C   UNL     1      44.065 -10.836   7.171  1.00  0.00     0.034 A 
HETATM    6  C   UNL     1      43.300 -10.082   8.075  1.00  0.00     0.047 A 
HETATM    7  C   UNL     1      43.911  -9.339   9.094  1.00  0.00     0.050 A 
HETATM    8  C   UNL     1      45.314  -9.355   9.170  1.00  0.00     0.030 A 
HETATM    9  C   UNL     1      46.085 -10.087   8.265  1.00  0.00     0.003 A 
HETATM   10  C   UNL     1      45.461 -10.826   7.267  1.00  0.00     0.017 A 
BRANCH   7  11
HETATM   11  N   UNL     1      43.207  -8.571  10.029  1.00  0.00    -0.188 N 
HETATM   12  H   UNL     1      42.995  -7.618   9.776  1.00  0.00     0.184 HD
BRANCH  11  13
HETATM   13  C   UNL     1      42.749  -8.796  11.323  1.00  0.00     0.726 A 
HETATM   14  N   UNL     1      41.859  -9.758  11.607  1.00  0.00    -0.075 NA
HETATM   15  C   UNL     1      41.476  -9.886  12.892  1.00  0.00     0.138 A 
HETATM   16  C   UNL     1      41.953  -9.099  13.909  1.00  0.00     0.040 A 
HETATM   17  C   UNL     1      42.859  -8.145  13.526  1.00  0.00     0.138 A 
HETATM   18  N   UNL     1      43.266  -7.974  12.253  1.00  0.00    -0.075 NA
ENDBRANCH  11  13
ENDBRANCH   7  11
ENDBRANCH   1   5
BRANCH   2  19
HETATM   19  C   UNL     1      41.749 -13.285   5.421  1.00  0.00     0.127 C 
BRANCH  19  20
HETATM   20  C   UNL     1      41.062 -14.485   6.074  1.00  0.00     0.060 C 
BRANCH  20  21
HETATM   21  C   UNL     1      41.965 -15.662   6.297  1.00  0.00    -0.029 A 
HETATM   22  C   UNL     1      42.512 -16.532   5.298  1.00  0.00     0.001 A 
HETATM   23  C   UNL     1      43.325 -17.463   5.950  1.00  0.00     0.043 A 
HETATM   24  C   UNL     1      42.399 -16.609   3.895  1.00  0.00     0.056 A 
HETATM   25  C   UNL     1      44.033 -18.465   5.273  1.00  0.00     0.033 A 
HETATM   26  N   UNL     1      43.270 -17.177   7.293  1.00  0.00    -0.365 N 
HETATM   27  C   UNL     1      43.906 -18.517   3.882  1.00  0.00     0.044 A 
HETATM   28  C   UNL     1      43.103 -17.603   3.216  1.00  0.00     0.117 A 
HETATM   29  F   UNL     1      42.990 -17.685   1.882  1.00  0.00    -0.206 F 
HETATM   30  H   UNL     1      43.767 -17.687   8.010  1.00  0.00     0.165 HD
HETATM   31  C   UNL     1      42.466 -16.091   7.512  1.00  0.00     0.096 A 
ENDBRANCH  20  21
ENDBRANCH  19  20
ENDBRANCH   2  19
TORSDOF 6
ENDMDL
MODEL 7
REMARK VINA RESULT:      -8.3      5.480      8.491
REMARK  6 active torsions:
REMARK  status: ('A' for Active; 'I' for Inactive)
REMARK    1  A    between atoms: C_3  and  N_4 
REMARK    2  A    between atoms: N_4  and  C_5 
REMARK    3  A    between atoms: C_12  and  C_13 
REMARK       I    between atoms: C_13  and  N_14 
REMARK    4  A    between atoms: N_14  and  C_15 
REMARK    5  A    between atoms: C_15  and  C_16 
REMARK    6  A    between atoms: C_16  and  C_17 
ROOT
HETATM    1  C   UNL     1      39.934 -12.943   5.312  1.00  0.00     0.251 C 
HETATM    2  N   UNL     1      40.176 -14.296   5.167  1.00  0.00    -0.357 N 
HETATM    3  O   UNL     1      40.122 -12.342   6.365  1.00  0.00    -0.268 OA
HETATM    4  H   UNL     1      39.751 -14.782   4.386  1.00  0.00     0.162 HD
ENDROOT
BRANCH   1   5
HETATM    5  C   UNL     1      39.383 -12.218   4.132  1.00  0.00     0.034 A 
HETATM    6  C   UNL     1      39.217 -12.832   2.881  1.00  0.00     0.047 A 
HETATM    7  C   UNL     1      38.693 -12.124   1.792  1.00  0.00     0.050 A 
HETATM    8  C   UNL     1      38.357 -10.773   1.985  1.00  0.00     0.030 A 
HETATM    9  C   UNL     1      38.533 -10.148   3.220  1.00  0.00     0.003 A 
HETATM   10  C   UNL     1      39.046 -10.870   4.292  1.00  0.00     0.017 A 
BRANCH   7  11
HETATM   11  N   UNL     1      38.498 -12.678   0.521  1.00  0.00    -0.188 N 
HETATM   12  H   UNL     1      37.633 -13.172   0.361  1.00  0.00     0.184 HD
BRANCH  11  13
HETATM   13  C   UNL     1      39.275 -12.766  -0.629  1.00  0.00     0.726 A 
HETATM   14  N   UNL     1      39.027 -13.668  -1.590  1.00  0.00    -0.075 NA
HETATM   15  C   UNL     1      39.845 -13.674  -2.660  1.00  0.00     0.138 A 
HETATM   16  C   UNL     1      40.896 -12.807  -2.816  1.00  0.00     0.040 A 
HETATM   17  C   UNL     1      41.072 -11.920  -1.788  1.00  0.00     0.138 A 
HETATM   18  N   UNL     1      40.285 -11.881  -0.695  1.00  0.00    -0.075 NA
ENDBRANCH  11  13
ENDBRANCH   7  11
ENDBRANCH   1   5
BRANCH   2  19
HETATM   19  C   UNL     1      40.541 -15.094   6.325  1.00  0.00     0.127 C 
BRANCH  19  20
HETATM   20  C   UNL     1      42.052 -15.189   6.542  1.00  0.00     0.060 C 
BRANCH  20  21
HETATM   21  C   UNL     1      42.664 -16.465   6.047  1.00  0.00    -0.029 A 
HETATM   22  C   UNL     1      42.946 -16.816   4.686  1.00  0.00     0.001 A 
HETATM   23  C   UNL     1      43.549 -18.077   4.692  1.00  0.00     0.043 A 
HETATM   24  C   UNL     1      42.753 -16.173   3.447  1.00  0.00     0.056 A 
HETATM   25  C   UNL     1      43.972 -18.727   3.526  1.00  0.00     0.033 A 
HETATM   26  N   UNL     1      43.625 -18.481   6.004  1.00  0.00    -0.365 N 
HETATM   27  C   UNL     1      43.772 -18.067   2.311  1.00  0.00     0.044 A 
HETATM   28  C   UNL     1      43.174 -16.815   2.282  1.00  0.00     0.117 A 
HETATM   29  F   UNL     1      42.984 -16.211   1.100  1.00  0.00    -0.206 F 
HETATM   30  H   UNL     1      44.022 -19.358   6.313  1.00  0.00     0.165 HD
HETATM   31  C   UNL     1      43.108 -17.518   6.826  1.00  0.00     0.096 A 
ENDBRANCH  20  21
ENDBRANCH  19  20
ENDBRANCH   2  19
TORSDOF 6
ENDMDL
MODEL 8
REMARK VINA RESULT:      -8.2      3.462      4.485
REMARK  6 active torsions:
REMARK  status: ('A' for Active; 'I' for Inactive)
REMARK    1  A    between atoms: C_3  and  N_4 
REMARK    2  A    between atoms: N_4  and  C_5 
REMARK    3  A    between atoms: C_12  and  C_13 
REMARK       I    between atoms: C_13  and  N_14 
REMARK    4  A    between atoms: N_14  and  C_15 
REMARK    5  A    between atoms: C_15  and  C_16 
REMARK    6  A    between atoms: C_16  and  C_17 
ROOT
HETATM    1  C   UNL     1      40.492 -13.480   4.297  1.00  0.00     0.251 C 
HETATM    2  N   UNL     1      40.842 -13.983   3.058  1.00  0.00    -0.357 N 
HETATM    3  O   UNL     1      40.654 -14.105   5.341  1.00  0.00    -0.268 OA
HETATM    4  H   UNL     1      40.441 -13.556   2.233  1.00  0.00     0.162 HD
ENDROOT
BRANCH   1   5
HETATM    5  C   UNL     1      39.853 -12.133   4.331  1.00  0.00     0.034 A 
HETATM    6  C   UNL     1      39.882 -11.314   5.471  1.00  0.00     0.047 A 
HETATM    7  C   UNL     1      39.275 -10.052   5.469  1.00  0.00     0.050 A 
HETATM    8  C   UNL     1      38.617  -9.639   4.298  1.00  0.00     0.030 A 
HETATM    9  C   UNL     1      38.566 -10.453   3.165  1.00  0.00     0.003 A 
HETATM   10  C   UNL     1      39.184 -11.699   3.182  1.00  0.00     0.017 A 
BRANCH   7  11
HETATM   11  N   UNL     1      39.272  -9.185   6.568  1.00  0.00    -0.188 N 
HETATM   12  H   UNL     1      38.965  -8.237   6.406  1.00  0.00     0.184 HD
BRANCH  11  13
HETATM   13  C   UNL     1      39.663  -9.300   7.897  1.00  0.00     0.726 A 
HETATM   14  N   UNL     1      38.831  -9.747   8.850  1.00  0.00    -0.075 NA
HETATM   15  C   UNL     1      39.308  -9.813  10.107  1.00  0.00     0.138 A 
HETATM   16  C   UNL     1      40.588  -9.460  10.453  1.00  0.00     0.040 A 
HETATM   17  C   UNL     1      41.367  -9.017   9.416  1.00  0.00     0.138 A 
HETATM   18  N   UNL     1      40.931  -8.927   8.145  1.00  0.00    -0.075 NA
ENDBRANCH  11  13
ENDBRANCH   7  11
ENDBRANCH   1   5
BRANCH   2  19
HETATM   19  C   UNL     1      41.300 -15.356   2.938  1.00  0.00     0.127 C 
BRANCH  19  20
HETATM   20  C   UNL     1      42.822 -15.493   3.001  1.00  0.00     0.060 C 
BRANCH  20  21
HETATM   21  C   UNL     1      43.301 -16.611   3.879  1.00  0.00    -0.029 A 
HETATM   22  C   UNL     1      43.438 -17.992   3.520  1.00  0.00     0.001 A 
HETATM   23  C   UNL     1      43.953 -18.667   4.631  1.00  0.00     0.043 A 
HETATM   24  C   UNL     1      43.181 -18.732   2.349  1.00  0.00     0.056 A 
HETATM   25  C   UNL     1      44.226 -20.040   4.631  1.00  0.00     0.033 A 
HETATM   26  N   UNL     1      44.117 -17.735   5.629  1.00  0.00    -0.365 N 
HETATM   27  C   UNL     1      43.966 -20.750   3.456  1.00  0.00     0.044 A 
HETATM   28  C   UNL     1      43.453 -20.100   2.342  1.00  0.00     0.117 A 
HETATM   29  F   UNL     1      43.201 -20.809   1.233  1.00  0.00    -0.206 F 
HETATM   30  H   UNL     1      44.479 -17.938   6.550  1.00  0.00     0.165 HD
HETATM   31  C   UNL     1      43.739 -16.497   5.185  1.00  0.00     0.096 A 
ENDBRANCH  20  21
ENDBRANCH  19  20
ENDBRANCH   2  19
TORSDOF 6
ENDMDL
MODEL 9
REMARK VINA RESULT:      -8.0      1.585      2.342
REMARK  6 active torsions:
REMARK  status: ('A' for Active; 'I' for Inactive)
REMARK    1  A    between atoms: C_3  and  N_4 
REMARK    2  A    between atoms: N_4  and  C_5 
REMARK    3  A    between atoms: C_12  and  C_13 
REMARK       I    between atoms: C_13  and  N_14 
REMARK    4  A    between atoms: N_14  and  C_15 
REMARK    5  A    between atoms: C_15  and  C_16 
REMARK    6  A    between atoms: C_16  and  C_17 
ROOT
HETATM    1  C   UNL     1      43.777 -12.335   6.874  1.00  0.00     0.251 C 
HETATM    2  N   UNL     1      42.441 -12.255   6.526  1.00  0.00    -0.357 N 
HETATM    3  O   UNL     1      44.460 -13.334   6.667  1.00  0.00    -0.268 OA
HETATM    4  H   UNL     1      41.872 -11.538   6.960  1.00  0.00     0.162 HD
ENDROOT
BRANCH   1   5
HETATM    5  C   UNL     1      44.374 -11.158   7.566  1.00  0.00     0.034 A 
HETATM    6  C   UNL     1      43.656 -10.383   8.490  1.00  0.00     0.047 A 
HETATM    7  C   UNL     1      44.247  -9.284   9.125  1.00  0.00     0.050 A 
HETATM    8  C   UNL     1      45.576  -8.968   8.794  1.00  0.00     0.030 A 
HETATM    9  C   UNL     1      46.294  -9.721   7.864  1.00  0.00     0.003 A 
HETATM   10  C   UNL     1      45.693 -10.814   7.250  1.00  0.00     0.017 A 
BRANCH   7  11
HETATM   11  N   UNL     1      43.589  -8.474  10.058  1.00  0.00    -0.188 N 
HETATM   12  H   UNL     1      43.587  -7.479   9.885  1.00  0.00     0.184 HD
BRANCH  11  13
HETATM   13  C   UNL     1      42.946  -8.711  11.268  1.00  0.00     0.726 A 
HETATM   14  N   UNL     1      43.421  -8.244  12.432  1.00  0.00    -0.075 NA
HETATM   15  C   UNL     1      42.725  -8.538  13.547  1.00  0.00     0.138 A 
HETATM   16  C   UNL     1      41.565  -9.270  13.547  1.00  0.00     0.040 A 
HETATM   17  C   UNL     1      41.154  -9.703  12.314  1.00  0.00     0.138 A 
HETATM   18  N   UNL     1      41.821  -9.441  11.173  1.00  0.00    -0.075 NA
ENDBRANCH  11  13
ENDBRANCH   7  11
ENDBRANCH   1   5
BRANCH   2  19
HETATM   19  C   UNL     1      41.754 -13.428   6.015  1.00  0.00     0.127 C 
BRANCH  19  20
HETATM   20  C   UNL     1      40.976 -13.160   4.726  1.00  0.00     0.060 C 
BRANCH  20  21
HETATM   21  C   UNL     1      41.615 -13.731   3.495  1.00  0.00    -0.029 A 
HETATM   22  C   UNL     1      42.222 -15.022   3.357  1.00  0.00     0.001 A 
HETATM   23  C   UNL     1      42.650 -15.147   2.033  1.00  0.00     0.043 A 
HETATM   24  C   UNL     1      42.439 -16.103   4.235  1.00  0.00     0.056 A 
HETATM   25  C   UNL     1      43.281 -16.296   1.539  1.00  0.00     0.033 A 
HETATM   26  N   UNL     1      42.323 -13.976   1.391  1.00  0.00    -0.365 N 
HETATM   27  C   UNL     1      43.481 -17.354   2.429  1.00  0.00     0.044 A 
HETATM   28  C   UNL     1      43.065 -17.251   3.748  1.00  0.00     0.117 A 
HETATM   29  F   UNL     1      43.282 -18.277   4.583  1.00  0.00    -0.206 F 
HETATM   30  H   UNL     1      42.510 -13.783   0.416  1.00  0.00     0.165 HD
HETATM   31  C   UNL     1      41.692 -13.123   2.255  1.00  0.00     0.096 A 
ENDBRANCH  20  21
ENDBRANCH  19  20
ENDBRANCH   2  19
TORSDOF 6
ENDMDL
MODEL 10
REMARK VINA RESULT:      -8.0      5.085      8.397
REMARK  6 active torsions:
REMARK  status: ('A' for Active; 'I' for Inactive)
REMARK    1  A    between atoms: C_3  and  N_4 
REMARK    2  A    between atoms: N_4  and  C_5 
REMARK    3  A    between atoms: C_12  and  C_13 
REMARK       I    between atoms: C_13  and  N_14 
REMARK    4  A    between atoms: N_14  and  C_15 
REMARK    5  A    between atoms: C_15  and  C_16 
REMARK    6  A    between atoms: C_16  and  C_17 
ROOT
HETATM    1  C   UNL     1      41.642 -12.964   4.424  1.00  0.00     0.251 C 
HETATM    2  N   UNL     1      42.672 -13.873   4.582  1.00  0.00    -0.357 N 
HETATM    3  O   UNL     1      40.832 -12.713   5.311  1.00  0.00    -0.268 OA
HETATM    4  H   UNL     1      43.124 -14.238   3.754  1.00  0.00     0.162 HD
ENDROOT
BRANCH   1   5
HETATM    5  C   UNL     1      41.510 -12.308   3.092  1.00  0.00     0.034 A 
HETATM    6  C   UNL     1      41.295 -13.036   1.911  1.00  0.00     0.047 A 
HETATM    7  C   UNL     1      41.173 -12.389   0.675  1.00  0.00     0.050 A 
HETATM    8  C   UNL     1      41.292 -10.989   0.650  1.00  0.00     0.030 A 
HETATM    9  C   UNL     1      41.523 -10.256   1.816  1.00  0.00     0.003 A 
HETATM   10  C   UNL     1      41.632 -10.915   3.035  1.00  0.00     0.017 A 
BRANCH   7  11
HETATM   11  N   UNL     1      40.954 -13.054  -0.537  1.00  0.00    -0.188 N 
HETATM   12  H   UNL     1      41.761 -13.445  -1.000  1.00  0.00     0.184 HD
BRANCH  11  13
HETATM   13  C   UNL     1      39.838 -13.275  -1.336  1.00  0.00     0.726 A 
HETATM   14  N   UNL     1      38.648 -12.717  -1.069  1.00  0.00    -0.075 NA
HETATM   15  C   UNL     1      37.630 -13.003  -1.903  1.00  0.00     0.138 A 
HETATM   16  C   UNL     1      37.752 -13.816  -3.001  1.00  0.00     0.040 A 
HETATM   17  C   UNL     1      39.003 -14.340  -3.196  1.00  0.00     0.138 A 
HETATM   18  N   UNL     1      40.049 -14.089  -2.385  1.00  0.00    -0.075 NA
ENDBRANCH  11  13
ENDBRANCH   7  11
ENDBRANCH   1   5
BRANCH   2  19
HETATM   19  C   UNL     1      42.748 -14.677   5.789  1.00  0.00     0.127 C 
BRANCH  19  20
HETATM   20  C   UNL     1      43.724 -15.849   5.675  1.00  0.00     0.060 C 
BRANCH  20  21
HETATM   21  C   UNL     1      43.585 -16.641   4.409  1.00  0.00    -0.029 A 
HETATM   22  C   UNL     1      43.724 -18.060   4.259  1.00  0.00     0.001 A 
HETATM   23  C   UNL     1      43.474 -18.369   2.920  1.00  0.00     0.043 A 
HETATM   24  C   UNL     1      44.029 -19.114   5.143  1.00  0.00     0.056 A 
HETATM   25  C   UNL     1      43.510 -19.676   2.417  1.00  0.00     0.033 A 
HETATM   26  N   UNL     1      43.200 -17.185   2.277  1.00  0.00    -0.365 N 
HETATM   27  C   UNL     1      43.812 -20.703   3.314  1.00  0.00     0.044 A 
HETATM   28  C   UNL     1      44.065 -20.419   4.649  1.00  0.00     0.117 A 
HETATM   29  F   UNL     1      44.365 -21.423   5.484  1.00  0.00    -0.206 F 
HETATM   30  H   UNL     1      42.978 -17.102   1.294  1.00  0.00     0.165 HD
HETATM   31  C   UNL     1      43.254 -16.143   3.162  1.00  0.00     0.096 A 
ENDBRANCH  20  21
ENDBRANCH  19  20
ENDBRANCH   2  19
TORSDOF 6
ENDMDL
