MODEL 1
REMARK VINA RESULT:      -8.7      0.000      0.000
REMARK  8 active torsions:
REMARK  status: ('A' for Active; 'I' for Inactive)
REMARK    1  A    between atoms: C_4  and  O_5 
REMARK    2  A    between atoms: O_5  and  C_6 
REMARK    3  A    between atoms: C_6  and  C_7 
REMARK    4  A    between atoms: C_7  and  N_8 
REMARK       I    between atoms: N_8  and  C_9 
REMARK    5  A    between atoms: C_9  and  C_10 
REMARK    6  A    between atoms: C_10  and  S_11 
REMARK    7  A    between atoms: S_11  and  C_12 
REMARK    8  A    between atoms: C_15  and  C_16 
ROOT
HETATM    1  C   UNL     1      42.489 -11.956   4.064  1.00  0.00     0.185 C 
ENDROOT
BRANCH   1   2
HETATM    2  C   UNL     1      43.243 -12.490   5.277  1.00  0.00     0.227 C 
HETATM    3  N   UNL     1      44.318 -11.687   5.632  1.00  0.00    -0.358 N 
HETATM    4  H   UNL     1      44.333 -10.739   5.277  1.00  0.00     0.162 HD
HETATM    5  O   UNL     1      42.976 -13.536   5.862  1.00  0.00    -0.273 OA
BRANCH   3   6
HETATM    6  C   UNL     1      45.128 -11.975   6.805  1.00  0.00     0.149 C 
BRANCH   6   7
HETATM    7  C   UNL     1      45.594 -10.706   7.520  1.00  0.00     0.195 C 
BRANCH   7   8
HETATM    8  O   UNL     1      45.240 -10.811   8.897  1.00  0.00    -0.350 OA
BRANCH   8   9
HETATM    9  C   UNL     1      44.580  -9.753   9.462  1.00  0.00     0.069 A 
HETATM   10  C   UNL     1      44.293  -9.589  10.818  1.00  0.00     0.043 A 
HETATM   11  C   UNL     1      43.599  -8.453  11.268  1.00  0.00    -0.059 A 
HETATM   12  C   UNL     1      43.297  -8.259  12.724  1.00  0.00     0.048 C 
HETATM   13  C   UNL     1      43.210  -7.476  10.343  1.00  0.00     0.007 A 
HETATM   14  C   UNL     1      43.497  -7.636   8.990  1.00  0.00     0.003 A 
HETATM   15  C   UNL     1      44.179  -8.771   8.554  1.00  0.00     0.037 A 
ENDBRANCH   8   9
ENDBRANCH   7   8
ENDBRANCH   6   7
ENDBRANCH   3   6
ENDBRANCH   1   2
BRANCH   1  16
HETATM   16  S   UNL     1      41.158 -13.067   3.533  1.00  0.00    -0.081 SA
BRANCH  16  17
HETATM   17  C   UNL     1      42.090 -14.389   2.928  1.00  0.00     0.191 A 
HETATM   18  N   UNL     1      41.950 -15.679   3.353  1.00  0.00    -0.312 N 
HETATM   19  C   UNL     1      40.914 -16.207   4.204  1.00  0.00     0.160 C 
HETATM   20  C   UNL     1      42.973 -16.384   2.752  1.00  0.00     0.164 A 
HETATM   21  N   UNL     1      43.612 -15.563   1.935  1.00  0.00    -0.128 NA
HETATM   22  N   UNL     1      43.063 -14.309   2.054  1.00  0.00    -0.122 NA
BRANCH  20  23
HETATM   23  C   UNL     1      43.295 -17.795   2.980  1.00  0.00     0.018 A 
HETATM   24  C   UNL     1      43.967 -18.224   4.144  1.00  0.00    -0.048 A 
HETATM   25  C   UNL     1      44.379 -17.259   5.224  1.00  0.00     0.049 C 
HETATM   26  C   UNL     1      44.232 -19.593   4.319  1.00  0.00     0.007 A 
HETATM   27  C   UNL     1      43.847 -20.527   3.357  1.00  0.00     0.001 A 
HETATM   28  C   UNL     1      43.177 -20.108   2.213  1.00  0.00     0.001 A 
HETATM   29  C   UNL     1      42.898 -18.753   2.029  1.00  0.00     0.016 A 
ENDBRANCH  20  23
ENDBRANCH  16  17
ENDBRANCH   1  16
TORSDOF 8
ENDMDL
MODEL 2
REMARK VINA RESULT:      -8.5      2.636     10.812
REMARK  8 active torsions:
REMARK  status: ('A' for Active; 'I' for Inactive)
REMARK    1  A    between atoms: C_4  and  O_5 
REMARK    2  A    between atoms: O_5  and  C_6 
REMARK    3  A    between atoms: C_6  and  C_7 
REMARK    4  A    between atoms: C_7  and  N_8 
REMARK       I    between atoms: N_8  and  C_9 
REMARK    5  A    between atoms: C_9  and  C_10 
REMARK    6  A    between atoms: C_10  and  S_11 
REMARK    7  A    between atoms: S_11  and  C_12 
REMARK    8  A    between atoms: C_15  and  C_16 
ROOT
HETATM    1  C   UNL     1      43.970 -11.929   7.267  1.00  0.00     0.185 C 
ENDROOT
BRANCH   1   2
HETATM    2  C   UNL     1      42.880 -12.488   6.358  1.00  0.00     0.227 C 
HETATM    3  N   UNL     1      42.397 -13.712   6.796  1.00  0.00    -0.358 N 
HETATM    4  H   UNL     1      42.575 -13.970   7.758  1.00  0.00     0.162 HD
HETATM    5  O   UNL     1      42.492 -11.954   5.323  1.00  0.00    -0.273 OA
BRANCH   3   6
HETATM    6  C   UNL     1      41.303 -14.386   6.114  1.00  0.00     0.149 C 
BRANCH   6   7
HETATM    7  C   UNL     1      41.786 -15.250   4.948  1.00  0.00     0.195 C 
BRANCH   7   8
HETATM    8  O   UNL     1      42.984 -15.912   5.347  1.00  0.00    -0.350 OA
BRANCH   8   9
HETATM    9  C   UNL     1      43.305 -17.078   4.705  1.00  0.00     0.069 A 
HETATM   10  C   UNL     1      43.714 -18.267   5.311  1.00  0.00     0.043 A 
HETATM   11  C   UNL     1      44.021 -19.396   4.532  1.00  0.00    -0.059 A 
HETATM   12  C   UNL     1      44.449 -20.683   5.172  1.00  0.00     0.048 C 
HETATM   13  C   UNL     1      43.898 -19.322   3.139  1.00  0.00     0.007 A 
HETATM   14  C   UNL     1      43.488 -18.138   2.532  1.00  0.00     0.003 A 
HETATM   15  C   UNL     1      43.194 -17.022   3.314  1.00  0.00     0.037 A 
ENDBRANCH   8   9
ENDBRANCH   7   8
ENDBRANCH   6   7
ENDBRANCH   3   6
ENDBRANCH   1   2
BRANCH   1  16
HETATM   16  S   UNL     1      43.717 -10.177   7.656  1.00  0.00    -0.081 SA
BRANCH  16  17
HETATM   17  C   UNL     1      43.573 -10.266   9.374  1.00  0.00     0.191 A 
HETATM   18  N   UNL     1      42.882  -9.363  10.131  1.00  0.00    -0.312 N 
HETATM   19  C   UNL     1      42.012  -8.317   9.657  1.00  0.00     0.160 C 
HETATM   20  C   UNL     1      43.145  -9.696  11.445  1.00  0.00     0.164 A 
HETATM   21  N   UNL     1      43.868 -10.803  11.450  1.00  0.00    -0.128 NA
HETATM   22  N   UNL     1      44.144 -11.155  10.150  1.00  0.00    -0.122 NA
BRANCH  20  23
HETATM   23  C   UNL     1      42.702  -8.952  12.626  1.00  0.00     0.018 A 
HETATM   24  C   UNL     1      41.495  -9.262  13.288  1.00  0.00    -0.048 A 
HETATM   25  C   UNL     1      40.602 -10.384  12.828  1.00  0.00     0.049 C 
HETATM   26  C   UNL     1      41.130  -8.526  14.429  1.00  0.00     0.007 A 
HETATM   27  C   UNL     1      41.938  -7.496  14.908  1.00  0.00     0.001 A 
HETATM   28  C   UNL     1      43.131  -7.193  14.261  1.00  0.00     0.001 A 
HETATM   29  C   UNL     1      43.513  -7.920  13.132  1.00  0.00     0.016 A 
ENDBRANCH  20  23
ENDBRANCH  16  17
ENDBRANCH   1  16
TORSDOF 8
ENDMDL
MODEL 3
REMARK VINA RESULT:      -8.2      2.449      3.679
REMARK  8 active torsions:
REMARK  status: ('A' for Active; 'I' for Inactive)
REMARK    1  A    between atoms: C_4  and  O_5 
REMARK    2  A    between atoms: O_5  and  C_6 
REMARK    3  A    between atoms: C_6  and  C_7 
REMARK    4  A    between atoms: C_7  and  N_8 
REMARK       I    between atoms: N_8  and  C_9 
REMARK    5  A    between atoms: C_9  and  C_10 
REMARK    6  A    between atoms: C_10  and  S_11 
REMARK    7  A    between atoms: S_11  and  C_12 
REMARK    8  A    between atoms: C_15  and  C_16 
ROOT
HETATM    1  C   UNL     1      39.265 -11.718   5.981  1.00  0.00     0.185 C 
ENDROOT
BRANCH   1   2
HETATM    2  C   UNL     1      39.317 -10.731   7.142  1.00  0.00     0.227 C 
HETATM    3  N   UNL     1      40.313  -9.777   6.987  1.00  0.00    -0.358 N 
HETATM    4  H   UNL     1      40.692  -9.642   6.058  1.00  0.00     0.162 HD
HETATM    5  O   UNL     1      38.600 -10.784   8.138  1.00  0.00    -0.273 OA
BRANCH   3   6
HETATM    6  C   UNL     1      40.489  -8.698   7.945  1.00  0.00     0.149 C 
BRANCH   6   7
HETATM    7  C   UNL     1      41.441  -9.075   9.082  1.00  0.00     0.195 C 
BRANCH   7   8
HETATM    8  O   UNL     1      42.688  -8.419   8.859  1.00  0.00    -0.350 OA
BRANCH   8   9
HETATM    9  C   UNL     1      43.726  -9.180   8.392  1.00  0.00     0.069 A 
HETATM   10  C   UNL     1      43.625 -10.444   7.810  1.00  0.00     0.043 A 
HETATM   11  C   UNL     1      44.777 -11.123   7.377  1.00  0.00    -0.059 A 
HETATM   12  C   UNL     1      44.681 -12.477   6.738  1.00  0.00     0.048 C 
HETATM   13  C   UNL     1      46.029 -10.512   7.521  1.00  0.00     0.007 A 
HETATM   14  C   UNL     1      46.132  -9.250   8.099  1.00  0.00     0.003 A 
HETATM   15  C   UNL     1      44.983  -8.589   8.533  1.00  0.00     0.037 A 
ENDBRANCH   8   9
ENDBRANCH   7   8
ENDBRANCH   6   7
ENDBRANCH   3   6
ENDBRANCH   1   2
BRANCH   1  16
HETATM   16  S   UNL     1      40.831 -11.802   5.073  1.00  0.00    -0.081 SA
BRANCH  16  17
HETATM   17  C   UNL     1      41.169 -13.490   5.208  1.00  0.00     0.191 A 
HETATM   18  N   UNL     1      42.079 -14.152   4.433  1.00  0.00    -0.312 N 
HETATM   19  C   UNL     1      43.036 -13.570   3.527  1.00  0.00     0.160 C 
HETATM   20  C   UNL     1      41.930 -15.489   4.740  1.00  0.00     0.164 A 
HETATM   21  N   UNL     1      41.050 -15.589   5.723  1.00  0.00    -0.128 NA
HETATM   22  N   UNL     1      40.567 -14.335   6.009  1.00  0.00    -0.122 NA
BRANCH  20  23
HETATM   23  C   UNL     1      42.625 -16.603   4.090  1.00  0.00     0.018 A 
HETATM   24  C   UNL     1      43.774 -17.193   4.659  1.00  0.00    -0.048 A 
HETATM   25  C   UNL     1      44.343 -16.722   5.970  1.00  0.00     0.049 C 
HETATM   26  C   UNL     1      44.388 -18.273   4.000  1.00  0.00     0.007 A 
HETATM   27  C   UNL     1      43.881 -18.761   2.796  1.00  0.00     0.001 A 
HETATM   28  C   UNL     1      42.745 -18.186   2.238  1.00  0.00     0.001 A 
HETATM   29  C   UNL     1      42.117 -17.120   2.885  1.00  0.00     0.016 A 
ENDBRANCH  20  23
ENDBRANCH  16  17
ENDBRANCH   1  16
TORSDOF 8
ENDMDL
MODEL 4
REMARK VINA RESULT:      -8.1      1.914      2.720
REMARK  8 active torsions:
REMARK  status: ('A' for Active; 'I' for Inactive)
REMARK    1  A    between atoms: C_4  and  O_5 
REMARK    2  A    between atoms: O_5  and  C_6 
REMARK    3  A    between atoms: C_6  and  C_7 
REMARK    4  A    between atoms: C_7  and  N_8 
REMARK       I    between atoms: N_8  and  C_9 
REMARK    5  A    between atoms: C_9  and  C_10 
REMARK    6  A    between atoms: C_10  and  S_11 
REMARK    7  A    between atoms: S_11  and  C_12 
REMARK    8  A    between atoms: C_15  and  C_16 
ROOT
HETATM    1  C   UNL     1      41.110 -12.635   5.806  1.00  0.00     0.185 C 
ENDROOT
BRANCH   1   2
HETATM    2  C   UNL     1      41.274 -11.147   6.101  1.00  0.00     0.227 C 
HETATM    3  N   UNL     1      40.408 -10.701   7.089  1.00  0.00    -0.358 N 
HETATM    4  H   UNL     1      39.985 -11.396   7.691  1.00  0.00     0.162 HD
HETATM    5  O   UNL     1      42.047 -10.398   5.510  1.00  0.00    -0.273 OA
BRANCH   3   6
HETATM    6  C   UNL     1      40.448  -9.331   7.573  1.00  0.00     0.149 C 
BRANCH   6   7
HETATM    7  C   UNL     1      40.505  -9.253   9.100  1.00  0.00     0.195 C 
BRANCH   7   8
HETATM    8  O   UNL     1      41.559  -8.362   9.464  1.00  0.00    -0.350 OA
BRANCH   8   9
HETATM    9  C   UNL     1      42.811  -8.894   9.613  1.00  0.00     0.069 A 
HETATM   10  C   UNL     1      43.877  -8.756   8.723  1.00  0.00     0.043 A 
HETATM   11  C   UNL     1      45.116  -9.362   8.994  1.00  0.00    -0.059 A 
HETATM   12  C   UNL     1      46.273  -9.209   8.051  1.00  0.00     0.048 C 
HETATM   13  C   UNL     1      45.277 -10.094  10.177  1.00  0.00     0.007 A 
HETATM   14  C   UNL     1      44.216 -10.231  11.068  1.00  0.00     0.003 A 
HETATM   15  C   UNL     1      42.989  -9.633  10.785  1.00  0.00     0.037 A 
ENDBRANCH   8   9
ENDBRANCH   7   8
ENDBRANCH   6   7
ENDBRANCH   3   6
ENDBRANCH   1   2
BRANCH   1  16
HETATM   16  S   UNL     1      40.397 -12.941   4.168  1.00  0.00    -0.081 SA
BRANCH  16  17
HETATM   17  C   UNL     1      41.565 -14.041   3.530  1.00  0.00     0.191 A 
HETATM   18  N   UNL     1      41.535 -15.391   3.733  1.00  0.00    -0.312 N 
HETATM   19  C   UNL     1      40.468 -16.157   4.325  1.00  0.00     0.160 C 
HETATM   20  C   UNL     1      42.713 -15.876   3.203  1.00  0.00     0.164 A 
HETATM   21  N   UNL     1      43.348 -14.870   2.625  1.00  0.00    -0.128 NA
HETATM   22  N   UNL     1      42.631 -13.717   2.839  1.00  0.00    -0.122 NA
BRANCH  20  23
HETATM   23  C   UNL     1      43.179 -17.263   3.270  1.00  0.00     0.018 A 
HETATM   24  C   UNL     1      43.912 -17.747   4.375  1.00  0.00    -0.048 A 
HETATM   25  C   UNL     1      44.244 -16.871   5.553  1.00  0.00     0.049 C 
HETATM   26  C   UNL     1      44.316 -19.094   4.393  1.00  0.00     0.007 A 
HETATM   27  C   UNL     1      44.009 -19.950   3.336  1.00  0.00     0.001 A 
HETATM   28  C   UNL     1      43.280 -19.477   2.250  1.00  0.00     0.001 A 
HETATM   29  C   UNL     1      42.863 -18.145   2.221  1.00  0.00     0.016 A 
ENDBRANCH  20  23
ENDBRANCH  16  17
ENDBRANCH   1  16
TORSDOF 8
ENDMDL
MODEL 5
REMARK VINA RESULT:      -8.1      3.762      7.888
REMARK  8 active torsions:
REMARK  status: ('A' for Active; 'I' for Inactive)
REMARK    1  A    between atoms: C_4  and  O_5 
REMARK    2  A    between atoms: O_5  and  C_6 
REMARK    3  A    between atoms: C_6  and  C_7 
REMARK    4  A    between atoms: C_7  and  N_8 
REMARK       I    between atoms: N_8  and  C_9 
REMARK    5  A    between atoms: C_9  and  C_10 
REMARK    6  A    between atoms: C_10  and  S_11 
REMARK    7  A    between atoms: S_11  and  C_12 
REMARK    8  A    between atoms: C_15  and  C_16 
ROOT
HETATM    1  C   UNL     1      43.050 -12.573   6.066  1.00  0.00     0.185 C 
ENDROOT
BRANCH   1   2
HETATM    2  C   UNL     1      42.423 -13.897   6.490  1.00  0.00     0.227 C 
HETATM    3  N   UNL     1      43.340 -14.759   7.073  1.00  0.00    -0.358 N 
HETATM    4  H   UNL     1      44.207 -14.362   7.414  1.00  0.00     0.162 HD
HETATM    5  O   UNL     1      41.249 -14.206   6.303  1.00  0.00    -0.273 OA
BRANCH   3   6
HETATM    6  C   UNL     1      42.937 -16.047   7.614  1.00  0.00     0.149 C 
BRANCH   6   7
HETATM    7  C   UNL     1      43.632 -17.218   6.918  1.00  0.00     0.195 C 
BRANCH   7   8
HETATM    8  O   UNL     1      44.293 -16.719   5.756  1.00  0.00    -0.350 OA
BRANCH   8   9
HETATM    9  C   UNL     1      43.872 -17.187   4.541  1.00  0.00     0.069 A 
HETATM   10  C   UNL     1      44.005 -18.493   4.068  1.00  0.00     0.043 A 
HETATM   11  C   UNL     1      43.533 -18.841   2.791  1.00  0.00    -0.059 A 
HETATM   12  C   UNL     1      43.659 -20.245   2.277  1.00  0.00     0.048 C 
HETATM   13  C   UNL     1      42.910 -17.867   2.001  1.00  0.00     0.007 A 
HETATM   14  C   UNL     1      42.773 -16.564   2.471  1.00  0.00     0.003 A 
HETATM   15  C   UNL     1      43.253 -16.227   3.736  1.00  0.00     0.037 A 
ENDBRANCH   8   9
ENDBRANCH   7   8
ENDBRANCH   6   7
ENDBRANCH   3   6
ENDBRANCH   1   2
BRANCH   1  16
HETATM   16  S   UNL     1      41.809 -11.300   5.712  1.00  0.00    -0.081 SA
BRANCH  16  17
HETATM   17  C   UNL     1      41.746 -11.408   3.990  1.00  0.00     0.191 A 
HETATM   18  N   UNL     1      40.735 -12.013   3.299  1.00  0.00    -0.312 N 
HETATM   19  C   UNL     1      39.482 -12.486   3.828  1.00  0.00     0.160 C 
HETATM   20  C   UNL     1      41.140 -12.026   1.979  1.00  0.00     0.164 A 
HETATM   21  N   UNL     1      42.283 -11.365   1.894  1.00  0.00    -0.128 NA
HETATM   22  N   UNL     1      42.666 -10.986   3.158  1.00  0.00    -0.122 NA
BRANCH  20  23
HETATM   23  C   UNL     1      40.428 -12.661   0.868  1.00  0.00     0.018 A 
HETATM   24  C   UNL     1      39.532 -11.939   0.051  1.00  0.00    -0.048 A 
HETATM   25  C   UNL     1      39.267 -10.472   0.266  1.00  0.00     0.049 C 
HETATM   26  C   UNL     1      38.892 -12.596  -1.014  1.00  0.00     0.007 A 
HETATM   27  C   UNL     1      39.126 -13.947  -1.268  1.00  0.00     0.001 A 
HETATM   28  C   UNL     1      40.014 -14.659  -0.470  1.00  0.00     0.001 A 
HETATM   29  C   UNL     1      40.665 -14.019   0.586  1.00  0.00     0.016 A 
ENDBRANCH  20  23
ENDBRANCH  16  17
ENDBRANCH   1  16
TORSDOF 8
ENDMDL
MODEL 6
REMARK VINA RESULT:      -8.0      4.143      7.872
REMARK  8 active torsions:
REMARK  status: ('A' for Active; 'I' for Inactive)
REMARK    1  A    between atoms: C_4  and  O_5 
REMARK    2  A    between atoms: O_5  and  C_6 
REMARK    3  A    between atoms: C_6  and  C_7 
REMARK    4  A    between atoms: C_7  and  N_8 
REMARK       I    between atoms: N_8  and  C_9 
REMARK    5  A    between atoms: C_9  and  C_10 
REMARK    6  A    between atoms: C_10  and  S_11 
REMARK    7  A    between atoms: S_11  and  C_12 
REMARK    8  A    between atoms: C_15  and  C_16 
ROOT
HETATM    1  C   UNL     1      42.276 -11.384   4.265  1.00  0.00     0.185 C 
ENDROOT
BRANCH   1   2
HETATM    2  C   UNL     1      41.759 -10.384   3.236  1.00  0.00     0.227 C 
HETATM    3  N   UNL     1      41.835 -10.867   1.938  1.00  0.00    -0.358 N 
HETATM    4  H   UNL     1      41.937 -11.867   1.814  1.00  0.00     0.162 HD
HETATM    5  O   UNL     1      41.359  -9.253   3.500  1.00  0.00    -0.273 OA
BRANCH   3   6
HETATM    6  C   UNL     1      41.328 -10.102   0.810  1.00  0.00     0.149 C 
BRANCH   6   7
HETATM    7  C   UNL     1      41.462 -10.854  -0.515  1.00  0.00     0.195 C 
BRANCH   7   8
HETATM    8  O   UNL     1      41.000 -12.190  -0.320  1.00  0.00    -0.350 OA
BRANCH   8   9
HETATM    9  C   UNL     1      39.956 -12.615  -1.096  1.00  0.00     0.069 A 
HETATM   10  C   UNL     1      38.873 -11.843  -1.518  1.00  0.00     0.043 A 
HETATM   11  C   UNL     1      37.859 -12.408  -2.310  1.00  0.00    -0.059 A 
HETATM   12  C   UNL     1      36.697 -11.584  -2.781  1.00  0.00     0.048 C 
HETATM   13  C   UNL     1      37.952 -13.753  -2.687  1.00  0.00     0.007 A 
HETATM   14  C   UNL     1      39.033 -14.526  -2.269  1.00  0.00     0.003 A 
HETATM   15  C   UNL     1      40.029 -13.958  -1.476  1.00  0.00     0.037 A 
ENDBRANCH   8   9
ENDBRANCH   7   8
ENDBRANCH   6   7
ENDBRANCH   3   6
ENDBRANCH   1   2
BRANCH   1  16
HETATM   16  S   UNL     1      41.158 -12.794   4.483  1.00  0.00    -0.081 SA
BRANCH  16  17
HETATM   17  C   UNL     1      42.054 -14.021   3.663  1.00  0.00     0.191 A 
HETATM   18  N   UNL     1      41.950 -15.355   3.937  1.00  0.00    -0.312 N 
HETATM   19  C   UNL     1      40.977 -15.995   4.784  1.00  0.00     0.160 C 
HETATM   20  C   UNL     1      42.935 -15.969   3.189  1.00  0.00     0.164 A 
HETATM   21  N   UNL     1      43.513 -15.047   2.436  1.00  0.00    -0.128 NA
HETATM   22  N   UNL     1      42.966 -13.824   2.742  1.00  0.00    -0.122 NA
BRANCH  20  23
HETATM   23  C   UNL     1      43.280 -17.392   3.223  1.00  0.00     0.018 A 
HETATM   24  C   UNL     1      44.023 -17.950   4.285  1.00  0.00    -0.048 A 
HETATM   25  C   UNL     1      44.492 -17.119   5.449  1.00  0.00     0.049 C 
HETATM   26  C   UNL     1      44.307 -19.327   4.274  1.00  0.00     0.007 A 
HETATM   27  C   UNL     1      43.872 -20.142   3.229  1.00  0.00     0.001 A 
HETATM   28  C   UNL     1      43.132 -19.596   2.186  1.00  0.00     0.001 A 
HETATM   29  C   UNL     1      42.833 -18.232   2.187  1.00  0.00     0.016 A 
ENDBRANCH  20  23
ENDBRANCH  16  17
ENDBRANCH   1  16
TORSDOF 8
ENDMDL
MODEL 7
REMARK VINA RESULT:      -8.0      2.685      3.840
REMARK  8 active torsions:
REMARK  status: ('A' for Active; 'I' for Inactive)
REMARK    1  A    between atoms: C_4  and  O_5 
REMARK    2  A    between atoms: O_5  and  C_6 
REMARK    3  A    between atoms: C_6  and  C_7 
REMARK    4  A    between atoms: C_7  and  N_8 
REMARK       I    between atoms: N_8  and  C_9 
REMARK    5  A    between atoms: C_9  and  C_10 
REMARK    6  A    between atoms: C_10  and  S_11 
REMARK    7  A    between atoms: S_11  and  C_12 
REMARK    8  A    between atoms: C_15  and  C_16 
ROOT
HETATM    1  C   UNL     1      39.448 -11.451   6.393  1.00  0.00     0.185 C 
ENDROOT
BRANCH   1   2
HETATM    2  C   UNL     1      39.508 -10.162   7.206  1.00  0.00     0.227 C 
HETATM    3  N   UNL     1      40.578 -10.138   8.089  1.00  0.00    -0.358 N 
HETATM    4  H   UNL     1      41.337 -10.787   7.923  1.00  0.00     0.162 HD
HETATM    5  O   UNL     1      38.684  -9.254   7.138  1.00  0.00    -0.273 OA
BRANCH   3   6
HETATM    6  C   UNL     1      40.862  -8.971   8.908  1.00  0.00     0.149 C 
BRANCH   6   7
HETATM    7  C   UNL     1      42.319  -8.922   9.371  1.00  0.00     0.195 C 
BRANCH   7   8
HETATM    8  O   UNL     1      42.480  -9.846  10.446  1.00  0.00    -0.350 OA
BRANCH   8   9
HETATM    9  C   UNL     1      42.227  -9.391  11.712  1.00  0.00     0.069 A 
HETATM   10  C   UNL     1      42.944  -8.407  12.393  1.00  0.00     0.043 A 
HETATM   11  C   UNL     1      42.581  -8.036  13.700  1.00  0.00    -0.059 A 
HETATM   12  C   UNL     1      43.336  -6.970  14.437  1.00  0.00     0.048 C 
HETATM   13  C   UNL     1      41.481  -8.653  14.308  1.00  0.00     0.007 A 
HETATM   14  C   UNL     1      40.762  -9.633  13.629  1.00  0.00     0.003 A 
HETATM   15  C   UNL     1      41.136 -10.000  12.337  1.00  0.00     0.037 A 
ENDBRANCH   8   9
ENDBRANCH   7   8
ENDBRANCH   6   7
ENDBRANCH   3   6
ENDBRANCH   1   2
BRANCH   1  16
HETATM   16  S   UNL     1      40.865 -11.633   5.278  1.00  0.00    -0.081 SA
BRANCH  16  17
HETATM   17  C   UNL     1      41.096 -13.342   5.357  1.00  0.00     0.191 A 
HETATM   18  N   UNL     1      42.008 -14.026   4.604  1.00  0.00    -0.312 N 
HETATM   19  C   UNL     1      43.046 -13.467   3.778  1.00  0.00     0.160 C 
HETATM   20  C   UNL     1      41.764 -15.363   4.844  1.00  0.00     0.164 A 
HETATM   21  N   UNL     1      40.826 -15.449   5.773  1.00  0.00    -0.128 NA
HETATM   22  N   UNL     1      40.401 -14.180   6.087  1.00  0.00    -0.122 NA
BRANCH  20  23
HETATM   23  C   UNL     1      42.428 -16.490   4.185  1.00  0.00     0.018 A 
HETATM   24  C   UNL     1      42.060 -16.914   2.891  1.00  0.00    -0.048 A 
HETATM   25  C   UNL     1      40.975 -16.225   2.108  1.00  0.00     0.049 C 
HETATM   26  C   UNL     1      42.747 -17.990   2.300  1.00  0.00     0.007 A 
HETATM   27  C   UNL     1      43.777 -18.642   2.977  1.00  0.00     0.001 A 
HETATM   28  C   UNL     1      44.146 -18.221   4.249  1.00  0.00     0.001 A 
HETATM   29  C   UNL     1      43.481 -17.149   4.846  1.00  0.00     0.016 A 
ENDBRANCH  20  23
ENDBRANCH  16  17
ENDBRANCH   1  16
TORSDOF 8
ENDMDL
MODEL 8
REMARK VINA RESULT:      -7.9      1.652      2.205
REMARK  8 active torsions:
REMARK  status: ('A' for Active; 'I' for Inactive)
REMARK    1  A    between atoms: C_4  and  O_5 
REMARK    2  A    between atoms: O_5  and  C_6 
REMARK    3  A    between atoms: C_6  and  C_7 
REMARK    4  A    between atoms: C_7  and  N_8 
REMARK       I    between atoms: N_8  and  C_9 
REMARK    5  A    between atoms: C_9  and  C_10 
REMARK    6  A    between atoms: C_10  and  S_11 
REMARK    7  A    between atoms: S_11  and  C_12 
REMARK    8  A    between atoms: C_15  and  C_16 
ROOT
HETATM    1  C   UNL     1      41.226 -12.482   6.032  1.00  0.00     0.185 C 
ENDROOT
BRANCH   1   2
HETATM    2  C   UNL     1      42.022 -11.182   6.054  1.00  0.00     0.227 C 
HETATM    3  N   UNL     1      42.205 -10.690   7.339  1.00  0.00    -0.358 N 
HETATM    4  H   UNL     1      42.068 -11.332   8.111  1.00  0.00     0.162 HD
HETATM    5  O   UNL     1      42.427 -10.592   5.056  1.00  0.00    -0.273 OA
BRANCH   3   6
HETATM    6  C   UNL     1      42.998  -9.498   7.592  1.00  0.00     0.149 C 
BRANCH   6   7
HETATM    7  C   UNL     1      43.646  -9.511   8.978  1.00  0.00     0.195 C 
BRANCH   7   8
HETATM    8  O   UNL     1      42.787 -10.220   9.868  1.00  0.00    -0.350 OA
BRANCH   8   9
HETATM    9  C   UNL     1      42.351  -9.560  10.985  1.00  0.00     0.069 A 
HETATM   10  C   UNL     1      43.126  -8.758  11.824  1.00  0.00     0.043 A 
HETATM   11  C   UNL     1      42.553  -8.140  12.949  1.00  0.00    -0.059 A 
HETATM   12  C   UNL     1      43.374  -7.265  13.850  1.00  0.00     0.048 C 
HETATM   13  C   UNL     1      41.190  -8.322  13.212  1.00  0.00     0.007 A 
HETATM   14  C   UNL     1      40.414  -9.120  12.376  1.00  0.00     0.003 A 
HETATM   15  C   UNL     1      40.995  -9.736  11.268  1.00  0.00     0.037 A 
ENDBRANCH   8   9
ENDBRANCH   7   8
ENDBRANCH   6   7
ENDBRANCH   3   6
ENDBRANCH   1   2
BRANCH   1  16
HETATM   16  S   UNL     1      40.448 -12.791   4.424  1.00  0.00    -0.081 SA
BRANCH  16  17
HETATM   17  C   UNL     1      41.604 -13.870   3.730  1.00  0.00     0.191 A 
HETATM   18  N   UNL     1      41.557 -15.229   3.865  1.00  0.00    -0.312 N 
HETATM   19  C   UNL     1      40.481 -16.011   4.416  1.00  0.00     0.160 C 
HETATM   20  C   UNL     1      42.730 -15.701   3.311  1.00  0.00     0.164 A 
HETATM   21  N   UNL     1      43.377 -14.673   2.785  1.00  0.00    -0.128 NA
HETATM   22  N   UNL     1      42.674 -13.525   3.057  1.00  0.00    -0.122 NA
BRANCH  20  23
HETATM   23  C   UNL     1      43.179 -17.095   3.306  1.00  0.00     0.018 A 
HETATM   24  C   UNL     1      43.940 -17.632   4.365  1.00  0.00    -0.048 A 
HETATM   25  C   UNL     1      44.323 -16.809   5.566  1.00  0.00     0.049 C 
HETATM   26  C   UNL     1      44.327 -18.983   4.316  1.00  0.00     0.007 A 
HETATM   27  C   UNL     1      43.974 -19.792   3.236  1.00  0.00     0.001 A 
HETATM   28  C   UNL     1      43.217 -19.267   2.195  1.00  0.00     0.001 A 
HETATM   29  C   UNL     1      42.817 -17.929   2.233  1.00  0.00     0.016 A 
ENDBRANCH  20  23
ENDBRANCH  16  17
ENDBRANCH   1  16
TORSDOF 8
ENDMDL
MODEL 9
REMARK VINA RESULT:      -7.8      2.826     10.692
REMARK  8 active torsions:
REMARK  status: ('A' for Active; 'I' for Inactive)
REMARK    1  A    between atoms: C_4  and  O_5 
REMARK    2  A    between atoms: O_5  and  C_6 
REMARK    3  A    between atoms: C_6  and  C_7 
REMARK    4  A    between atoms: C_7  and  N_8 
REMARK       I    between atoms: N_8  and  C_9 
REMARK    5  A    between atoms: C_9  and  C_10 
REMARK    6  A    between atoms: C_10  and  S_11 
REMARK    7  A    between atoms: S_11  and  C_12 
REMARK    8  A    between atoms: C_15  and  C_16 
ROOT
HETATM    1  C   UNL     1      40.758 -10.447   6.079  1.00  0.00     0.185 C 
ENDROOT
BRANCH   1   2
HETATM    2  C   UNL     1      40.385 -11.883   5.725  1.00  0.00     0.227 C 
HETATM    3  N   UNL     1      40.956 -12.304   4.532  1.00  0.00    -0.358 N 
HETATM    4  H   UNL     1      41.744 -11.777   4.177  1.00  0.00     0.162 HD
HETATM    5  O   UNL     1      39.627 -12.591   6.382  1.00  0.00    -0.273 OA
BRANCH   3   6
HETATM    6  C   UNL     1      40.787 -13.664   4.046  1.00  0.00     0.149 C 
BRANCH   6   7
HETATM    7  C   UNL     1      42.080 -14.478   4.126  1.00  0.00     0.195 C 
BRANCH   7   8
HETATM    8  O   UNL     1      42.043 -15.478   3.110  1.00  0.00    -0.350 OA
BRANCH   8   9
HETATM    9  C   UNL     1      42.746 -16.631   3.334  1.00  0.00     0.069 A 
HETATM   10  C   UNL     1      42.754 -17.764   2.519  1.00  0.00     0.043 A 
HETATM   11  C   UNL     1      43.519 -18.889   2.869  1.00  0.00    -0.059 A 
HETATM   12  C   UNL     1      43.546 -20.108   1.994  1.00  0.00     0.048 C 
HETATM   13  C   UNL     1      44.289 -18.859   4.038  1.00  0.00     0.007 A 
HETATM   14  C   UNL     1      44.285 -17.729   4.852  1.00  0.00     0.003 A 
HETATM   15  C   UNL     1      43.515 -16.621   4.499  1.00  0.00     0.037 A 
ENDBRANCH   8   9
ENDBRANCH   7   8
ENDBRANCH   6   7
ENDBRANCH   3   6
ENDBRANCH   1   2
BRANCH   1  16
HETATM   16  S   UNL     1      42.373 -10.333   6.895  1.00  0.00    -0.081 SA
BRANCH  16  17
HETATM   17  C   UNL     1      41.959  -9.343   8.247  1.00  0.00     0.191 A 
HETATM   18  N   UNL     1      42.471  -9.511   9.502  1.00  0.00    -0.312 N 
HETATM   19  C   UNL     1      43.554 -10.377   9.890  1.00  0.00     0.160 C 
HETATM   20  C   UNL     1      41.774  -8.637  10.311  1.00  0.00     0.164 A 
HETATM   21  N   UNL     1      40.969  -7.920   9.543  1.00  0.00    -0.128 NA
HETATM   22  N   UNL     1      41.080  -8.371   8.250  1.00  0.00    -0.122 NA
BRANCH  20  23
HETATM   23  C   UNL     1      41.902  -8.523  11.766  1.00  0.00     0.018 A 
HETATM   24  C   UNL     1      41.049  -9.226  12.643  1.00  0.00    -0.048 A 
HETATM   25  C   UNL     1      39.969 -10.144  12.135  1.00  0.00     0.049 C 
HETATM   26  C   UNL     1      41.232  -9.094  14.031  1.00  0.00     0.007 A 
HETATM   27  C   UNL     1      42.236  -8.275  14.548  1.00  0.00     0.001 A 
HETATM   28  C   UNL     1      43.082  -7.587  13.686  1.00  0.00     0.001 A 
HETATM   29  C   UNL     1      42.920  -7.715  12.305  1.00  0.00     0.016 A 
ENDBRANCH  20  23
ENDBRANCH  16  17
ENDBRANCH   1  16
TORSDOF 8
ENDMDL
MODEL 10
REMARK VINA RESULT:      -7.6      2.298     10.846
REMARK  8 active torsions:
REMARK  status: ('A' for Active; 'I' for Inactive)
REMARK    1  A    between atoms: C_4  and  O_5 
REMARK    2  A    between atoms: O_5  and  C_6 
REMARK    3  A    between atoms: C_6  and  C_7 
REMARK    4  A    between atoms: C_7  and  N_8 
REMARK       I    between atoms: N_8  and  C_9 
REMARK    5  A    between atoms: C_9  and  C_10 
REMARK    6  A    between atoms: C_10  and  S_11 
REMARK    7  A    between atoms: S_11  and  C_12 
REMARK    8  A    between atoms: C_15  and  C_16 
ROOT
HETATM    1  C   UNL     1      43.495 -11.310   6.216  1.00  0.00     0.185 C 
ENDROOT
BRANCH   1   2
HETATM    2  C   UNL     1      42.856 -12.613   5.746  1.00  0.00     0.227 C 
HETATM    3  N   UNL     1      42.066 -12.442   4.618  1.00  0.00    -0.358 N 
HETATM    4  H   UNL     1      42.205 -11.602   4.070  1.00  0.00     0.162 HD
HETATM    5  O   UNL     1      42.975 -13.695   6.313  1.00  0.00    -0.273 OA
BRANCH   3   6
HETATM    6  C   UNL     1      41.422 -13.569   3.962  1.00  0.00     0.149 C 
BRANCH   6   7
HETATM    7  C   UNL     1      42.386 -14.355   3.071  1.00  0.00     0.195 C 
BRANCH   7   8
HETATM    8  O   UNL     1      41.819 -15.639   2.821  1.00  0.00    -0.350 OA
BRANCH   8   9
HETATM    9  C   UNL     1      42.588 -16.735   3.105  1.00  0.00     0.069 A 
HETATM   10  C   UNL     1      42.682 -17.898   2.337  1.00  0.00     0.043 A 
HETATM   11  C   UNL     1      43.509 -18.957   2.747  1.00  0.00    -0.059 A 
HETATM   12  C   UNL     1      43.629 -20.206   1.924  1.00  0.00     0.048 C 
HETATM   13  C   UNL     1      44.253 -18.831   3.927  1.00  0.00     0.007 A 
HETATM   14  C   UNL     1      44.163 -17.672   4.693  1.00  0.00     0.003 A 
HETATM   15  C   UNL     1      43.332 -16.630   4.282  1.00  0.00     0.037 A 
ENDBRANCH   8   9
ENDBRANCH   7   8
ENDBRANCH   6   7
ENDBRANCH   3   6
ENDBRANCH   1   2
BRANCH   1  16
HETATM   16  S   UNL     1      42.266 -10.082   6.731  1.00  0.00    -0.081 SA
BRANCH  16  17
HETATM   17  C   UNL     1      42.968  -9.554   8.217  1.00  0.00     0.191 A 
HETATM   18  N   UNL     1      42.246  -9.127   9.295  1.00  0.00    -0.312 N 
HETATM   19  C   UNL     1      40.820  -9.214   9.474  1.00  0.00     0.160 C 
HETATM   20  C   UNL     1      43.171  -8.649  10.200  1.00  0.00     0.164 A 
HETATM   21  N   UNL     1      44.380  -8.883   9.714  1.00  0.00    -0.128 NA
HETATM   22  N   UNL     1      44.251  -9.443   8.466  1.00  0.00    -0.122 NA
BRANCH  20  23
HETATM   23  C   UNL     1      42.868  -7.994  11.475  1.00  0.00     0.018 A 
HETATM   24  C   UNL     1      42.554  -6.621  11.547  1.00  0.00    -0.048 A 
HETATM   25  C   UNL     1      42.498  -5.753  10.319  1.00  0.00     0.049 C 
HETATM   26  C   UNL     1      42.252  -6.051  12.797  1.00  0.00     0.007 A 
HETATM   27  C   UNL     1      42.266  -6.822  13.959  1.00  0.00     0.001 A 
HETATM   28  C   UNL     1      42.568  -8.177  13.889  1.00  0.00     0.001 A 
HETATM   29  C   UNL     1      42.861  -8.760  12.655  1.00  0.00     0.016 A 
ENDBRANCH  20  23
ENDBRANCH  16  17
ENDBRANCH   1  16
TORSDOF 8
ENDMDL
